data_image0
_chemical_formula_structural       HFeSHFeS2FeSFeS3H3CH6SHSH2SHFeSFeSH3SH3CHFeHSC2H2S2H4CHCH3C2H3C6H2NHCH4CNCHC5H2FeH3C6H4C6H4CH4CSH4CH2CH5SHFeCH2CNSCHCH3NC4H12NC3HSH2CSHCH2CNCH2CSCHCFe2SH3CHCHSHNHCHSHSHFeSHFeCFeS3FeHSHFeHCSHSHCHCHS2H2SH2CNH2C2H2SC2NH4CH3SH4C2H3CFeNHCS2CHC4H4FeHC6H4CSHCSFeH2C2H2C5H3C3HC2H4NHC2H2C2HC2HCH3CH3C2H4NC4H12NH4SHC3HCNHCH3CHFeH3CHCH6C2HSH2C2FeS2FeS2FeSFeS3HFeS2FeS2FeSFeS3FeHSH3SFeSCSFeS4CH2CFeH2FeCH2C2HC2H2C6H7CH3C6H3NHC6H4C6H6SC2H3SHCH4C2H5C2H2CHSC2H2CHFeCNH3CH4CFeH4CHCH4CHC2HC2HCH4NHCSHCH3CHNC4H12NC4SC4SHCH3C3H5FeS2FeSCFeSFeS3HFeS2FeSHFeSFeS3CSH3CHSCFe2S2FeHFeS2CSC2H4CHCHSFeH2C2H6C6H5CHCHC6H3C2H2C6H4C6H4CH7NH2NC4HNHFeH2SH7C3SH3NC4H14SC2H2CHCNCH2CH3CH8SH2CHCH5CH2N3CHCH2SCH3CH2SH2CH3SC3HC2H2CH2CHCH2C3FeH2CHSCH2FeS2FeS2FeSFeHS2FeS2FeS2FeHFeS4NFeS2FeS2FeSFeS3H3C4H4C5H4CH2C6H4C6H4CHNC6H5SNH2C6H4CHC2H2C2SNHC3H2CH2C2H9CSHCNH2NHCH8CH3C2NC4H16SH2CH2NHCH2CFeCH2C2HSH3FeCH4C3HSCHNH2C4H3CFeCH2C2H3CH11SC2HCH2C2NH2SH6CH2CHCH2C2H2FeSHFeS2FeSFeS3FeS2FeSFeHFeHS2FeS2FeS2FeSFeS3FeS2HSFeSFeCS2CHNC6H4C6H4C6H2CHCH2CH2C5H5SCH4SC6H8C2H2NC4H12CHNH2SFeHCH6CH2CH3CH3CHCH2C2H3C2H8CNH2SCHC2NCSH4C2H2NC4H15CHCH5S2H2C2HCH2CHNHCH6SCH3C2NCHCNCH5C2HCFeS2FeS2FeHFeCS3CSH2FeS2FeS2FeSFeS4CHFeHC6H3SC5H4C5H6C4SFeC2H5FeH2CSH2S3H4C6H4FeC2HNC2H6CFeCH8SNC4H12NC5H8CHFeNSH2CH2CHC3H7CHCH3CH4CFeS2FeS2FeHFeS3FeSFeS2FeSFeS4HNHSFeHC2HC2HFeS2C5H4C3H5NHC6H4C6H4C2FeHSCHSH3C2HCHC6H3FeHC2HSH7C2H4CH6CH2SCSCH3SH3SNCH2NCNCHNCHFe2H3SH2SCH4C2HCH2CSCH3S2H2CHCH2FeNCHCH3C3HC3HC2H3FeSHFeS2FeSFeS3FeS2FeS2FeSFeS3CFeS2FeHFeSH2S2FeS2HSCHC5H3C3H2C6H4CSCH4C3HCH2C2HCH4FeC6H5CHC6H7NHCHCHCHC2HCH3C2HCH3FeH2C2H4NC4H12NC4H12CNH2C2HCHSHCNH2NC4SC2H2NCH4CHCHSCH3CH6CH3C2HCH2CNH2CH2CSCFeCH2CH2CH3NCH3CSFeS3FeSCSHFeS2FeS2FeSFeS3HFeHSH5SHCFeSHC4H2CH4C4HCHFe2HC6H4SHC2FeC4FeSH2CS2HC6H4C6H3NC4H12SH5SCH10CSFeH3CHCSHSH5CH2CNCHNHCH2NH3C2HCH6CHSH2CH2CNC5HFeH3CH4C2H5SCHSC2H2SH4CHCHNHCHSH2CFeS2FeS2FeSFeS3FeS2FeSHFeSFeS3FeS2FeS2FeHFeS3HC2H2C3SHCH6C7H4CH3CH3C6H10C3H4NC2HC2HC3H3CH2C6H4CHC4H6NH2CH8N2CHSHCH2CH4CHCH2C2NCH2CH6CHFeCH2NFeC2HC2NC4H7CHC2HNH4CH2CH2CH3CH4CHCH2CHSHCH5FeS2FeS2FeSFeS3FeSHFeS2FeSFeS3FeS2FeS2FeSFeS3CHCH2CHNH2C2H5C7H4C2H5C6H4CH2C2HC2H4CH2NH2NC3NCH2C4H4NC4H13C2HCH2C3H3C2H2NC4H12C2HCH2C3HNH7CHCH2CH3C2SH5C2HC4H2CH3C2HC3H3CSHNH4CSC3SFeSFeS2FeCFeS3FeS3FeSFeS3CHFeSH3SH2SHCS2HNHC7H3NCH2C3HC6H2C6H4SC3HFeC2H4NSHCH2SH2CH6CHNC4H13C2SH3CH5CHFeSCSHFeH2C2H4NCHFeH3CH4C2HC4HC2HCH2CH2SHCH2CFeHCHC2H4C2HNSH3NH2CH5CHCH2SCH4CHCFeCFeSFe2S2FeSFeS3HSH2SCSH4CFeS2FeSHFeS3FeH2FeS2CHC2H6C2H3C2HC2H2C2HC2H3CH3C2HCH4C7H5CHCHCHC2HCHC2HSNC4H10NCH6CHC2NH3C2H3FeC2H2CH5NH2C3SHSH4C4SFeC2H2C3H4NC4H4C2FeHCHCH3FeSCFeS2FeHFeS3H3SCS2FeSH2NCH2FeSCSFeS2FeS2FeSFeS3C6H3C6H3CH4C2H3CNCH4C2HC6H4CHSC8H4SCH5FeH6CH6SNC2HSHCH2CH4CSC4H2FeH8CNC4H12SHSH3NHCH4CFeCHCH5SC4H3NH3NCH2CNCHC2H2CHCH7NH2C2SH2CH2C2SC2H2CHFeCSCH3C2SCHCH11S3FeH2C2HFeS2FeS2FeSFeCS3H2CFeC3FeSCHFeS2FeS2FeSFeS3HCHFeHSH5SCH3C7H4C6H6FeNH5CHCSCH2CHCFeH3C7H2CH2C6H6SNCHCHSHC2H5SFeHNH2NCH6CH2SH3SHCSCHNH5CH3SH3C7HNC2H6CSH4CNCHCH3FeNH2C2H2CH3C2H4CHSH2NC4HC2H5CSC2H4CH5CH3C2H6CFeHCFeSHFeS2FeHFeS3FeS2FeHSHSFeS3H3SCFeS2FeS2FeSFeS3C5H4FeC6H5C6H3C3HC2HCH3CHCH3C6H5C6H4SHC3HC2HFeHCSHCH5NC4HCH3SH6CH2SH6CH2CH3NHC3H7SH4NC4H12NC5NH2CNCSH2C2FeCSCH2CH4C2HCNH2CH2CHCH3CH5CH5SCH2FeHSFeS2HFeS3CSHFeSCFeSHS2HSFeS2FeSFeHSNFeS2FeS2FeSFeS3C6H4C6H4C6H4FeC3HCH2C2FeH2C7H4C5H7CH3FeH9CSHNC4H12NCHCNCHSFeCHC2H2CHNC4H12CH3CSHCH5NHSHSHCH5FeH10NC4H14CHCSCNSCH2CHSCSCHCSHCH2SFeSCS4FeS2CSFeHFeS2HFeSCFeNCH3S3H6C2HC2HCHSH2CSH2C6H4C5SCH2FeNCHS2H4S2H2SCH2CS2FeHCH6SCFeHNHC2H8C2H3NC4H11CSHSFeHFeC2HC2FeSCSHNCH4CH6CSHCFe2CHCSHCHCHFeH2FeHNFeC2H3SH4CHC2H2Fe2SHFeSHS2HSHCSCH3CHFeCFeH2C3SHCFeSHCSFeSFeS4H3NFeHSCNSHC2HSH2C2H2CHCSCH3C2H3C7H3CFeCH2NH4CH2CHCHC6H5CH3CHCSH2CH5NH5CH5N2C2HNS2NC2HCH4CHCH3C2H2CH3CHCHFeHC2HCH3CH3SH4CHCFeH2CSHCH3FeH3CHFeS2FeS2FeSFeNS2FeSCFeS2FeSFeS2FeS2FeSHFeSFeS3CSHC3H4C6H8C7H4NHCH3CH2C3H2C2HCH4CHNHCHC6H3SCH2NCHCH2SH2NCHSHC2H4CH3C2HCH5C2HSHCHCNHCH2CH2C2HC4HCH10CHCSH4CH2CHCHCSH6C2H6SHSH2SHCHSFeS2FeSHFeSFeS3FeS2FeSHFeSFeCS2FeS2FeS2FeSFeS3C2HC3HCH2C2SH3SC7H5CHCH2C6H4C2HCNC2HCSH2C4HNH2CH3C6H3CH2C7H2CNC4H24NHC2H2C2H3C2H2CHSH3NC4H12CH11SHC2H4NC4H12NHC3H4C2HCFeS2HSFeSHSFeS2FeSNFeSFeS3HC4HFeSCSHFeS2FeS2FeCFeS3CH2C2HC2HCH2CH10NHCH2C6H8C8H4C6H5NHSH4CSH4NH3CHCH4CHCH3CH2CHCH2CHCFeHNH4NC4H10CHSHCH2SCH2FeHNC4H2CSHC3H2CH3C2HFeCNC4H4CSCHSH3CH3CSH3C2HCH5CHFeS2FeS2FeSFeS2FeS2FeS2FeSFeS3H3FeS2FeSHS2FeS2Fe2HFeS3H7C3SNCHC2HC2HCHCHSCHC6H5SH2C2HC2H2C7H4C6H7C2HCH3FeH7CHNC4H18NCNHCNC4HC3HCHCH2C2NCH5CH9C2HCHCH2CSCH5CH2CHCSCH3C2H3CH2CHCH2CFeH2FeS2HCFeS3C2SFeSFeS2FeS2FeSFeS4HSH6NHC3HCH4CH3C6H5C5H5CH3SHC2HCSH4CHC6H3NC4H12NH2S2H2Fe2HSCH3CHNC4H12NC4H2FeSC2H4C2NH3CHFeC2HSCSCNFeHC5HS2CH2FeCH3CH4NH2CH2CH3CSHCH4FeHCFeS3HFeCS3FeS2FeS2FeSFeHS2FeS2C2FeS2FeS2C3H2CHSCHC6H4SHCHC7H5C4H5C6H5CH4CH3SH4C2FeH4CH2CSH3FeHNHCFeHCFeSHCHCH2SHSH4SNHC3FeCSHFeCFeSFeHSCHCH2CFeNFeH3NH2SH3SHNCH3FeCHC2FeS2FeS2FeNFeS3FeCSFeHSCH2S2HCH2S2HSFeS2FeS2FeSFeS4HC6H4C6H4FeCHCFeCH2C6N2HSCH2C6H4CHCHC6H4CH2CH2C2H5C2H4CHNC2H3CHCHSNC4H12CHNC4H12C2SNH3C2H3NCH7C2HCSCHFeCHNCH3CH2C2HCH2FeHFeH2CH2CH3CH5SHSCHSC2SCHCFeCH3FeHCH6SFeS2FeSHFeSFeSCHSHFeHSFeS2FeS2FeS2FeSFeS3HSCHCHFe2SCHC6H4C6H7CH3S2H5C7H4SC4H3SNS2C2H2C3H3CH4SHCH2SCH2CH6NC3H2CSCHCH5CNC4H12NC4H12NC4H9CH2NC5HSH7C2HCFeHNCH2SH2CHCH8C2H3NH2CSH2CHC3HSC2H5FeS2HFeNHFeSCSFeS2FeS2FeSFeS3CSCHSHFeSFeS3HFeS2Fe2SCHS2H3SC2HC2H6C2HFeH2C2H2CHC6H4FeH2CH3CFeCHC6H4C6H2CH2FeNH6CH2CH2CHC2HC2H3S2NHCNC4H12NC2H3C2H4CHCHCH2C2HCHCH6CH2CHSHC2SH8CH4CH2C2HFeS2FeHSHFeS3H2FeS2FeS2FeSFeS3FeS2FeS2H2FeS3FeS2HFeS2H2C3H2CNSCH2C2HCHCHC6H4C2H4CH2CHCSH4CH2C6H4C6H3NC4H14CH3CNH2SH6C2NFeHCHCH3CH2CNH2CH2CH6CH2CH2C2H2C3HCH2CHFeHCNHC2HCHFeH2CHCHSH3CHCH3C2NHNCH2CH2CFeH4C3HCHC2H2C3NC2SCH2FeSH2CH2C2H2CH2C2SHCH2NSH3FeS2C2HSC6H11CH2SHNCH4C5H5CHCH2CH3CFe2C2NC3H2SHS2H5C2H3C2H4CNHSH3Fe2CH2SH2CH4C3SHFeSH2SFeSFeS2H2NHFeS2H2SFeS2CH2CSH2SFeSHFeS2FeHFeS3HCFeS2CSFeSFeS2HC6H5CHCH5C7H7FeH3CH3C5NC6H3SCH2C3NH3CHCH2CH3C2HC2H4CH7C3H2Fe2H4CHCH3C2FeS2NC4H12NC4H8SCHC2H3C4HSH3CNH2C2H3CHSCHS2H
_chemical_formula_sum              "H3648 Fe456 S912 C2280 N228"
_cell_length_a       91.2076
_cell_length_b       90.7415
_cell_length_c       49.7647
_cell_angle_alpha    78.0099
_cell_angle_beta     78.3501
_cell_angle_gamma    101.856

_space_group_name_H-M_alt    "P 1"
_space_group_IT_number       1

loop_
  _space_group_symop_operation_xyz
  'x, y, z'

loop_
  _atom_site_type_symbol
  _atom_site_label
  _atom_site_symmetry_multiplicity
  _atom_site_fract_x
  _atom_site_fract_y
  _atom_site_fract_z
  _atom_site_occupancy
  H   H1        1.0  0.22679  0.04644  0.25798  1.0000
  Fe  Fe1       1.0  0.19689  0.21725  0.12139  1.0000
  S   S1        1.0  0.17420  0.22088  0.11370  1.0000
  H   H2        1.0  0.08858  0.15916  0.04240  1.0000
  Fe  Fe2       1.0  0.18260  0.18330  0.15367  1.0000
  S   S2        1.0  0.15886  0.18402  0.14826  1.0000
  S   S3        1.0  0.18781  0.16093  0.17453  1.0000
  Fe  Fe3       1.0  0.17047  0.19755  0.10320  1.0000
  S   S4        1.0  0.16121  0.19604  0.06408  1.0000
  Fe  Fe4       1.0  0.16391  0.20709  0.15933  1.0000
  S   S5        1.0  0.14277  0.20956  0.18956  1.0000
  S   S6        1.0  0.19391  0.19495  0.10756  1.0000
  S   S7        1.0  0.18692  0.20526  0.16803  1.0000
  H   H3        1.0  0.14182  0.00680  0.29465  1.0000
  H   H4        1.0  0.05167  0.21461  0.38535  1.0000
  H   H5        1.0  0.98997  0.16301  0.02332  1.0000
  C   C1        1.0  0.05471  0.22751  0.37713  1.0000
  H   H6        1.0  0.03802  0.22939  0.32158  1.0000
  H   H7        1.0  0.06141  0.12379  0.09448  1.0000
  H   H8        1.0  0.05800  0.20536  0.08163  1.0000
  H   H9        1.0  0.23165  0.14300  0.43388  1.0000
  H   H10       1.0  0.22344  0.20166  0.12430  1.0000
  H   H11       1.0  0.08197  0.01215  0.01961  1.0000
  S   S8        1.0  0.12859  0.13691  0.02651  1.0000
  H   H12       1.0  0.14551  0.02261  0.24555  1.0000
  S   S9        1.0  0.19860  0.02018  0.12618  1.0000
  H   H13       1.0  0.03874  0.19306  0.08865  1.0000
  H   H14       1.0  0.11385  0.23554  0.25048  1.0000
  S   S10       1.0  0.16527  0.01252  0.17089  1.0000
  H   H15       1.0  0.06089  0.19676  0.14335  1.0000
  Fe  Fe5       1.0  0.17385  0.00850  0.12792  1.0000
  S   S11       1.0  0.16436  0.01563  0.08892  1.0000
  Fe  Fe6       1.0  0.19017  0.02212  0.17113  1.0000
  S   S12       1.0  0.19559  0.04464  0.18671  1.0000
  H   H16       1.0  0.23454  0.01220  0.14287  1.0000
  H   H17       1.0  0.10874  0.02169  0.99002  1.0000
  H   H18       1.0  0.03239  0.12685  0.01311  1.0000
  S   S13       1.0  0.22065  0.10808  0.31543  1.0000
  H   H19       1.0  0.04220  0.21269  0.34216  1.0000
  H   H20       1.0  0.07803  0.00988  0.05735  1.0000
  H   H21       1.0  0.06628  0.21613  0.12010  1.0000
  C   C2        1.0  0.08658  0.00913  0.03860  1.0000
  H   H22       1.0  0.09130  0.14835  0.09059  1.0000
  Fe  Fe7       1.0  0.00313  0.21165  0.18393  1.0000
  H   H23       1.0  0.20821  0.17640  0.25187  1.0000
  S   S14       1.0  0.02741  0.21898  0.19210  1.0000
  C   C3        1.0  0.10791  0.01494  0.06003  1.0000
  C   C4        1.0  0.10086  0.03586  0.03082  1.0000
  H   H24       1.0  0.15110  0.00714  0.23212  1.0000
  H   H25       1.0  0.10009  0.01572  0.07968  1.0000
  S   S15       1.0  0.00039  0.22052  0.13975  1.0000
  S   S16       1.0  0.06416  0.12669  0.99251  1.0000
  H   H26       1.0  0.05277  0.18600  0.10479  1.0000
  H   H27       1.0  0.09281  0.03729  0.04956  1.0000
  H   H28       1.0  0.02674  0.19467  0.16358  1.0000
  H   H29       1.0  0.10449  0.13811  0.07623  1.0000
  C   C5        1.0  0.14157  0.22368  0.20910  1.0000
  H   H30       1.0  0.00470  0.17939  0.04836  1.0000
  C   C6        1.0  0.03420  0.12700  0.99089  1.0000
  H   H31       1.0  0.03432  0.17974  0.15189  1.0000
  H   H32       1.0  0.09646  0.03965  0.01185  1.0000
  H   H33       1.0  0.23300  0.18624  0.12732  1.0000
  C   C7        1.0  0.99248  0.17399  0.05756  1.0000
  C   C8        1.0  0.15124  0.01109  0.04491  1.0000
  H   H34       1.0  0.08706  0.99673  0.04181  1.0000
  H   H35       1.0  0.06703  0.23135  0.36456  1.0000
  H   H36       1.0  0.15691  0.02332  0.03522  1.0000
  C   C9        1.0  0.20560  0.05335  0.20952  1.0000
  C   C10       1.0  0.20526  0.06866  0.21092  1.0000
  C   C11       1.0  0.21263  0.07598  0.22900  1.0000
  C   C12       1.0  0.22045  0.06806  0.24625  1.0000
  C   C13       1.0  0.22079  0.05275  0.24486  1.0000
  C   C14       1.0  0.21347  0.04545  0.22671  1.0000
  H   H37       1.0  0.19920  0.07495  0.19790  1.0000
  H   H38       1.0  0.21214  0.08771  0.22969  1.0000
  N   N1        1.0  0.16321  0.01425  0.26202  1.0000
  H   H39       1.0  0.21395  0.03372  0.22601  1.0000
  C   C15       1.0  0.16893  0.02869  0.27025  1.0000
  H   H40       1.0  0.16616  0.23292  0.20170  1.0000
  H   H41       1.0  0.18260  0.00523  0.26879  1.0000
  H   H42       1.0  0.14132  0.00804  0.00982  1.0000
  H   H43       1.0  0.12459  0.02607  0.00575  1.0000
  C   C16       1.0  0.22713  0.19329  0.13957  1.0000
  N   N2        1.0  0.08315  0.13471  0.06342  1.0000
  C   C17       1.0  0.02817  0.22742  0.37741  1.0000
  H   H44       1.0  0.05288  0.21169  0.15426  1.0000
  C   C18       1.0  0.08947  0.14787  0.03769  1.0000
  C   C19       1.0  0.22880  0.21014  0.17115  1.0000
  C   C20       1.0  0.03066  0.19052  0.14450  1.0000
  C   C21       1.0  0.03547  0.22948  0.21498  1.0000
  C   C22       1.0  0.12684  0.22450  0.22299  1.0000
  H   H45       1.0  0.02431  0.21450  0.38563  1.0000
  H   H46       1.0  0.02010  0.23110  0.36490  1.0000
  Fe  Fe8       1.0  0.12009  0.13572  0.98659  1.0000
  H   H47       1.0  0.02043  0.18721  0.13592  1.0000
  H   H48       1.0  0.23237  0.18120  0.18944  1.0000
  H   H49       1.0  0.21851  0.20216  0.18752  1.0000
  C   C23       1.0  0.15208  0.17939  0.05423  1.0000
  C   C24       1.0  0.14740  0.18156  0.02870  1.0000
  C   C25       1.0  0.14022  0.16874  0.01984  1.0000
  C   C26       1.0  0.13766  0.15354  0.03645  1.0000
  C   C27       1.0  0.14218  0.15136  0.06213  1.0000
  C   C28       1.0  0.14935  0.16418  0.07098  1.0000
  H   H50       1.0  0.14945  0.19327  0.01559  1.0000
  H   H51       1.0  0.05760  0.22942  0.32143  1.0000
  H   H52       1.0  0.14028  0.13966  0.07514  1.0000
  H   H53       1.0  0.15290  0.16231  0.09063  1.0000
  C   C29       1.0  0.19728  0.15880  0.20224  1.0000
  C   C30       1.0  0.19946  0.17005  0.21748  1.0000
  C   C31       1.0  0.20669  0.16776  0.23991  1.0000
  C   C32       1.0  0.21200  0.15432  0.24701  1.0000
  C   C33       1.0  0.21002  0.14319  0.23151  1.0000
  C   C34       1.0  0.20259  0.14539  0.20934  1.0000
  H   H54       1.0  0.19542  0.18039  0.21218  1.0000
  H   H55       1.0  0.10195  0.14905  0.02835  1.0000
  H   H56       1.0  0.22460  0.21879  0.15735  1.0000
  H   H57       1.0  0.20089  0.13661  0.19769  1.0000
  C   C35       1.0  0.14224  0.00249  0.03059  1.0000
  H   H58       1.0  0.11964  0.02250  0.05773  1.0000
  H   H59       1.0  0.08758  0.12757  0.10439  1.0000
  H   H60       1.0  0.99611  0.23823  0.06291  1.0000
  H   H61       1.0  0.13682  0.17063  0.00006  1.0000
  C   C36       1.0  0.15476  0.23344  0.21230  1.0000
  S   S17       1.0  0.22086  0.15186  0.27554  1.0000
  H   H62       1.0  0.07837  0.11789  0.03952  1.0000
  H   H63       1.0  0.08317  0.14626  0.02108  1.0000
  H   H64       1.0  0.02780  0.21361  0.10419  1.0000
  H   H65       1.0  0.18498  0.01641  0.23326  1.0000
  C   C37       1.0  0.06661  0.13364  0.07508  1.0000
  H   H66       1.0  0.11386  0.00614  0.01171  1.0000
  H   H67       1.0  0.05857  0.22757  0.19847  1.0000
  C   C38       1.0  0.17639  0.00793  0.25207  1.0000
  H   H68       1.0  0.07973  0.10980  0.07481  1.0000
  H   H69       1.0  0.03401  0.22153  0.13154  1.0000
  H   H70       1.0  0.06503  0.14454  0.08073  1.0000
  H   H71       1.0  0.04708  0.22590  0.09715  1.0000
  H   H72       1.0  0.09693  0.12033  0.04751  1.0000
  S   S18       1.0  0.99286  0.18662  0.18430  1.0000
  H   H73       1.0  0.05981  0.13165  0.05925  1.0000
  Fe  Fe9       1.0  0.98854  0.19579  0.14156  1.0000
  C   C39       1.0  0.15318  0.00402  0.07155  1.0000
  H   H74       1.0  0.17724  0.03778  0.25180  1.0000
  H   H75       1.0  0.11234  0.04409  0.02757  1.0000
  C   C40       1.0  0.08459  0.12003  0.05602  1.0000
  N   N3        1.0  0.10203  0.01958  0.03478  1.0000
  S   S19       1.0  0.99642  0.18806  0.10095  1.0000
  C   C41       1.0  0.11281  0.01832  0.00943  1.0000
  H   H76       1.0  0.21398  0.13277  0.23689  1.0000
  C   C42       1.0  0.09195  0.13729  0.08468  1.0000
  H   H77       1.0  0.15743  0.99947  0.30446  1.0000
  H   H78       1.0  0.23215  0.13123  0.39293  1.0000
  H   H79       1.0  0.10900  0.00271  0.06343  1.0000
  N   N4        1.0  0.15452  0.17880  0.25047  1.0000
  C   C43       1.0  0.15906  0.16779  0.27161  1.0000
  C   C44       1.0  0.16557  0.19433  0.24293  1.0000
  C   C45       1.0  0.13876  0.18009  0.26247  1.0000
  C   C46       1.0  0.15467  0.17305  0.22475  1.0000
  H   H80       1.0  0.15089  0.15598  0.27794  1.0000
  H   H81       1.0  0.15927  0.17184  0.29120  1.0000
  H   H82       1.0  0.17083  0.16642  0.26295  1.0000
  H   H83       1.0  0.16268  0.20280  0.22646  1.0000
  H   H84       1.0  0.16540  0.19926  0.26166  1.0000
  H   H85       1.0  0.17763  0.19381  0.23434  1.0000
  H   H86       1.0  0.13511  0.18844  0.24695  1.0000
  H   H87       1.0  0.13815  0.18440  0.28193  1.0000
  H   H88       1.0  0.13004  0.16866  0.26807  1.0000
  H   H89       1.0  0.15090  0.18087  0.20871  1.0000
  H   H90       1.0  0.14672  0.16122  0.22966  1.0000
  H   H91       1.0  0.16644  0.17230  0.21454  1.0000
  N   N5        1.0  0.04338  0.20263  0.12301  1.0000
  C   C47       1.0  0.03782  0.21653  0.11350  1.0000
  C   C48       1.0  0.05646  0.20698  0.13566  1.0000
  C   C49       1.0  0.04848  0.19649  0.09841  1.0000
  H   H92       1.0  0.17513  0.02656  0.28720  1.0000
  S   S20       1.0  0.22146  0.23272  0.10182  1.0000
  H   H93       1.0  0.15929  0.03374  0.27810  1.0000
  H   H94       1.0  0.01045  0.12682  0.99045  1.0000
  C   C50       1.0  0.15552  0.01780  0.23891  1.0000
  S   S21       1.0  0.10222  0.11342  0.99144  1.0000
  H   H95       1.0  0.11659  0.21697  0.22064  1.0000
  C   C51       1.0  0.05146  0.23199  0.21340  1.0000
  H   H96       1.0  0.05422  0.23269  0.39563  1.0000
  H   H97       1.0  0.21644  0.18522  0.15474  1.0000
  C   C52       1.0  0.05842  0.24019  0.23088  1.0000
  N   N6        1.0  0.04433  0.23255  0.35984  1.0000
  C   C53       1.0  0.04556  0.22564  0.33530  1.0000
  H   H98       1.0  0.01427  0.23357  0.23618  1.0000
  H   H99       1.0  0.16368  0.02659  0.21989  1.0000
  C   C54       1.0  0.02654  0.23532  0.23455  1.0000
  S   S22       1.0  0.19300  0.99857  0.19139  1.0000
  C   C55       1.0  0.15201  0.00251  0.28664  1.0000
  H   H100      1.0  0.23304  0.99939  0.04237  1.0000
  C   C56       1.0  0.12525  0.23502  0.23990  1.0000
  Fe  Fe10      1.0  0.23242  0.13221  0.28631  1.0000
  Fe  Fe11      1.0  0.19963  0.99604  0.14678  1.0000
  S   S23       1.0  0.23028  0.07669  0.26939  1.0000
  H   H101      1.0  0.17244  0.99696  0.24585  1.0000
  H   H102      1.0  0.02688  0.23252  0.39600  1.0000
  H   H103      1.0  0.98509  0.21180  0.05876  1.0000
  C   C57       1.0  0.98520  0.17624  0.08368  1.0000
  H   H104      1.0  0.19966  0.20426  0.58946  1.0000
  C   C58       1.0  0.08961  0.05338  0.95568  1.0000
  H   H105      1.0  0.12373  0.03763  0.87827  1.0000
  S   S24       1.0  0.22240  0.14048  0.62479  1.0000
  H   H106      1.0  0.99780  0.18055  0.71044  1.0000
  N   N7        1.0  0.17897  0.20617  0.61658  1.0000
  H   H107      1.0  0.99846  0.18299  0.64760  1.0000
  C   C59       1.0  0.00244  0.17754  0.87559  1.0000
  H   H108      1.0  0.21309  0.06261  0.56063  1.0000
  S   S25       1.0  0.22251  0.20759  0.64413  1.0000
  H   H109      1.0  0.18912  0.19046  0.64087  1.0000
  S   S26       1.0  0.18194  0.22262  0.74426  1.0000
  H   H110      1.0  0.99332  0.17290  0.89602  1.0000
  Fe  Fe12      1.0  0.20839  0.21172  0.68388  1.0000
  S   S27       1.0  0.18441  0.19698  0.70676  1.0000
  H   H111      1.0  0.02328  0.15921  0.67617  1.0000
  Fe  Fe13      1.0  0.17781  0.21980  0.70238  1.0000
  C   C60       1.0  0.03090  0.23540  0.60274  1.0000
  Fe  Fe14      1.0  0.19069  0.20117  0.74650  1.0000
  S   S28       1.0  0.18688  0.18283  0.78766  1.0000
  S   S29       1.0  0.10646  0.15104  0.96732  1.0000
  S   S30       1.0  0.00847  0.12645  0.93241  1.0000
  Fe  Fe15      1.0  0.11873  0.14838  0.92533  1.0000
  H   H112      1.0  0.12046  0.03936  0.93347  1.0000
  S   S31       1.0  0.12575  0.16876  0.88625  1.0000
  H   H113      1.0  0.19978  0.05995  0.53889  1.0000
  Fe  Fe16      1.0  0.11481  0.11364  0.94764  1.0000
  H   H114      1.0  0.19289  0.08446  0.54435  1.0000
  C   C61       1.0  0.04892  0.12708  0.97523  1.0000
  S   S32       1.0  0.10039  0.12732  0.92629  1.0000
  H   H115      1.0  0.09860  0.03339  0.84632  1.0000
  S   S33       1.0  0.18669  0.00051  0.71987  1.0000
  H   H116      1.0  0.10553  0.02313  0.89101  1.0000
  C   C62       1.0  0.22864  0.17271  0.60693  1.0000
  H   H117      1.0  0.99163  0.16542  0.67599  1.0000
  C   C63       1.0  0.18784  0.20556  0.58866  1.0000
  H   H118      1.0  0.12532  0.24144  0.62720  1.0000
  S   S34       1.0  0.18327  0.02918  0.65335  1.0000
  S   S35       1.0  0.20148  0.23443  0.67748  1.0000
  H   H119      1.0  0.23356  0.08707  0.54834  1.0000
  H   H120      1.0  0.99628  0.17860  0.85836  1.0000
  S   S36       1.0  0.21548  0.21406  0.72399  1.0000
  H   H121      1.0  0.00877  0.18947  0.87518  1.0000
  H   H122      1.0  0.09082  0.07740  0.95625  1.0000
  C   C64       1.0  0.22854  0.05043  0.61222  1.0000
  N   N8        1.0  0.01296  0.16724  0.87243  1.0000
  H   H123      1.0  0.21973  0.06016  0.52576  1.0000
  H   H124      1.0  0.01677  0.19326  0.70360  1.0000
  C   C65       1.0  0.18719  0.21966  0.62471  1.0000
  C   C66       1.0  0.11771  0.02568  0.87812  1.0000
  H   H125      1.0  0.07715  0.04960  0.96396  1.0000
  H   H126      1.0  0.18113  0.21999  0.64624  1.0000
  S   S37       1.0  0.00122  0.21804  0.63072  1.0000
  C   C67       1.0  0.05108  0.12726  0.94651  1.0000
  C   C68       1.0  0.09733  0.06916  0.95136  1.0000
  N   N9        1.0  0.11836  0.02424  0.84885  1.0000
  H   H127      1.0  0.19921  0.21918  0.62519  1.0000
  H   H128      1.0  0.11079  0.00654  0.82810  1.0000
  H   H129      1.0  0.99832  0.15194  0.85526  1.0000
  H   H130      1.0  0.01926  0.17489  0.82686  1.0000
  C   C69       1.0  0.02476  0.17379  0.84499  1.0000
  H   H131      1.0  0.09760  0.00546  0.86109  1.0000
  H   H132      1.0  0.14135  0.03948  0.83152  1.0000
  H   H133      1.0  0.18781  0.21398  0.79970  1.0000
  S   S38       1.0  0.13385  0.13481  0.94422  1.0000
  H   H134      1.0  0.20298  0.23172  0.78491  1.0000
  H   H135      1.0  0.11114  0.03466  0.81255  1.0000
  H   H136      1.0  0.03326  0.18347  0.63726  1.0000
  H   H137      1.0  0.01212  0.16101  0.91694  1.0000
  C   C70       1.0  0.11094  0.03551  0.83462  1.0000
  C   C71       1.0  0.22107  0.04376  0.69106  1.0000
  H   H138      1.0  0.18197  0.19553  0.58174  1.0000
  H   H139      1.0  0.20790  0.10229  0.53555  1.0000
  H   H140      1.0  0.18927  0.21641  0.57196  1.0000
  C   C72       1.0  0.01869  0.16624  0.69009  1.0000
  Fe  Fe17      1.0  0.09738  0.00189  0.95360  1.0000
  N   N10       1.0  0.20064  0.22067  0.82879  1.0000
  H   H141      1.0  0.12337  0.01742  0.88933  1.0000
  C   C73       1.0  0.00797  0.18817  0.69325  1.0000
  S   S39       1.0  0.22995  0.11625  0.56894  1.0000
  S   S40       1.0  0.08749  0.02289  0.95451  1.0000
  C   C74       1.0  0.11338  0.07428  0.94006  1.0000
  H   H142      1.0  0.15640  0.20821  0.63586  1.0000
  C   C75       1.0  0.22151  0.18883  0.63864  1.0000
  C   C76       1.0  0.09785  0.04253  0.94918  1.0000
  C   C77       1.0  0.11395  0.04757  0.93843  1.0000
  C   C78       1.0  0.12164  0.06340  0.93366  1.0000
  H   H143      1.0  0.03280  0.16620  0.84193  1.0000
  H   H144      1.0  0.20612  0.08694  0.56632  1.0000
  H   H145      1.0  0.20988  0.03511  0.69395  1.0000
  H   H146      1.0  0.13568  0.02624  0.81082  1.0000
  Fe  Fe18      1.0  0.20639  0.23536  0.71978  1.0000
  H   H147      1.0  0.01653  0.22509  0.67446  1.0000
  C   C79       1.0  0.17009  0.17942  0.81525  1.0000
  C   C80       1.0  0.16849  0.16914  0.84163  1.0000
  C   C81       1.0  0.15512  0.16606  0.86393  1.0000
  C   C82       1.0  0.14324  0.17318  0.85984  1.0000
  C   C83       1.0  0.14499  0.18368  0.83365  1.0000
  C   C84       1.0  0.15836  0.18679  0.81140  1.0000
  H   H148      1.0  0.17762  0.16354  0.84482  1.0000
  H   H149      1.0  0.15396  0.15816  0.88422  1.0000
  H   H150      1.0  0.13584  0.18924  0.83038  1.0000
  H   H151      1.0  0.15944  0.19470  0.79116  1.0000
  C   C85       1.0  0.20849  0.23515  0.83474  1.0000
  S   S41       1.0  0.15498  0.22078  0.69127  1.0000
  H   H152      1.0  0.11512  0.99944  0.86112  1.0000
  C   C86       1.0  0.02384  0.12691  0.94948  1.0000
  S   S42       1.0  0.12354  0.09421  0.93211  1.0000
  Fe  Fe19      1.0  0.18217  0.00438  0.67644  1.0000
  H   H153      1.0  0.21876  0.01737  0.73080  1.0000
  H   H154      1.0  0.03184  0.18558  0.84374  1.0000
  C   C87       1.0  0.22908  0.06633  0.60829  1.0000
  C   C88       1.0  0.20519  0.08938  0.54393  1.0000
  H   H155      1.0  0.00859  0.15827  0.70707  1.0000
  H   H156      1.0  0.17047  0.19158  0.65930  1.0000
  C   C89       1.0  0.21457  0.03890  0.62586  1.0000
  C   C90       1.0  0.20097  0.04323  0.63531  1.0000
  C   C91       1.0  0.20141  0.05917  0.63039  1.0000
  C   C92       1.0  0.21542  0.07068  0.61714  1.0000
  C   C93       1.0  0.23191  0.08957  0.52649  1.0000
  H   H157      1.0  0.21431  0.02667  0.62905  1.0000
  H   H158      1.0  0.19091  0.06261  0.63754  1.0000
  H   H159      1.0  0.21570  0.08289  0.61439  1.0000
  C   C94       1.0  0.22192  0.15923  0.62922  1.0000
  C   C95       1.0  0.16335  0.20783  0.61495  1.0000
  C   C96       1.0  0.02069  0.16602  0.89593  1.0000
  H   H160      1.0  0.06232  0.12730  0.93421  1.0000
  C   C97       1.0  0.21440  0.17533  0.66069  1.0000
  C   C98       1.0  0.21459  0.16060  0.65594  1.0000
  H   H161      1.0  0.21733  0.20836  0.83955  1.0000
  H   H162      1.0  0.11692  0.04772  0.83343  1.0000
  H   H163      1.0  0.20902  0.17624  0.68155  1.0000
  H   H164      1.0  0.20925  0.15021  0.67322  1.0000
  N   N11       1.0  0.23347  0.03604  0.69566  1.0000
  H   H165      1.0  0.99463  0.14656  0.89322  1.0000
  C   C99       1.0  0.11008  0.00825  0.84980  1.0000
  C   C100      1.0  0.00394  0.15159  0.87316  1.0000
  H   H166      1.0  0.04033  0.12700  0.91167  1.0000
  H   H167      1.0  0.19279  0.20790  0.87285  1.0000
  C   C101      1.0  0.03858  0.12711  0.93377  1.0000
  C   C102      1.0  0.02789  0.18983  0.65172  1.0000
  H   H168      1.0  0.13407  0.06727  0.92498  1.0000
  C   C103      1.0  0.18816  0.21117  0.85403  1.0000
  C   C104      1.0  0.13472  0.02749  0.83286  1.0000
  H   H169      1.0  0.17192  0.18116  0.63228  1.0000
  C   C105      1.0  0.17755  0.19168  0.63817  1.0000
  H   H170      1.0  0.18795  0.23089  0.60960  1.0000
  H   H171      1.0  0.18203  0.20015  0.85015  1.0000
  H   H172      1.0  0.01133  0.14326  0.87210  1.0000
  C   C106      1.0  0.15315  0.23388  0.66116  1.0000
  H   H173      1.0  0.15678  0.19793  0.60862  1.0000
  H   H174      1.0  0.12841  0.22449  0.67078  1.0000
  H   H175      1.0  0.03692  0.19533  0.66125  1.0000
  C   C107      1.0  0.00217  0.17332  0.65999  1.0000
  C   C108      1.0  0.21198  0.21164  0.82173  1.0000
  H   H176      1.0  0.14067  0.01924  0.84323  1.0000
  H   H177      1.0  0.02469  0.19945  0.63822  1.0000
  H   H178      1.0  0.00406  0.19789  0.68179  1.0000
  H   H179      1.0  0.16396  0.21883  0.59931  1.0000
  N   N12       1.0  0.13302  0.12404  0.85050  1.0000
  C   C109      1.0  0.12767  0.13839  0.84401  1.0000
  C   C110      1.0  0.11948  0.11047  0.86380  1.0000
  C   C111      1.0  0.14301  0.12540  0.87029  1.0000
  C   C112      1.0  0.14195  0.12192  0.82393  1.0000
  H   H180      1.0  0.12142  0.14074  0.86370  1.0000
  H   H181      1.0  0.11965  0.13760  0.82994  1.0000
  H   H182      1.0  0.13757  0.14879  0.83310  1.0000
  H   H183      1.0  0.12309  0.09945  0.86938  1.0000
  H   H184      1.0  0.11258  0.11170  0.88399  1.0000
  H   H185      1.0  0.11160  0.10902  0.84961  1.0000
  H   H186      1.0  0.14668  0.11451  0.87679  1.0000
  H   H187      1.0  0.13679  0.12759  0.89011  1.0000
  H   H188      1.0  0.15365  0.13514  0.86067  1.0000
  H   H189      1.0  0.14626  0.11126  0.82812  1.0000
  H   H190      1.0  0.15224  0.13203  0.81343  1.0000
  H   H191      1.0  0.13478  0.12085  0.80847  1.0000
  N   N13       1.0  0.01420  0.17939  0.67374  1.0000
  H   H192      1.0  0.00644  0.16667  0.64501  1.0000
  H   H193      1.0  0.21401  0.23261  0.85259  1.0000
  H   H194      1.0  0.02763  0.17758  0.89616  1.0000
  H   H195      1.0  0.21904  0.05114  0.70598  1.0000
  S   S43       1.0  0.12218  0.00232  0.95166  1.0000
  H   H196      1.0  0.02780  0.17046  0.70061  1.0000
  C   C113      1.0  0.21191  0.06559  0.53840  1.0000
  C   C114      1.0  0.02004  0.22887  0.62923  1.0000
  C   C115      1.0  0.13845  0.23285  0.65587  1.0000
  H   H197      1.0  0.18535  0.23161  0.80881  1.0000
  C   C116      1.0  0.21418  0.08622  0.49694  1.0000
  N   N14       1.0  0.21578  0.08267  0.52642  1.0000
  H   H198      1.0  0.20223  0.08098  0.49591  1.0000
  C   C117      1.0  0.02467  0.23021  0.65393  1.0000
  H   H199      1.0  0.02855  0.15813  0.89444  1.0000
  H   H200      1.0  0.20641  0.20067  0.81696  1.0000
  H   H201      1.0  0.22150  0.21842  0.80266  1.0000
  C   C118      1.0  0.19390  0.22469  0.80450  1.0000
  H   H202      1.0  0.16446  0.99515  0.95134  1.0000
  Fe  Fe20      1.0  0.08921  0.12886  0.96995  1.0000
  H   H203      1.0  0.17928  0.21754  0.85979  1.0000
  H   H204      1.0  0.21678  0.09904  0.48761  1.0000
  H   H205      1.0  0.22409  0.05152  0.66921  1.0000
  C   C119      1.0  0.02173  0.12699  0.97809  1.0000
  H   H206      1.0  0.22376  0.01681  0.68006  1.0000
  C   C120      1.0  0.22842  0.18746  0.61165  1.0000
  H   H207      1.0  0.02747  0.23430  0.58352  1.0000
  H   H208      1.0  0.16505  0.00053  0.83486  1.0000
  H   H209      1.0  0.04361  0.23868  0.67133  1.0000
  H   H210      1.0  0.22232  0.08173  0.48285  1.0000
  H   H211      1.0  0.16700  0.99261  0.78963  1.0000
  H   H212      1.0  0.22785  0.03432  0.74055  1.0000
  C   C121      1.0  0.22957  0.02690  0.72559  1.0000
  C   C122      1.0  0.04003  0.23791  0.65211  1.0000
  H   H213      1.0  0.23396  0.17173  0.58611  1.0000
  S   S44       1.0  0.14083  0.99250  0.88613  1.0000
  H   H214      1.0  0.23425  0.23726  0.75336  1.0000
  H   H215      1.0  0.23379  0.19786  0.59441  1.0000
  C   C123      1.0  0.15535  0.99232  0.83228  1.0000
  C   C124      1.0  0.23496  0.02549  0.67684  1.0000
  Fe  Fe21      1.0  0.16341  0.39175  0.30909  1.0000
  S   S45       1.0  0.17203  0.40224  0.26201  1.0000
  S   S46       1.0  0.14638  0.36776  0.33009  1.0000
  Fe  Fe22      1.0  0.18260  0.42087  0.32263  1.0000
  S   S47       1.0  0.19230  0.43331  0.27646  1.0000
  S   S48       1.0  0.18989  0.42954  0.35926  1.0000
  Fe  Fe23      1.0  0.16813  0.42441  0.27211  1.0000
  S   S49       1.0  0.15584  0.44053  0.24983  1.0000
  Fe  Fe24      1.0  0.19529  0.41009  0.27075  1.0000
  S   S50       1.0  0.21743  0.40551  0.24864  1.0000
  S   S51       1.0  0.15804  0.41353  0.31897  1.0000
  S   S52       1.0  0.18700  0.39801  0.31724  1.0000
  H   H216      1.0  0.13432  0.48760  0.14411  1.0000
  Fe  Fe25      1.0  0.09922  0.42647  0.15359  1.0000
  S   S53       1.0  0.07646  0.43127  0.17150  1.0000
  S   S54       1.0  0.11273  0.41286  0.17808  1.0000
  Fe  Fe26      1.0  0.09923  0.44040  0.09244  1.0000
  S   S55       1.0  0.07662  0.44634  0.10493  1.0000
  S   S56       1.0  0.11283  0.44542  0.04697  1.0000
  Fe  Fe27      1.0  0.08608  0.45451  0.13920  1.0000
  S   S57       1.0  0.08396  0.47855  0.14283  1.0000
  Fe  Fe28      1.0  0.06888  0.42270  0.13578  1.0000
  S   S58       1.0  0.04520  0.40652  0.14297  1.0000
  S   S59       1.0  0.10952  0.45039  0.12404  1.0000
  S   S60       1.0  0.09079  0.41604  0.12052  1.0000
  Fe  Fe29      1.0  0.00831  0.36238  0.04652  1.0000
  H   H217      1.0  0.21904  0.43810  0.22546  1.0000
  S   S61       1.0  0.03024  0.38128  0.03922  1.0000
  H   H218      1.0  0.14811  0.31503  0.40069  1.0000
  H   H219      1.0  0.99854  0.25340  0.12928  1.0000
  H   H220      1.0  0.02640  0.24797  0.26693  1.0000
  S   S62       1.0  0.05748  0.25644  0.27348  1.0000
  Fe  Fe30      1.0  0.99708  0.32684  0.05937  1.0000
  S   S63       1.0  0.00762  0.30692  0.07287  1.0000
  C   C125      1.0  0.02962  0.48972  0.23850  1.0000
  S   S64       1.0  0.01175  0.34537  0.02064  1.0000
  Fe  Fe31      1.0  0.10647  0.29440  0.28304  1.0000
  S   S65       1.0  0.11727  0.27986  0.31132  1.0000
  S   S66       1.0  0.11846  0.32031  0.26362  1.0000
  S   S67       1.0  0.10471  0.27875  0.25330  1.0000
  S   S68       1.0  0.08216  0.28263  0.30950  1.0000
  C   C126      1.0  0.09183  0.26588  0.40992  1.0000
  H   H221      1.0  0.11843  0.36770  0.24672  1.0000
  H   H222      1.0  0.11153  0.36265  0.29900  1.0000
  C   C127      1.0  0.10697  0.27538  0.40215  1.0000
  Fe  Fe32      1.0  0.11461  0.26366  0.28282  1.0000
  H   H223      1.0  0.11350  0.27880  0.38015  1.0000
  H   H224      1.0  0.13908  0.46213  0.99999  1.0000
  Fe  Fe33      1.0  0.98950  0.34769  0.01020  1.0000
  C   C128      1.0  0.22205  0.25661  0.12890  1.0000
  H   H225      1.0  0.07193  0.25402  0.44513  1.0000
  H   H226      1.0  0.13203  0.38574  0.24372  1.0000
  C   C129      1.0  0.12128  0.46542  0.03223  1.0000
  C   C130      1.0  0.14098  0.48658  0.99681  1.0000
  H   H227      1.0  0.12513  0.38063  0.29626  1.0000
  C   C131      1.0  0.11491  0.47630  0.04333  1.0000
  C   C132      1.0  0.08055  0.48344  0.17555  1.0000
  H   H228      1.0  0.04807  0.35909  0.06413  1.0000
  H   H229      1.0  0.10475  0.47239  0.06112  1.0000
  C   C133      1.0  0.03399  0.38867  0.06791  1.0000
  C   C134      1.0  0.02260  0.38520  0.09340  1.0000
  C   C135      1.0  0.02614  0.39079  0.11628  1.0000
  C   C136      1.0  0.04101  0.39997  0.11372  1.0000
  C   C137      1.0  0.05235  0.40355  0.08811  1.0000
  C   C138      1.0  0.04883  0.39791  0.06528  1.0000
  H   H230      1.0  0.01108  0.37822  0.09551  1.0000
  H   H231      1.0  0.01731  0.38807  0.13601  1.0000
  H   H232      1.0  0.06383  0.41062  0.08596  1.0000
  H   H233      1.0  0.05768  0.40064  0.04560  1.0000
  H   H234      1.0  0.08994  0.38083  0.25112  1.0000
  H   H235      1.0  0.04857  0.25544  0.36728  1.0000
  H   H236      1.0  0.11631  0.47986  0.13666  1.0000
  C   C139      1.0  0.07955  0.47285  0.20106  1.0000
  H   H237      1.0  0.10861  0.40547  0.24769  1.0000
  H   H238      1.0  0.14071  0.33744  0.45454  1.0000
  H   H239      1.0  0.08093  0.46129  0.20101  1.0000
  C   C140      1.0  0.22100  0.47702  0.35753  1.0000
  C   C141      1.0  0.21605  0.47487  0.33326  1.0000
  C   C142      1.0  0.20644  0.46049  0.33341  1.0000
  C   C143      1.0  0.20162  0.44808  0.35796  1.0000
  C   C144      1.0  0.20640  0.45033  0.38231  1.0000
  C   C145      1.0  0.21603  0.46469  0.38214  1.0000
  H   H240      1.0  0.02366  0.47897  0.25591  1.0000
  H   H241      1.0  0.20275  0.45900  0.31458  1.0000
  H   H242      1.0  0.20273  0.44083  0.40142  1.0000
  N   N15       1.0  0.02724  0.48775  0.21081  1.0000
  H   H243      1.0  0.04391  0.33927  0.06101  1.0000
  C   C146      1.0  0.14519  0.43401  0.22678  1.0000
  C   C147      1.0  0.14747  0.42130  0.21627  1.0000
  C   C148      1.0  0.13807  0.41559  0.19964  1.0000
  C   C149      1.0  0.12625  0.42243  0.19363  1.0000
  C   C150      1.0  0.12436  0.43556  0.20308  1.0000
  C   C151      1.0  0.13386  0.44136  0.21958  1.0000
  H   H244      1.0  0.15641  0.41582  0.22107  1.0000
  H   H245      1.0  0.13980  0.40565  0.19181  1.0000
  H   H246      1.0  0.11520  0.44085  0.19866  1.0000
  H   H247      1.0  0.13211  0.45126  0.22755  1.0000
  C   C152      1.0  0.13956  0.35434  0.31115  1.0000
  C   C153      1.0  0.14362  0.35800  0.28143  1.0000
  C   C154      1.0  0.13719  0.34739  0.26722  1.0000
  C   C155      1.0  0.12684  0.33292  0.28249  1.0000
  C   C156      1.0  0.12300  0.32914  0.31220  1.0000
  C   C157      1.0  0.12920  0.33987  0.32639  1.0000
  H   H248      1.0  0.15155  0.36909  0.26939  1.0000
  H   H249      1.0  0.14021  0.35046  0.24423  1.0000
  H   H250      1.0  0.11494  0.31810  0.32422  1.0000
  H   H251      1.0  0.12574  0.33703  0.34930  1.0000
  H   H252      1.0  0.08476  0.37707  0.28919  1.0000
  H   H253      1.0  0.15289  0.34948  0.40308  1.0000
  S   S69       1.0  0.13697  0.25737  0.26578  1.0000
  C   C158      1.0  0.10549  0.27611  0.45173  1.0000
  C   C159      1.0  0.07673  0.47724  0.22675  1.0000
  H   H254      1.0  0.03131  0.31742  0.10363  1.0000
  H   H255      1.0  0.03183  0.34846  0.14247  1.0000
  H   H256      1.0  0.15594  0.32358  0.42597  1.0000
  S   S70       1.0  0.09121  0.24915  0.31042  1.0000
  H   H257      1.0  0.06094  0.25383  0.33589  1.0000
  C   C160      1.0  0.09038  0.26650  0.45958  1.0000
  H   H258      1.0  0.22924  0.27545  0.06088  1.0000
  H   H259      1.0  0.02851  0.46387  0.21965  1.0000
  H   H260      1.0  0.01486  0.27917  0.09918  1.0000
  H   H261      1.0  0.09103  0.36276  0.27274  1.0000
  C   C161      1.0  0.11375  0.28034  0.42292  1.0000
  C   C162      1.0  0.99314  0.26232  0.12129  1.0000
  H   H262      1.0  0.23113  0.29674  0.00242  1.0000
  H   H263      1.0  0.12443  0.32064  0.46574  1.0000
  H   H264      1.0  0.21903  0.43506  0.31407  1.0000
  H   H265      1.0  0.13053  0.48177  0.08720  1.0000
  H   H266      1.0  0.21977  0.48435  0.31412  1.0000
  C   C163      1.0  0.12018  0.32069  0.41387  1.0000
  C   C164      1.0  0.03349  0.24350  0.25207  1.0000
  H   H267      1.0  0.04142  0.25406  0.33625  1.0000
  H   H268      1.0  0.02856  0.34832  0.06935  1.0000
  C   C165      1.0  0.13842  0.24460  0.24349  1.0000
  H   H269      1.0  0.07148  0.44517  0.98468  1.0000
  S   S71       1.0  0.99524  0.34373  0.08623  1.0000
  C   C166      1.0  0.13415  0.47055  0.00863  1.0000
  C   C167      1.0  0.14500  0.31804  0.42130  1.0000
  H   H270      1.0  0.09440  0.46089  0.01203  1.0000
  H   H271      1.0  0.07593  0.46900  0.24647  1.0000
  C   C168      1.0  0.04892  0.24972  0.34948  1.0000
  H   H272      1.0  0.12220  0.33932  0.44902  1.0000
  Fe  Fe34      1.0  0.08128  0.26530  0.28247  1.0000
  C   C169      1.0  0.09300  0.37551  0.27086  1.0000
  N   N16       1.0  0.13443  0.32839  0.42058  1.0000
  H   H273      1.0  0.01584  0.32628  0.11228  1.0000
  H   H274      1.0  0.03266  0.47349  0.18252  1.0000
  H   H275      1.0  0.20981  0.25147  0.13855  1.0000
  C   C170      1.0  0.14224  0.34316  0.39852  1.0000
  H   H276      1.0  0.05345  0.33618  0.13103  1.0000
  H   H277      1.0  0.13961  0.30690  0.43806  1.0000
  H   H278      1.0  0.04669  0.47790  0.20219  1.0000
  H   H279      1.0  0.21974  0.46614  0.40098  1.0000
  C   C171      1.0  0.23060  0.43645  0.22067  1.0000
  Fe  Fe35      1.0  0.09300  0.26697  0.33616  1.0000
  H   H280      1.0  0.11348  0.31006  0.43106  1.0000
  H   H281      1.0  0.05859  0.33237  0.09678  1.0000
  H   H282      1.0  0.22308  0.27604  0.14792  1.0000
  H   H283      1.0  0.02143  0.35352  0.11643  1.0000
  C   C172      1.0  0.11966  0.38032  0.24528  1.0000
  H   H284      1.0  0.06256  0.35210  0.09997  1.0000
  C   C173      1.0  0.23296  0.42166  0.22956  1.0000
  H   H285      1.0  0.04104  0.36431  0.11140  1.0000
  H   H286      1.0  0.11706  0.38557  0.22502  1.0000
  H   H287      1.0  0.08334  0.43589  0.00367  1.0000
  H   H288      1.0  0.00423  0.47266  0.22938  1.0000
  C   C174      1.0  0.11136  0.39959  0.26733  1.0000
  H   H289      1.0  0.13455  0.35120  0.39675  1.0000
  C   C175      1.0  0.13027  0.33164  0.44867  1.0000
  C   C176      1.0  0.11293  0.37540  0.29636  1.0000
  H   H290      1.0  0.00819  0.48189  0.19216  1.0000
  C   C177      1.0  0.22957  0.27055  0.13408  1.0000
  C   C178      1.0  0.99555  0.28877  0.09416  1.0000
  H   H291      1.0  0.16341  0.25112  0.23239  1.0000
  C   C179      1.0  0.00237  0.27695  0.10432  1.0000
  H   H292      1.0  0.14847  0.48974  0.09468  1.0000
  H   H293      1.0  0.10374  0.40184  0.28565  1.0000
  H   H294      1.0  0.12286  0.31702  0.39382  1.0000
  H   H295      1.0  0.14578  0.34105  0.37717  1.0000
  N   N17       1.0  0.10924  0.38270  0.26998  1.0000
  H   H296      1.0  0.12353  0.40544  0.26636  1.0000
  C   C180      1.0  0.08294  0.44240  0.98230  1.0000
  S   S72       1.0  0.08278  0.25930  0.38438  1.0000
  H   H297      1.0  0.02634  0.32110  0.13807  1.0000
  C   C181      1.0  0.23036  0.24959  0.11079  1.0000
  H   H298      1.0  0.11235  0.32853  0.41149  1.0000
  H   H299      1.0  0.10532  0.37694  0.31549  1.0000
  H   H300      1.0  0.22326  0.26957  0.03155  1.0000
  C   C182      1.0  0.08363  0.26140  0.43879  1.0000
  H   H301      1.0  0.12553  0.28749  0.41655  1.0000
  N   N18       1.0  0.15749  0.30510  0.23070  1.0000
  C   C183      1.0  0.16987  0.29772  0.22086  1.0000
  C   C184      1.0  0.15303  0.30094  0.26210  1.0000
  C   C185      1.0  0.14392  0.29945  0.22014  1.0000
  C   C186      1.0  0.16307  0.32224  0.21980  1.0000
  H   H302      1.0  0.18029  0.30162  0.22851  1.0000
  H   H303      1.0  0.17352  0.30054  0.19726  1.0000
  H   H304      1.0  0.16584  0.28475  0.22887  1.0000
  H   H305      1.0  0.14881  0.28809  0.27110  1.0000
  H   H306      1.0  0.16296  0.30511  0.27080  1.0000
  H   H307      1.0  0.14359  0.30617  0.27030  1.0000
  H   H308      1.0  0.13937  0.28656  0.22800  1.0000
  H   H309      1.0  0.14686  0.30238  0.19654  1.0000
  H   H310      1.0  0.13431  0.30471  0.22724  1.0000
  H   H311      1.0  0.17327  0.32695  0.22741  1.0000
  H   H312      1.0  0.15385  0.32801  0.22704  1.0000
  H   H313      1.0  0.16650  0.32585  0.19616  1.0000
  N   N19       1.0  0.03861  0.34151  0.10393  1.0000
  C   C187      1.0  0.03991  0.34728  0.07327  1.0000
  C   C188      1.0  0.03299  0.35240  0.11926  1.0000
  C   C189      1.0  0.05399  0.34048  0.10812  1.0000
  C   C190      1.0  0.02759  0.32591  0.11503  1.0000
  S   S73       1.0  0.11441  0.28401  0.47630  1.0000
  C   C191      1.0  0.12471  0.49086  0.13562  1.0000
  C   C192      1.0  0.03405  0.47520  0.20347  1.0000
  C   C193      1.0  0.04949  0.24606  0.25040  1.0000
  C   C194      1.0  0.01046  0.48362  0.21260  1.0000
  S   S74       1.0  0.98695  0.36611  0.03348  1.0000
  H   H314      1.0  0.00406  0.49164  0.29155  1.0000
  C   C195      1.0  0.22819  0.43890  0.29367  1.0000
  H   H315      1.0  0.22699  0.42906  0.28344  1.0000
  H   H316      1.0  0.22559  0.44879  0.27972  1.0000
  H   H317      1.0  0.11168  0.44615  0.98950  1.0000
  C   C196      1.0  0.23334  0.27222  0.04077  1.0000
  C   C197      1.0  0.09461  0.46704  0.99005  1.0000
  C   C198      1.0  0.15317  0.24377  0.22965  1.0000
  H   H318      1.0  0.08382  0.47106  0.99138  1.0000
  H   H319      1.0  0.09211  0.49036  0.34760  1.0000
  H   H320      1.0  0.10463  0.47756  0.98293  1.0000
  H   H321      1.0  0.98517  0.46769  0.29110  1.0000
  H   H322      1.0  0.07070  0.24198  0.22919  1.0000
  Fe  Fe36      1.0  0.17935  0.37843  0.62827  1.0000
  S   S75       1.0  0.16268  0.39324  0.63448  1.0000
  S   S76       1.0  0.17682  0.35819  0.60749  1.0000
  Fe  Fe37      1.0  0.20378  0.39934  0.64911  1.0000
  S   S77       1.0  0.18913  0.41603  0.65555  1.0000
  C   C199      1.0  0.98842  0.31775  0.91347  1.0000
  Fe  Fe38      1.0  0.16954  0.39442  0.67504  1.0000
  S   S78       1.0  0.15364  0.39079  0.71838  1.0000
  Fe  Fe39      1.0  0.18377  0.41339  0.61428  1.0000
  S   S79       1.0  0.18165  0.43197  0.57843  1.0000
  S   S80       1.0  0.18446  0.37772  0.67081  1.0000
  S   S81       1.0  0.20016  0.39859  0.60598  1.0000
  H   H323      1.0  0.15303  0.29649  0.68167  1.0000
  Fe  Fe40      1.0  0.10047  0.44101  0.77489  1.0000
  S   S82       1.0  0.09820  0.42534  0.81765  1.0000
  S   S83       1.0  0.11623  0.44141  0.73313  1.0000
  Fe  Fe41      1.0  0.07529  0.45575  0.79781  1.0000
  S   S84       1.0  0.07099  0.44108  0.84245  1.0000
  H   H324      1.0  0.03490  0.27530  0.70834  1.0000
  Fe  Fe42      1.0  0.09699  0.44661  0.83402  1.0000
  S   S85       1.0  0.10832  0.45152  0.86941  1.0000
  Fe  Fe43      1.0  0.07250  0.42129  0.82228  1.0000
  S   S86       1.0  0.05672  0.39678  0.84200  1.0000
  S   S87       1.0  0.10117  0.46264  0.79063  1.0000
  S   S88       1.0  0.07485  0.43553  0.77832  1.0000
  C   C200      1.0  0.98559  0.31311  0.94314  1.0000
  S   S89       1.0  0.00550  0.31874  0.81065  1.0000
  H   H325      1.0  0.16850  0.39416  0.76543  1.0000
  H   H326      1.0  0.20684  0.41792  0.76706  1.0000
  H   H327      1.0  0.00862  0.48196  0.73089  1.0000
  C   C201      1.0  0.20725  0.40862  0.75566  1.0000
  H   H328      1.0  0.14632  0.26894  0.65672  1.0000
  S   S90       1.0  0.01240  0.36400  0.77568  1.0000
  C   C202      1.0  0.17673  0.39487  0.50775  1.0000
  Fe  Fe44      1.0  0.09091  0.26677  0.58732  1.0000
  Fe  Fe45      1.0  0.11343  0.29938  0.56808  1.0000
  S   S91       1.0  0.13016  0.29222  0.53722  1.0000
  S   S92       1.0  0.11655  0.32315  0.57767  1.0000
  Fe  Fe46      1.0  0.10949  0.27955  0.52501  1.0000
  H   H329      1.0  0.16508  0.40363  0.55478  1.0000
  Fe  Fe47      1.0  0.12600  0.27041  0.57191  1.0000
  S   S93       1.0  0.09280  0.28853  0.55370  1.0000
  S   S94       1.0  0.11045  0.27841  0.60341  1.0000
  C   C203      1.0  0.02373  0.38369  0.95691  1.0000
  S   S95       1.0  0.21702  0.25807  0.72913  1.0000
  C   C204      1.0  0.17086  0.39393  0.55763  1.0000
  C   C205      1.0  0.17951  0.39761  0.77176  1.0000
  H   H330      1.0  0.19995  0.41184  0.54437  1.0000
  H   H331      1.0  0.00965  0.29067  0.66565  1.0000
  H   H332      1.0  0.99637  0.27593  0.69518  1.0000
  H   H333      1.0  0.18276  0.37125  0.54309  1.0000
  C   C206      1.0  0.19428  0.39212  0.73074  1.0000
  H   H334      1.0  0.99539  0.35695  0.90441  1.0000
  C   C207      1.0  0.12845  0.47196  0.88748  1.0000
  H   H335      1.0  0.09600  0.45749  0.92708  1.0000
  S   S96       1.0  0.06110  0.47321  0.79025  1.0000
  Fe  Fe48      1.0  0.99674  0.33949  0.79512  1.0000
  H   H336      1.0  0.16298  0.28702  0.61164  1.0000
  H   H337      1.0  0.01146  0.38075  0.91335  1.0000
  C   C208      1.0  0.12186  0.46951  0.86502  1.0000
  C   C209      1.0  0.01310  0.25481  0.69609  1.0000
  H   H338      1.0  0.04115  0.27017  0.66070  1.0000
  H   H339      1.0  0.01578  0.46524  0.65617  1.0000
  H   H340      1.0  0.02674  0.26837  0.64105  1.0000
  H   H341      1.0  0.08388  0.46822  0.94314  1.0000
  H   H342      1.0  0.12557  0.46270  0.90667  1.0000
  H   H343      1.0  0.18930  0.42714  0.73931  1.0000
  C   C210      1.0  0.04394  0.38795  0.82397  1.0000
  C   C211      1.0  0.04124  0.39650  0.79947  1.0000
  C   C212      1.0  0.03147  0.38904  0.78502  1.0000
  C   C213      1.0  0.02408  0.37303  0.79517  1.0000
  C   C214      1.0  0.02653  0.36453  0.82002  1.0000
  C   C215      1.0  0.03647  0.37196  0.83427  1.0000
  H   H344      1.0  0.04660  0.40887  0.79174  1.0000
  H   H345      1.0  0.02951  0.39572  0.76598  1.0000
  H   H346      1.0  0.02093  0.35219  0.82803  1.0000
  H   H347      1.0  0.03847  0.36522  0.85319  1.0000
  H   H348      1.0  0.05458  0.38990  0.93590  1.0000
  C   C216      1.0  0.14965  0.25289  0.61138  1.0000
  H   H349      1.0  0.15125  0.49048  0.97933  1.0000
  C   C217      1.0  0.99976  0.45720  0.71044  1.0000
  H   H350      1.0  0.16553  0.31019  0.64980  1.0000
  C   C218      1.0  0.06635  0.47473  0.73303  1.0000
  C   C219      1.0  0.21254  0.46203  0.50876  1.0000
  C   C220      1.0  0.19871  0.45323  0.52884  1.0000
  C   C221      1.0  0.19911  0.44310  0.55400  1.0000
  C   C222      1.0  0.21336  0.44172  0.55898  1.0000
  C   C223      1.0  0.02115  0.47162  0.67005  1.0000
  H   H351      1.0  0.17075  0.40429  0.50321  1.0000
  H   H352      1.0  0.18767  0.45417  0.52482  1.0000
  H   H353      1.0  0.21377  0.43395  0.57834  1.0000
  C   C224      1.0  0.16603  0.24479  0.64185  1.0000
  C   C225      1.0  0.19045  0.41788  0.72807  1.0000
  H   H354      1.0  0.21721  0.48029  0.54990  1.0000
  H   H355      1.0  0.01232  0.38656  0.95917  1.0000
  C   C226      1.0  0.14393  0.40535  0.72267  1.0000
  C   C227      1.0  0.13517  0.40472  0.74972  1.0000
  C   C228      1.0  0.12707  0.41607  0.75350  1.0000
  C   C229      1.0  0.12756  0.42798  0.73014  1.0000
  C   C230      1.0  0.13650  0.42868  0.70319  1.0000
  C   C231      1.0  0.14472  0.41744  0.69946  1.0000
  H   H356      1.0  0.13459  0.39542  0.76777  1.0000
  H   H357      1.0  0.12037  0.41552  0.77441  1.0000
  H   H358      1.0  0.13689  0.43784  0.68504  1.0000
  H   H359      1.0  0.15145  0.41801  0.67852  1.0000
  C   C232      1.0  0.16001  0.34910  0.59857  1.0000
  C   C233      1.0  0.16099  0.33792  0.58300  1.0000
  C   C234      1.0  0.14779  0.32986  0.57645  1.0000
  C   C235      1.0  0.13349  0.33309  0.58515  1.0000
  C   C236      1.0  0.13261  0.34462  0.59999  1.0000
  C   C237      1.0  0.14578  0.35254  0.60685  1.0000
  H   H360      1.0  0.17202  0.33538  0.57615  1.0000
  H   H361      1.0  0.14866  0.32121  0.56458  1.0000
  H   H362      1.0  0.12161  0.34727  0.60662  1.0000
  H   H363      1.0  0.14486  0.36114  0.61881  1.0000
  C   C238      1.0  0.22718  0.45054  0.53895  1.0000
  H   H364      1.0  0.20451  0.41259  0.50722  1.0000
  H   H365      1.0  0.02810  0.48332  0.65645  1.0000
  H   H366      1.0  0.12960  0.30187  0.66607  1.0000
  H   H367      1.0  0.22265  0.43019  0.66633  1.0000
  H   H368      1.0  0.13170  0.27508  0.67829  1.0000
  H   H369      1.0  0.20932  0.39853  0.77002  1.0000
  H   H370      1.0  0.17734  0.24601  0.64602  1.0000
  N   N20       1.0  0.19288  0.40406  0.74658  1.0000
  H   H371      1.0  0.99039  0.48375  0.70013  1.0000
  H   H372      1.0  0.13019  0.27286  0.64381  1.0000
  N   N21       1.0  0.14724  0.29329  0.64311  1.0000
  C   C239      1.0  0.13646  0.30344  0.64402  1.0000
  C   C240      1.0  0.15874  0.29779  0.65901  1.0000
  C   C241      1.0  0.15535  0.29510  0.61327  1.0000
  C   C242      1.0  0.13846  0.27684  0.65610  1.0000
  H   H373      1.0  0.14279  0.31599  0.63567  1.0000
  N   N22       1.0  0.00934  0.47292  0.69399  1.0000
  H   H374      1.0  0.19630  0.38320  0.55619  1.0000
  Fe  Fe49      1.0  0.98851  0.30581  0.79088  1.0000
  H   H375      1.0  0.00422  0.25230  0.71650  1.0000
  H   H376      1.0  0.21218  0.46973  0.48934  1.0000
  S   S97       1.0  0.14820  0.26464  0.57948  1.0000
  H   H377      1.0  0.06975  0.47584  0.68843  1.0000
  H   H378      1.0  0.21776  0.24273  0.81589  1.0000
  H   H379      1.0  0.17810  0.40630  0.78426  1.0000
  H   H380      1.0  0.22951  0.28363  0.75036  1.0000
  H   H381      1.0  0.10456  0.47579  0.93303  1.0000
  H   H382      1.0  0.12812  0.30099  0.63094  1.0000
  H   H383      1.0  0.20393  0.39672  0.71110  1.0000
  C   C243      1.0  0.12613  0.48140  0.83984  1.0000
  C   C244      1.0  0.16431  0.25404  0.61683  1.0000
  C   C245      1.0  0.04725  0.38323  0.92484  1.0000
  S   S98       1.0  0.07004  0.25390  0.62500  1.0000
  H   H384      1.0  0.17548  0.39409  0.57656  1.0000
  H   H385      1.0  0.18351  0.38810  0.72420  1.0000
  H   H386      1.0  0.00067  0.27211  0.66088  1.0000
  N   N23       1.0  0.08217  0.39670  0.74415  1.0000
  C   C246      1.0  0.07511  0.40874  0.73121  1.0000
  C   C247      1.0  0.07106  0.38119  0.75201  1.0000
  C   C248      1.0  0.08618  0.40017  0.76989  1.0000
  C   C249      1.0  0.09638  0.39680  0.72351  1.0000
  H   H387      1.0  0.07203  0.40660  0.71159  1.0000
  H   H388      1.0  0.08318  0.42062  0.72541  1.0000
  H   H389      1.0  0.06434  0.40897  0.74612  1.0000
  H   H390      1.0  0.07612  0.37185  0.76154  1.0000
  H   H391      1.0  0.06033  0.38065  0.76795  1.0000
  H   H392      1.0  0.06747  0.37828  0.73325  1.0000
  H   H393      1.0  0.09192  0.39161  0.77993  1.0000
  H   H394      1.0  0.07572  0.39992  0.78610  1.0000
  H   H395      1.0  0.09418  0.41196  0.76484  1.0000
  H   H396      1.0  0.10259  0.38854  0.73298  1.0000
  H   H397      1.0  0.10463  0.40859  0.71617  1.0000
  H   H398      1.0  0.09373  0.39358  0.70432  1.0000
  H   H399      1.0  0.11206  0.44468  0.95396  1.0000
  H   H400      1.0  0.05395  0.38578  0.90230  1.0000
  S   S99       1.0  0.10649  0.25701  0.55796  1.0000
  C   C250      1.0  0.03107  0.27450  0.65626  1.0000
  C   C251      1.0  0.09502  0.46490  0.94231  1.0000
  H   H401      1.0  0.03036  0.39018  0.96923  1.0000
  H   H402      1.0  0.17439  0.26221  0.60166  1.0000
  C   C252      1.0  0.19111  0.38291  0.53779  1.0000
  H   H403      1.0  0.02096  0.36550  0.92071  1.0000
  C   C253      1.0  0.00582  0.27789  0.67572  1.0000
  N   N24       1.0  0.09582  0.45671  0.97075  1.0000
  C   C254      1.0  0.02515  0.27971  0.70245  1.0000
  H   H404      1.0  0.12123  0.47969  0.82232  1.0000
  H   H405      1.0  0.17971  0.41482  0.72078  1.0000
  C   C255      1.0  0.23051  0.26014  0.75001  1.0000
  H   H406      1.0  0.18587  0.39620  0.48818  1.0000
  H   H407      1.0  0.99080  0.45779  0.72876  1.0000
  H   H408      1.0  0.20499  0.48051  0.83648  1.0000
  C   C256      1.0  0.11073  0.45244  0.96843  1.0000
  H   H409      1.0  0.17861  0.47600  0.86797  1.0000
  H   H410      1.0  0.99142  0.25546  0.77112  1.0000
  H   H411      1.0  0.20059  0.38372  0.51912  1.0000
  H   H412      1.0  0.07187  0.46534  0.73729  1.0000
  H   H413      1.0  0.04211  0.41143  0.92421  1.0000
  H   H414      1.0  0.02891  0.38100  0.88868  1.0000
  H   H415      1.0  0.00763  0.24856  0.68213  1.0000
  H   H416      1.0  0.19407  0.48751  0.57255  1.0000
  S   S100      1.0  0.98581  0.30360  0.89431  1.0000
  H   H417      1.0  0.02955  0.29253  0.69300  1.0000
  H   H418      1.0  0.04161  0.40730  0.89060  1.0000
  C   C257      1.0  0.99241  0.33360  0.89957  1.0000
  H   H419      1.0  0.16714  0.29044  0.65855  1.0000
  C   C258      1.0  0.19481  0.41084  0.52614  1.0000
  H   H420      1.0  0.16273  0.30714  0.60318  1.0000
  H   H421      1.0  0.02266  0.24965  0.70073  1.0000
  H   H422      1.0  0.16188  0.38269  0.56279  1.0000
  H   H423      1.0  0.00698  0.44982  0.71906  1.0000
  H   H424      1.0  0.02951  0.46546  0.67769  1.0000
  C   C259      1.0  0.02302  0.37827  0.91167  1.0000
  H   H425      1.0  0.20027  0.42302  0.70878  1.0000
  H   H426      1.0  0.21759  0.41317  0.73713  1.0000
  N   N25       1.0  0.18339  0.39564  0.53230  1.0000
  N   N26       1.0  0.01880  0.27174  0.68262  1.0000
  N   N27       1.0  0.03229  0.38736  0.92673  1.0000
  C   C260      1.0  0.03514  0.40419  0.91342  1.0000
  H   H427      1.0  0.18082  0.38705  0.78607  1.0000
  C   C261      1.0  0.13667  0.24241  0.63119  1.0000
  H   H428      1.0  0.20188  0.47921  0.88775  1.0000
  H   H429      1.0  0.14701  0.29252  0.60025  1.0000
  S   S101      1.0  0.22682  0.39991  0.66035  1.0000
  C   C262      1.0  0.22681  0.46078  0.51391  1.0000
  H   H430      1.0  0.02407  0.40766  0.91425  1.0000
  H   H431      1.0  0.18934  0.42071  0.52209  1.0000
  H   H432      1.0  0.12074  0.46296  0.96010  1.0000
  C   C263      1.0  0.06034  0.48087  0.75511  1.0000
  H   H433      1.0  0.19656  0.38168  0.74370  1.0000
  H   H434      1.0  0.02483  0.47393  0.72142  1.0000
  S   S102      1.0  0.99581  0.28786  0.76887  1.0000
  H   H435      1.0  0.16808  0.38351  0.51177  1.0000
  H   H436      1.0  0.03553  0.28714  0.64521  1.0000
  C   C264      1.0  0.06516  0.48072  0.70538  1.0000
  H   H437      1.0  0.04549  0.37058  0.93461  1.0000
  H   H438      1.0  0.02126  0.37104  0.96735  1.0000
  H   H439      1.0  0.01615  0.27794  0.72253  1.0000
  S   S103      1.0  0.98915  0.35434  0.96409  1.0000
  C   C265      1.0  0.04625  0.24329  0.60090  1.0000
  C   C266      1.0  0.23462  0.27425  0.75749  1.0000
  C   C267      1.0  0.01711  0.48061  0.71266  1.0000
  H   H440      1.0  0.08344  0.43438  0.96816  1.0000
  C   C268      1.0  0.99939  0.48232  0.68278  1.0000
  C   C269      1.0  0.99284  0.34474  0.91533  1.0000
  H   H441      1.0  0.99500  0.33731  0.87668  1.0000
  H   H442      1.0  0.19718  0.48528  0.52351  1.0000
  C   C270      1.0  0.13884  0.48629  0.88515  1.0000
  H   H443      1.0  0.99364  0.45108  0.69705  1.0000
  H   H444      1.0  0.99332  0.47696  0.66849  1.0000
  C   C271      1.0  0.98970  0.34012  0.94503  1.0000
  H   H445      1.0  0.05451  0.24827  0.58039  1.0000
  C   C272      1.0  0.98632  0.32430  0.95894  1.0000
  H   H446      1.0  0.14372  0.48807  0.90266  1.0000
  H   H447      1.0  0.08383  0.26315  0.48157  1.0000
  C   C273      1.0  0.05089  0.24450  0.62563  1.0000
  C   C274      1.0  0.18050  0.48888  0.86305  1.0000
  C   C275      1.0  0.23137  0.42746  0.67697  1.0000
  Fe  Fe50      1.0  0.98543  0.31302  0.84884  1.0000
  H   H448      1.0  0.20022  0.24217  0.84041  1.0000
  H   H449      1.0  0.17337  0.49165  0.88138  1.0000
  C   C276      1.0  0.13752  0.71133  0.19236  1.0000
  H   H450      1.0  0.10998  0.50475  0.34217  1.0000
  S   S104      1.0  0.21440  0.53086  0.45697  1.0000
  C   C277      1.0  0.13480  0.49745  0.00836  1.0000
  H   H451      1.0  0.14952  0.69203  0.07853  1.0000
  H   H452      1.0  0.18723  0.63333  0.01159  1.0000
  Fe  Fe51      1.0  0.03257  0.52977  0.26855  1.0000
  S   S105      1.0  0.05001  0.52982  0.22957  1.0000
  S   S106      1.0  0.00716  0.52476  0.26676  1.0000
  Fe  Fe52      1.0  0.05873  0.54105  0.29747  1.0000
  S   S107      1.0  0.07752  0.54163  0.26016  1.0000
  S   S108      1.0  0.06518  0.54522  0.33801  1.0000
  Fe  Fe53      1.0  0.06329  0.55259  0.23397  1.0000
  S   S109      1.0  0.07393  0.57256  0.19477  1.0000
  Fe  Fe54      1.0  0.06228  0.51889  0.25979  1.0000
  H   H453      1.0  0.15739  0.63518  0.99421  1.0000
  S   S110      1.0  0.04523  0.55348  0.27118  1.0000
  S   S111      1.0  0.04406  0.51737  0.29881  1.0000
  Fe  Fe55      1.0  0.15653  0.61831  0.41102  1.0000
  S   S112      1.0  0.16243  0.59946  0.44055  1.0000
  S   S113      1.0  0.16721  0.64470  0.40290  1.0000
  Fe  Fe56      1.0  0.13597  0.59391  0.38817  1.0000
  S   S114      1.0  0.14083  0.57360  0.41640  1.0000
  S   S115      1.0  0.12466  0.59233  0.35103  1.0000
  Fe  Fe57      1.0  0.13714  0.58676  0.45003  1.0000
  H   H454      1.0  0.22680  0.64425  0.38482  1.0000
  Fe  Fe58      1.0  0.16551  0.58797  0.40472  1.0000
  S   S116      1.0  0.18736  0.58100  0.38711  1.0000
  S   S117      1.0  0.13085  0.60640  0.42263  1.0000
  S   S118      1.0  0.16106  0.60755  0.37432  1.0000
  S   S119      1.0  0.21760  0.68357  0.45300  1.0000
  N   N28       1.0  0.16983  0.61751  0.00040  1.0000
  Fe  Fe59      1.0  0.10119  0.67303  0.11244  1.0000
  S   S120      1.0  0.11628  0.67240  0.14306  1.0000
  S   S121      1.0  0.10596  0.67029  0.06776  1.0000
  Fe  Fe60      1.0  0.07602  0.68203  0.15105  1.0000
  S   S122      1.0  0.08914  0.68270  0.18464  1.0000
  S   S123      1.0  0.05262  0.68742  0.15765  1.0000
  Fe  Fe61      1.0  0.11044  0.69467  0.14891  1.0000
  S   S124      1.0  0.12844  0.71743  0.14204  1.0000
  Fe  Fe62      1.0  0.09380  0.66045  0.17626  1.0000
  S   S125      1.0  0.08953  0.64017  0.21448  1.0000
  S   S126      1.0  0.09676  0.69599  0.11601  1.0000
  S   S127      1.0  0.07929  0.65906  0.14504  1.0000
  H   H455      1.0  0.19161  0.62927  0.39975  1.0000
  H   H456      1.0  0.20121  0.65110  0.46833  1.0000
  H   H457      1.0  0.03698  0.61916  0.15624  1.0000
  C   C278      1.0  0.13366  0.66312  0.06981  1.0000
  C   C279      1.0  0.12393  0.66734  0.05287  1.0000
  C   C280      1.0  0.12883  0.66994  0.02331  1.0000
  C   C281      1.0  0.14360  0.66877  0.01062  1.0000
  H   H458      1.0  0.14282  0.50013  0.06516  1.0000
  H   H459      1.0  0.12985  0.66089  0.09264  1.0000
  H   H460      1.0  0.12129  0.67315  0.01015  1.0000
  H   H461      1.0  0.04825  0.65427  0.18253  1.0000
  C   C282      1.0  0.03939  0.67989  0.13941  1.0000
  C   C283      1.0  0.02473  0.68295  0.14373  1.0000
  C   C284      1.0  0.01368  0.67644  0.13054  1.0000
  C   C285      1.0  0.03189  0.66371  0.10871  1.0000
  C   C286      1.0  0.04300  0.67038  0.12160  1.0000
  H   H462      1.0  0.02189  0.69032  0.15747  1.0000
  H   H463      1.0  0.11639  0.50067  0.03929  1.0000
  H   H464      1.0  0.03471  0.65623  0.09520  1.0000
  H   H465      1.0  0.05433  0.66814  0.11781  1.0000
  C   C287      1.0  0.01720  0.66667  0.11322  1.0000
  H   H466      1.0  0.02830  0.63533  0.15210  1.0000
  H   H467      1.0  0.02251  0.69380  0.01287  1.0000
  C   C288      1.0  0.20287  0.67316  0.43992  1.0000
  C   C289      1.0  0.19709  0.65689  0.45118  1.0000
  C   C290      1.0  0.18599  0.64805  0.44060  1.0000
  C   C291      1.0  0.18062  0.65534  0.41824  1.0000
  C   C292      1.0  0.18627  0.67162  0.40718  1.0000
  C   C293      1.0  0.19725  0.68048  0.41796  1.0000
  H   H468      1.0  0.21294  0.60661  0.44090  1.0000
  H   H469      1.0  0.18157  0.63562  0.44979  1.0000
  H   H470      1.0  0.18217  0.67743  0.39003  1.0000
  H   H471      1.0  0.20153  0.69296  0.40903  1.0000
  C   C294      1.0  0.08193  0.55826  0.34112  1.0000
  C   C295      1.0  0.08423  0.55816  0.36831  1.0000
  C   C296      1.0  0.09741  0.56815  0.37180  1.0000
  C   C297      1.0  0.10848  0.57844  0.34808  1.0000
  C   C298      1.0  0.10629  0.57836  0.32087  1.0000
  C   C299      1.0  0.09313  0.56837  0.31736  1.0000
  H   H472      1.0  0.07569  0.55038  0.38687  1.0000
  H   H473      1.0  0.09884  0.56809  0.39289  1.0000
  H   H474      1.0  0.11487  0.58610  0.30236  1.0000
  H   H475      1.0  0.09162  0.56855  0.29629  1.0000
  C   C300      1.0  0.22238  0.61410  0.38387  1.0000
  H   H476      1.0  0.17137  0.60743  0.04246  1.0000
  N   N29       1.0  0.19656  0.51544  0.38073  1.0000
  C   C301      1.0  0.07779  0.59133  0.20040  1.0000
  C   C302      1.0  0.07482  0.59339  0.22787  1.0000
  C   C303      1.0  0.07820  0.60845  0.23194  1.0000
  C   C304      1.0  0.08475  0.62151  0.20861  1.0000
  C   C305      1.0  0.08752  0.61949  0.18110  1.0000
  C   C306      1.0  0.08403  0.60442  0.17703  1.0000
  H   H477      1.0  0.07001  0.58337  0.24599  1.0000
  H   H478      1.0  0.07576  0.60991  0.25325  1.0000
  H   H479      1.0  0.09259  0.62950  0.16298  1.0000
  H   H480      1.0  0.08634  0.60288  0.15573  1.0000
  H   H481      1.0  0.00236  0.64729  0.01055  1.0000
  S   S128      1.0  0.00344  0.65751  0.09759  1.0000
  N   N30       1.0  0.14513  0.71314  0.05678  1.0000
  H   H482      1.0  0.15944  0.73088  0.30982  1.0000
  H   H483      1.0  0.03339  0.50147  0.16744  1.0000
  C   C307      1.0  0.20734  0.54529  0.43768  1.0000
  C   C308      1.0  0.19322  0.54794  0.45027  1.0000
  C   C309      1.0  0.18696  0.55893  0.43514  1.0000
  C   C310      1.0  0.19481  0.56733  0.40727  1.0000
  C   C311      1.0  0.20904  0.56482  0.39481  1.0000
  C   C312      1.0  0.21534  0.55393  0.41001  1.0000
  H   H484      1.0  0.99043  0.66040  0.01590  1.0000
  H   H485      1.0  0.17601  0.56081  0.44496  1.0000
  H   H486      1.0  0.21523  0.57138  0.37331  1.0000
  H   H487      1.0  0.11253  0.53257  0.31878  1.0000
  C   C313      1.0  0.13820  0.72235  0.16756  1.0000
  H   H488      1.0  0.13340  0.70089  0.03140  1.0000
  C   C314      1.0  0.14511  0.70797  0.03049  1.0000
  C   C315      1.0  0.07577  0.51037  0.33109  1.0000
  H   H489      1.0  0.00118  0.72562  0.15137  1.0000
  H   H490      1.0  0.18699  0.54138  0.47176  1.0000
  C   C316      1.0  0.12154  0.49228  0.03113  1.0000
  C   C317      1.0  0.03755  0.63088  0.16013  1.0000
  S   S129      1.0  0.07086  0.49725  0.25957  1.0000
  N   N31       1.0  0.01481  0.67059  0.00834  1.0000
  H   H491      1.0  0.15591  0.65858  0.07030  1.0000
  C   C318      1.0  0.14119  0.69935  0.08120  1.0000
  C   C319      1.0  0.18220  0.71965  0.28523  1.0000
  C   C320      1.0  0.02050  0.61989  0.20719  1.0000
  H   H492      1.0  0.00501  0.49295  0.21781  1.0000
  H   H493      1.0  0.07220  0.51843  0.31519  1.0000
  C   C321      1.0  0.16065  0.72294  0.05452  1.0000
  H   H494      1.0  0.05984  0.63181  0.18838  1.0000
  H   H495      1.0  0.07458  0.51435  0.20148  1.0000
  C   C322      1.0  0.21239  0.52447  0.37843  1.0000
  C   C323      1.0  0.17352  0.71112  0.33647  1.0000
  H   H496      1.0  0.16403  0.73350  0.03634  1.0000
  H   H497      1.0  0.22641  0.55227  0.40034  1.0000
  H   H498      1.0  0.15331  0.70056  0.02714  1.0000
  H   H499      1.0  0.01931  0.60782  0.20463  1.0000
  H   H500      1.0  0.14554  0.70702  0.23052  1.0000
  H   H501      1.0  0.14575  0.61653  0.01629  1.0000
  H   H502      1.0  0.21342  0.64095  0.41843  1.0000
  H   H503      1.0  0.15896  0.62890  0.02971  1.0000
  H   H504      1.0  0.04886  0.63877  0.14687  1.0000
  C   C324      1.0  0.00105  0.65716  0.02006  1.0000
  S   S130      1.0  0.21212  0.72653  0.43354  1.0000
  H   H505      1.0  0.19747  0.52584  0.33728  1.0000
  C   C325      1.0  0.19647  0.73224  0.31381  1.0000
  N   N32       1.0  0.18087  0.72476  0.31176  1.0000
  H   H506      1.0  0.20517  0.63337  0.36597  1.0000
  H   H507      1.0  0.02783  0.65123  0.18691  1.0000
  N   N33       1.0  0.09282  0.51339  0.32444  1.0000
  H   H508      1.0  0.17315  0.51705  0.39480  1.0000
  C   C326      1.0  0.14127  0.51557  0.10594  1.0000
  H   H509      1.0  0.21425  0.52470  0.39975  1.0000
  H   H510      1.0  0.07093  0.51226  0.35216  1.0000
  H   H511      1.0  0.17232  0.71461  0.35683  1.0000
  H   H512      1.0  0.11003  0.50974  0.11074  1.0000
  H   H513      1.0  0.21476  0.53674  0.36575  1.0000
  H   H514      1.0  0.09644  0.53804  0.30751  1.0000
  H   H515      1.0  0.20348  0.50801  0.34290  1.0000
  H   H516      1.0  0.19591  0.73618  0.33367  1.0000
  C   C327      1.0  0.09717  0.50280  0.34651  1.0000
  H   H517      1.0  0.18725  0.53551  0.37906  1.0000
  H   H518      1.0  0.19473  0.62394  0.98507  1.0000
  H   H519      1.0  0.02689  0.66186  0.03845  1.0000
  C   C328      1.0  0.22098  0.63545  0.40545  1.0000
  C   C329      1.0  0.19509  0.51414  0.35222  1.0000
  N   N34       1.0  0.10643  0.62633  0.28594  1.0000
  C   C330      1.0  0.11113  0.62096  0.31228  1.0000
  C   C331      1.0  0.11646  0.64196  0.26995  1.0000
  C   C332      1.0  0.09013  0.62712  0.29334  1.0000
  C   C333      1.0  0.10800  0.61527  0.26815  1.0000
  H   H520      1.0  0.12326  0.61982  0.30765  1.0000
  H   H521      1.0  0.10359  0.60931  0.32510  1.0000
  H   H522      1.0  0.11041  0.62913  0.32605  1.0000
  H   H523      1.0  0.11312  0.64634  0.24997  1.0000
  H   H524      1.0  0.11559  0.65064  0.28266  1.0000
  H   H525      1.0  0.12884  0.64177  0.26388  1.0000
  H   H526      1.0  0.08627  0.63139  0.27400  1.0000
  H   H527      1.0  0.08851  0.63520  0.30707  1.0000
  H   H528      1.0  0.08220  0.61544  0.30494  1.0000
  H   H529      1.0  0.09986  0.60358  0.27871  1.0000
  H   H530      1.0  0.11995  0.61367  0.26361  1.0000
  H   H531      1.0  0.10552  0.61951  0.24731  1.0000
  H   H532      1.0  0.02508  0.49944  0.24423  1.0000
  H   H533      1.0  0.09544  0.53224  0.34458  1.0000
  H   H534      1.0  0.03544  0.64619  0.21725  1.0000
  H   H535      1.0  0.19734  0.59864  0.42690  1.0000
  S   S131      1.0  0.23345  0.49521  0.35600  1.0000
  H   H536      1.0  0.13548  0.52210  0.11957  1.0000
  H   H537      1.0  0.18783  0.72966  0.26617  1.0000
  C   C334      1.0  0.09858  0.51064  0.29640  1.0000
  H   H538      1.0  0.09967  0.58100  0.47475  1.0000
  H   H539      1.0  0.01090  0.62416  0.20027  1.0000
  N   N35       1.0  0.03577  0.63028  0.19057  1.0000
  H   H540      1.0  0.18623  0.52470  0.41413  1.0000
  C   C335      1.0  0.09966  0.52975  0.32378  1.0000
  H   H541      1.0  0.00238  0.67878  0.13414  1.0000
  H   H542      1.0  0.13060  0.69950  0.19660  1.0000
  C   C336      1.0  0.14837  0.66179  0.05715  1.0000
  Fe  Fe63      1.0  0.23318  0.52073  0.43642  1.0000
  C   C337      1.0  0.19360  0.49966  0.39965  1.0000
  H   H543      1.0  0.18918  0.71095  0.28469  1.0000
  H   H544      1.0  0.14845  0.71804  0.01142  1.0000
  C   C338      1.0  0.15742  0.62478  0.01062  1.0000
  C   C339      1.0  0.03683  0.64613  0.19456  1.0000
  H   H545      1.0  0.12166  0.71510  0.06283  1.0000
  S   S132      1.0  0.14384  0.51750  0.99621  1.0000
  H   H546      1.0  0.07960  0.50667  0.15613  1.0000
  H   H547      1.0  0.14740  0.67099  0.98775  1.0000
  H   H548      1.0  0.23101  0.51407  0.99633  1.0000
  Fe  Fe64      1.0  0.21782  0.73722  0.46842  1.0000
  C   C340      1.0  0.07878  0.49841  0.17584  1.0000
  H   H549      1.0  0.19322  0.61397  0.38266  1.0000
  H   H550      1.0  0.14589  0.52339  0.08400  1.0000
  H   H551      1.0  0.22128  0.51935  0.36788  1.0000
  H   H552      1.0  0.19632  0.61449  0.44300  1.0000
  C   C341      1.0  0.11714  0.50471  0.09594  1.0000
  C   C342      1.0  0.99449  0.50726  0.26573  1.0000
  C   C343      1.0  0.20000  0.62456  0.38676  1.0000
  H   H553      1.0  0.12107  0.51321  0.07466  1.0000
  S   S133      1.0  0.17196  0.66335  0.01228  1.0000
  C   C344      1.0  0.15339  0.66475  0.02756  1.0000
  H   H554      1.0  0.11849  0.49660  0.15033  1.0000
  N   N36       1.0  0.21193  0.62095  0.40134  1.0000
  H   H555      1.0  0.07012  0.49828  0.33098  1.0000
  H   H556      1.0  0.22819  0.62222  0.36255  1.0000
  C   C345      1.0  0.03486  0.50252  0.18869  1.0000
  C   C346      1.0  0.14600  0.71562  0.21152  1.0000
  C   C347      1.0  0.02852  0.66584  0.01500  1.0000
  C   C348      1.0  0.99047  0.72792  0.14765  1.0000
  H   H557      1.0  0.04727  0.62362  0.22324  1.0000
  H   H558      1.0  0.12942  0.69190  0.08381  1.0000
  H   H559      1.0  0.17061  0.71430  0.28259  1.0000
  C   C349      1.0  0.01236  0.68346  0.02119  1.0000
  Fe  Fe65      1.0  0.22603  0.71004  0.44742  1.0000
  C   C350      1.0  0.16951  0.60391  0.02300  1.0000
  H   H560      1.0  0.01876  0.61916  0.23027  1.0000
  H   H561      1.0  0.17872  0.59815  0.01592  1.0000
  C   C351      1.0  0.04818  0.62421  0.20038  1.0000
  C   C352      1.0  0.15504  0.73098  0.20622  1.0000
  H   H562      1.0  0.15134  0.51317  0.11388  1.0000
  H   H563      1.0  0.04788  0.61230  0.19752  1.0000
  H   H564      1.0  0.16966  0.71639  0.05133  1.0000
  C   C353      1.0  0.07587  0.50276  0.20150  1.0000
  H   H565      1.0  0.04752  0.50605  0.18690  1.0000
  H   H566      1.0  0.18047  0.70236  0.33740  1.0000
  H   H567      1.0  0.15817  0.59503  0.02911  1.0000
  H   H568      1.0  0.03915  0.67569  0.00655  1.0000
  H   H569      1.0  0.16173  0.70518  0.33559  1.0000
  H   H570      1.0  0.02997  0.51224  0.19360  1.0000
  H   H571      1.0  0.10925  0.49406  0.09403  1.0000
  H   H572      1.0  0.21588  0.60312  0.38044  1.0000
  H   H573      1.0  0.20410  0.72411  0.31384  1.0000
  H   H574      1.0  0.99896  0.65271  0.04348  1.0000
  H   H575      1.0  0.03068  0.65606  0.00584  1.0000
  S   S134      1.0  0.22447  0.49571  0.43630  1.0000
  C   C354      1.0  0.20432  0.60969  0.42928  1.0000
  C   C355      1.0  0.13350  0.72220  0.06109  1.0000
  H   H576      1.0  0.18327  0.50743  0.35304  1.0000
  C   C356      1.0  0.17128  0.73606  0.31153  1.0000
  H   H577      1.0  0.14130  0.70276  0.10140  1.0000
  H   H578      1.0  0.00206  0.68730  0.01679  1.0000
  C   C357      1.0  0.18506  0.62897  0.99305  1.0000
  C   C358      1.0  0.18527  0.52350  0.39266  1.0000
  N   N37       1.0  0.13039  0.50098  0.10627  1.0000
  H   H579      1.0  0.01043  0.67988  0.04468  1.0000
  H   H580      1.0  0.09296  0.50461  0.36791  1.0000
  S   S135      1.0  0.16582  0.73585  0.23044  1.0000
  H   H581      1.0  0.16095  0.72692  0.07421  1.0000
  H   H582      1.0  0.20224  0.49347  0.39165  1.0000
  H   H583      1.0  0.13614  0.73278  0.04321  1.0000
  H   H584      1.0  0.18190  0.49234  0.40132  1.0000
  H   H585      1.0  0.23150  0.61117  0.39426  1.0000
  H   H586      1.0  0.17015  0.74036  0.33106  1.0000
  C   C359      1.0  0.14727  0.73768  0.16227  1.0000
  H   H587      1.0  0.19435  0.50020  0.42150  1.0000
  H   H588      1.0  0.09534  0.51836  0.27930  1.0000
  C   C360      1.0  0.13843  0.49282  0.08753  1.0000
  H   H589      1.0  0.23004  0.63319  0.41657  1.0000
  C   C361      1.0  0.07481  0.49217  0.22704  1.0000
  H   H590      1.0  0.13301  0.72604  0.08105  1.0000
  H   H591      1.0  0.11141  0.51284  0.29052  1.0000
  C   C362      1.0  0.99532  0.49255  0.27991  1.0000
  C   C363      1.0  0.98622  0.74115  0.15366  1.0000
  H   H592      1.0  0.04214  0.49246  0.23815  1.0000
  H   H593      1.0  0.09352  0.49843  0.29605  1.0000
  Fe  Fe66      1.0  0.01481  0.52588  0.64566  1.0000
  S   S136      1.0  0.03278  0.51775  0.61903  1.0000
  H   H594      1.0  0.04870  0.49797  0.76629  1.0000
  Fe  Fe67      1.0  0.03992  0.55078  0.65807  1.0000
  S   S137      1.0  0.05951  0.54412  0.63227  1.0000
  S   S138      1.0  0.04308  0.57288  0.67376  1.0000
  Fe  Fe68      1.0  0.04527  0.54308  0.60057  1.0000
  S   S139      1.0  0.05332  0.55505  0.55355  1.0000
  Fe  Fe69      1.0  0.04536  0.51944  0.65330  1.0000
  S   S140      1.0  0.15709  0.51590  0.85487  1.0000
  S   S141      1.0  0.02641  0.55122  0.62487  1.0000
  S   S142      1.0  0.02656  0.52600  0.68156  1.0000
  Fe  Fe70      1.0  0.17345  0.55644  0.90632  1.0000
  S   S143      1.0  0.18620  0.54521  0.87624  1.0000
  S   S144      1.0  0.16978  0.58069  0.89394  1.0000
  Fe  Fe71      1.0  0.16012  0.52608  0.95228  1.0000
  S   S145      1.0  0.17160  0.51216  0.92635  1.0000
  Fe  Fe72      1.0  0.19264  0.53258  0.91431  1.0000
  H   H595      1.0  0.15941  0.72028  0.74682  1.0000
  Fe  Fe73      1.0  0.16456  0.52546  0.89007  1.0000
  H   H596      1.0  0.21249  0.49888  0.49524  1.0000
  S   S146      1.0  0.18165  0.54550  0.94356  1.0000
  S   S147      1.0  0.15125  0.53773  0.91691  1.0000
  Fe  Fe74      1.0  0.09891  0.62504  0.74231  1.0000
  S   S148      1.0  0.09525  0.62018  0.78968  1.0000
  S   S149      1.0  0.09739  0.60401  0.72346  1.0000
  Fe  Fe75      1.0  0.10619  0.66022  0.73573  1.0000
  S   S150      1.0  0.10256  0.65794  0.78267  1.0000
  S   S151      1.0  0.11192  0.68423  0.70554  1.0000
  Fe  Fe76      1.0  0.11624  0.64003  0.78160  1.0000
  S   S152      1.0  0.13591  0.63773  0.80289  1.0000
  Fe  Fe77      1.0  0.08181  0.63840  0.78681  1.0000
  S   S153      1.0  0.05886  0.63228  0.81980  1.0000
  S   S154      1.0  0.12121  0.64353  0.73415  1.0000
  S   S155      1.0  0.08417  0.64205  0.73998  1.0000
  Fe  Fe78      1.0  0.19825  0.66018  0.91900  1.0000
  S   S156      1.0  0.20067  0.68164  0.88458  1.0000
  S   S157      1.0  0.20971  0.64049  0.91723  1.0000
  H   H597      1.0  0.00897  0.56968  0.54724  1.0000
  S   S158      1.0  0.18036  0.69380  0.93444  1.0000
  Fe  Fe79      1.0  0.17542  0.67867  0.90469  1.0000
  S   S159      1.0  0.15659  0.68100  0.88141  1.0000
  Fe  Fe80      1.0  0.20550  0.69510  0.91680  1.0000
  C   C364      1.0  0.07924  0.56934  0.50933  1.0000
  S   S160      1.0  0.17276  0.65625  0.93677  1.0000
  S   S161      1.0  0.20519  0.67380  0.94907  1.0000
  C   C365      1.0  0.07306  0.58494  0.59699  1.0000
  H   H598      1.0  0.02452  0.49245  0.70082  1.0000
  N   N38       1.0  0.00485  0.54470  0.55657  1.0000
  C   C366      1.0  0.14105  0.64899  0.82631  1.0000
  C   C367      1.0  0.15553  0.65002  0.83260  1.0000
  C   C368      1.0  0.16020  0.65927  0.85041  1.0000
  C   C369      1.0  0.15046  0.66770  0.86190  1.0000
  C   C370      1.0  0.13586  0.66641  0.85610  1.0000
  C   C371      1.0  0.13113  0.65705  0.83850  1.0000
  H   H599      1.0  0.16335  0.64393  0.82315  1.0000
  H   H600      1.0  0.17151  0.66024  0.85456  1.0000
  H   H601      1.0  0.12819  0.67274  0.86524  1.0000
  H   H602      1.0  0.11986  0.65614  0.83422  1.0000
  C   C372      1.0  0.04301  0.63922  0.81222  1.0000
  C   C373      1.0  0.04412  0.64901  0.78576  1.0000
  C   C374      1.0  0.03101  0.65359  0.77992  1.0000
  C   C375      1.0  0.01677  0.64856  0.80055  1.0000
  C   C376      1.0  0.01570  0.63891  0.82710  1.0000
  C   C377      1.0  0.02877  0.63423  0.83286  1.0000
  H   H603      1.0  0.05504  0.65300  0.76975  1.0000
  H   H604      1.0  0.03194  0.66110  0.75936  1.0000
  H   H605      1.0  0.00478  0.63498  0.84315  1.0000
  H   H606      1.0  0.02783  0.62667  0.85340  1.0000
  C   C378      1.0  0.18088  0.59692  0.90153  1.0000
  C   C379      1.0  0.17610  0.61080  0.89795  1.0000
  C   C380      1.0  0.18496  0.62422  0.90246  1.0000
  C   C381      1.0  0.19862  0.62384  0.91088  1.0000
  C   C382      1.0  0.20333  0.60992  0.91489  1.0000
  C   C383      1.0  0.19445  0.59645  0.91030  1.0000
  H   H607      1.0  0.16551  0.61123  0.89163  1.0000
  H   H608      1.0  0.18127  0.63490  0.89916  1.0000
  C   C384      1.0  0.09526  0.57370  0.49628  1.0000
  H   H609      1.0  0.19825  0.58582  0.91302  1.0000
  C   C385      1.0  0.14778  0.72304  0.68182  1.0000
  H   H610      1.0  0.21115  0.52062  0.84661  1.0000
  H   H611      1.0  0.19622  0.49459  0.90155  1.0000
  C   C386      1.0  0.99373  0.69029  0.76729  1.0000
  H   H612      1.0  0.21391  0.60955  0.92137  1.0000
  H   H613      1.0  0.00700  0.67952  0.97184  1.0000
  C   C387      1.0  0.16736  0.61234  0.97500  1.0000
  C   C388      1.0  0.16253  0.70916  0.61028  1.0000
  C   C389      1.0  0.07341  0.55995  0.53734  1.0000
  C   C390      1.0  0.08368  0.55483  0.55217  1.0000
  C   C391      1.0  0.09967  0.55923  0.53921  1.0000
  H   H614      1.0  0.12355  0.71732  0.68208  1.0000
  H   H615      1.0  0.10607  0.57821  0.61282  1.0000
  H   H616      1.0  0.16743  0.62228  0.95759  1.0000
  H   H617      1.0  0.07931  0.54734  0.57353  1.0000
  H   H618      1.0  0.10756  0.55521  0.55081  1.0000
  S   S162      1.0  0.05619  0.49955  0.66484  1.0000
  C   C392      1.0  0.16006  0.71721  0.68820  1.0000
  H   H619      1.0  0.09666  0.60627  0.55719  1.0000
  H   H620      1.0  0.00622  0.54545  0.51266  1.0000
  H   H621      1.0  0.09226  0.56611  0.60027  1.0000
  H   H622      1.0  0.15209  0.69780  0.82236  1.0000
  S   S163      1.0  0.00055  0.65442  0.79222  1.0000
  C   C393      1.0  0.05869  0.58151  0.68642  1.0000
  C   C394      1.0  0.05989  0.59662  0.69018  1.0000
  C   C395      1.0  0.07180  0.60375  0.70109  1.0000
  C   C396      1.0  0.08258  0.59580  0.70854  1.0000
  C   C397      1.0  0.08162  0.58085  0.70409  1.0000
  C   C398      1.0  0.06973  0.57371  0.69311  1.0000
  H   H623      1.0  0.05151  0.60282  0.68472  1.0000
  H   H624      1.0  0.07273  0.61544  0.70357  1.0000
  H   H625      1.0  0.08996  0.57462  0.70966  1.0000
  H   H626      1.0  0.06894  0.56207  0.69041  1.0000
  H   H627      1.0  0.07093  0.57590  0.58513  1.0000
  H   H628      1.0  0.07136  0.57332  0.49767  1.0000
  H   H629      1.0  0.98795  0.72352  0.79136  1.0000
  H   H630      1.0  0.04699  0.50884  0.71721  1.0000
  C   C399      1.0  0.14302  0.69086  0.70393  1.0000
  C   C400      1.0  0.13062  0.69669  0.69823  1.0000
  H   H631      1.0  0.14126  0.67846  0.71240  1.0000
  H   H632      1.0  0.14017  0.50460  0.81747  1.0000
  N   N39       1.0  0.14179  0.59323  0.83854  1.0000
  C   C401      1.0  0.15255  0.60805  0.83755  1.0000
  C   C402      1.0  0.13082  0.59649  0.82131  1.0000
  C   C403      1.0  0.13309  0.58535  0.86829  1.0000
  C   C404      1.0  0.15074  0.58304  0.82708  1.0000
  H   H633      1.0  0.14627  0.61568  0.84745  1.0000
  H   H634      1.0  0.15863  0.61478  0.81529  1.0000
  H   H635      1.0  0.16155  0.60595  0.84894  1.0000
  H   H636      1.0  0.12265  0.58559  0.82114  1.0000
  H   H637      1.0  0.12381  0.60406  0.82962  1.0000
  H   H638      1.0  0.13700  0.60280  0.79885  1.0000
  H   H639      1.0  0.14105  0.58288  0.88193  1.0000
  H   H640      1.0  0.12501  0.57402  0.86990  1.0000
  H   H641      1.0  0.12617  0.59270  0.87758  1.0000
  H   H642      1.0  0.15905  0.58030  0.83984  1.0000
  H   H643      1.0  0.15758  0.58869  0.80475  1.0000
  H   H644      1.0  0.14303  0.57173  0.82743  1.0000
  C   C405      1.0  0.09376  0.57536  0.61184  1.0000
  H   H645      1.0  0.18319  0.71022  0.64197  1.0000
  N   N40       1.0  0.14477  0.70247  0.78360  1.0000
  H   H646      1.0  0.17508  0.73421  0.62606  1.0000
  H   H647      1.0  0.14972  0.71708  0.81136  1.0000
  S   S164      1.0  0.98856  0.51609  0.65435  1.0000
  Fe  Fe81      1.0  0.17985  0.67141  0.96461  1.0000
  H   H648      1.0  0.18487  0.70664  0.56807  1.0000
  C   C406      1.0  0.20064  0.50000  0.56383  1.0000
  H   H649      1.0  0.23358  0.69041  0.88905  1.0000
  H   H650      1.0  0.20022  0.71709  0.61293  1.0000
  H   H651      1.0  0.21261  0.52658  0.52169  1.0000
  H   H652      1.0  0.20202  0.49704  0.81322  1.0000
  H   H653      1.0  0.22173  0.70741  0.96564  1.0000
  H   H654      1.0  0.16120  0.69696  0.60850  1.0000
  C   C407      1.0  0.01392  0.53299  0.55989  1.0000
  H   H655      1.0  0.14324  0.72568  0.76571  1.0000
  H   H656      1.0  0.99790  0.54230  0.60163  1.0000
  C   C408      1.0  0.18552  0.71854  0.57110  1.0000
  H   H657      1.0  0.23188  0.49414  0.52102  1.0000
  H   H658      1.0  0.15727  0.70859  0.63286  1.0000
  H   H659      1.0  0.16254  0.69417  0.76041  1.0000
  C   C409      1.0  0.10554  0.56869  0.51126  1.0000
  H   H660      1.0  0.99712  0.71340  0.72119  1.0000
  H   H661      1.0  0.18578  0.63934  0.97601  1.0000
  H   H662      1.0  0.21863  0.49924  0.82775  1.0000
  C   C410      1.0  0.19882  0.51400  0.85112  1.0000
  H   H663      1.0  0.19418  0.51827  0.83275  1.0000
  C   C411      1.0  0.99278  0.54185  0.58321  1.0000
  H   H664      1.0  0.99468  0.70196  0.77147  1.0000
  H   H665      1.0  0.15554  0.71461  0.59717  1.0000
  C   C412      1.0  0.13311  0.71276  0.68668  1.0000
  C   C413      1.0  0.09941  0.59563  0.56838  1.0000
  H   H666      1.0  0.01946  0.53351  0.57771  1.0000
  H   H667      1.0  0.16722  0.69650  0.70355  1.0000
  H   H668      1.0  0.11192  0.59873  0.56802  1.0000
  C   C414      1.0  0.05231  0.49930  0.72151  1.0000
  C   C415      1.0  0.99678  0.70162  0.71754  1.0000
  H   H669      1.0  0.22680  0.52318  0.54108  1.0000
  H   H670      1.0  0.08647  0.57027  0.63405  1.0000
  H   H671      1.0  0.00650  0.52094  0.56429  1.0000
  H   H672      1.0  0.14310  0.68475  0.76075  1.0000
  H   H673      1.0  0.02345  0.53504  0.54050  1.0000
  H   H674      1.0  0.99048  0.55211  0.52993  1.0000
  H   H675      1.0  0.01904  0.66643  0.96680  1.0000
  H   H676      1.0  0.15606  0.60357  0.97973  1.0000
  C   C416      1.0  0.22060  0.51908  0.52584  1.0000
  N   N41       1.0  0.17898  0.71809  0.60107  1.0000
  H   H677      1.0  0.20630  0.50350  0.58018  1.0000
  H   H678      1.0  0.19607  0.50499  0.51086  1.0000
  S   S165      1.0  0.23068  0.71999  0.48403  1.0000
  C   C417      1.0  0.14314  0.49814  0.85985  1.0000
  H   H679      1.0  0.17926  0.72429  0.55672  1.0000
  C   C418      1.0  0.15771  0.70109  0.69880  1.0000
  C   C419      1.0  0.05815  0.49300  0.69954  1.0000
  N   N42       1.0  0.08948  0.58929  0.59775  1.0000
  C   C420      1.0  0.09168  0.60120  0.61386  1.0000
  S   S166      1.0  0.21462  0.52416  0.91089  1.0000
  H   H680      1.0  0.12347  0.70585  0.80611  1.0000
  H   H681      1.0  0.08435  0.59674  0.63612  1.0000
  H   H682      1.0  0.10393  0.60474  0.61499  1.0000
  H   H683      1.0  0.08851  0.61188  0.60399  1.0000
  C   C421      1.0  0.18012  0.73416  0.60378  1.0000
  C   C422      1.0  0.14701  0.71580  0.75901  1.0000
  H   H684      1.0  0.06523  0.58017  0.61880  1.0000
  H   H685      1.0  0.06943  0.59515  0.58645  1.0000
  N   N43       1.0  0.04196  0.59761  0.78071  1.0000
  C   C423      1.0  0.04344  0.61298  0.76164  1.0000
  C   C424      1.0  0.05737  0.59651  0.78467  1.0000
  C   C425      1.0  0.03571  0.58511  0.76803  1.0000
  C   C426      1.0  0.03136  0.59591  0.80855  1.0000
  H   H686      1.0  0.03195  0.61468  0.75948  1.0000
  H   H687      1.0  0.05072  0.61440  0.74003  1.0000
  H   H688      1.0  0.04899  0.62261  0.76982  1.0000
  H   H689      1.0  0.06586  0.59829  0.76402  1.0000
  H   H690      1.0  0.06217  0.60551  0.79498  1.0000
  H   H691      1.0  0.05685  0.58493  0.79830  1.0000
  H   H692      1.0  0.03413  0.57334  0.78216  1.0000
  H   H693      1.0  0.04367  0.58578  0.74741  1.0000
  H   H694      1.0  0.02430  0.58588  0.76393  1.0000
  H   H695      1.0  0.02996  0.58447  0.82355  1.0000
  H   H696      1.0  0.01966  0.59689  0.80638  1.0000
  H   H697      1.0  0.03581  0.60515  0.81869  1.0000
  H   H698      1.0  0.12114  0.69276  0.78377  1.0000
  H   H699      1.0  0.00895  0.70066  0.71224  1.0000
  H   H700      1.0  0.19792  0.72526  0.56343  1.0000
  C   C427      1.0  0.18777  0.71059  0.61924  1.0000
  H   H701      1.0  0.09781  0.58700  0.55555  1.0000
  C   C428      1.0  0.20409  0.49765  0.51570  1.0000
  H   H702      1.0  0.12589  0.68656  0.81678  1.0000
  H   H703      1.0  0.17383  0.74034  0.59008  1.0000
  H   H704      1.0  0.14948  0.73545  0.67361  1.0000
  H   H705      1.0  0.00631  0.49424  0.67029  1.0000
  H   H706      1.0  0.14019  0.71241  0.74405  1.0000
  S   S167      1.0  0.17835  0.72965  0.68431  1.0000
  S   S168      1.0  0.12579  0.57442  0.49651  1.0000
  H   H707      1.0  0.02478  0.56287  0.53045  1.0000
  H   H708      1.0  0.02753  0.68603  0.96758  1.0000
  C   C429      1.0  0.15037  0.68987  0.77366  1.0000
  C   C430      1.0  0.15358  0.70756  0.80342  1.0000
  H   H709      1.0  0.19205  0.50696  0.56107  1.0000
  C   C431      1.0  0.12809  0.69667  0.79823  1.0000
  H   H710      1.0  0.16622  0.71188  0.79302  1.0000
  H   H711      1.0  0.99218  0.70113  0.69857  1.0000
  C   C432      1.0  0.13684  0.49555  0.83718  1.0000
  H   H712      1.0  0.21521  0.49818  0.87913  1.0000
  N   N44       1.0  0.19706  0.49700  0.85730  1.0000
  H   H713      1.0  0.19239  0.74119  0.59756  1.0000
  C   C433      1.0  0.20608  0.49327  0.83258  1.0000
  H   H714      1.0  0.22621  0.55641  0.91302  1.0000
  H   H715      1.0  0.98945  0.53164  0.53736  1.0000
  H   H716      1.0  0.18714  0.69839  0.61790  1.0000
  H   H717      1.0  0.15007  0.68019  0.79174  1.0000
  H   H718      1.0  0.02109  0.56178  0.56750  1.0000
  H   H719      1.0  0.19236  0.51709  0.86960  1.0000
  S   S169      1.0  0.22567  0.71698  0.90396  1.0000
  C   C434      1.0  0.23134  0.71769  0.95672  1.0000
  H   H720      1.0  0.99887  0.67189  0.73281  1.0000
  H   H721      1.0  0.00555  0.68830  0.76373  1.0000
  H   H722      1.0  0.99550  0.50052  0.60864  1.0000
  C   C435      1.0  0.99743  0.54344  0.53306  1.0000
  C   C436      1.0  0.01532  0.56047  0.55012  1.0000
  N   N45       1.0  0.21215  0.50242  0.53667  1.0000
  C   C437      1.0  0.01725  0.67588  0.97723  1.0000
  H   H723      1.0  0.17663  0.60698  0.96646  1.0000
  C   C438      1.0  0.05330  0.49314  0.74928  1.0000
  N   N46       1.0  0.98715  0.68914  0.74276  1.0000
  C   C439      1.0  0.23316  0.53546  0.90958  1.0000
  H   H724      1.0  0.98588  0.55064  0.58177  1.0000
  H   H725      1.0  0.22979  0.49639  0.55647  1.0000
  H   H726      1.0  0.22934  0.52128  0.50534  1.0000
  H   H727      1.0  0.23348  0.67023  0.89921  1.0000
  H   H728      1.0  0.17572  0.49253  0.84453  1.0000
  C   C440      1.0  0.98701  0.67375  0.73710  1.0000
  C   C441      1.0  0.22323  0.49292  0.54124  1.0000
  H   H729      1.0  0.98647  0.68139  0.78697  1.0000
  C   C442      1.0  0.20284  0.49196  0.88250  1.0000
  Fe  Fe82      1.0  0.17571  0.79478  0.22186  1.0000
  S   S170      1.0  0.18544  0.78269  0.18989  1.0000
  S   S171      1.0  0.16358  0.81383  0.21180  1.0000
  Fe  Fe83      1.0  0.18903  0.77852  0.26718  1.0000
  S   S172      1.0  0.20013  0.76534  0.23918  1.0000
  S   S173      1.0  0.18703  0.77505  0.31399  1.0000
  Fe  Fe84      1.0  0.20707  0.78799  0.20528  1.0000
  H   H730      1.0  0.01649  0.80215  0.10361  1.0000
  Fe  Fe85      1.0  0.17764  0.76108  0.22635  1.0000
  C   C443      1.0  0.00040  0.77609  0.09510  1.0000
  S   S174      1.0  0.19786  0.80158  0.23464  1.0000
  S   S175      1.0  0.16610  0.77279  0.25689  1.0000
  S   S176      1.0  0.01328  0.79673  0.16876  1.0000
  C   C444      1.0  0.16728  0.82168  0.33533  1.0000
  S   S177      1.0  0.00567  0.82940  0.11192  1.0000
  H   H731      1.0  0.09487  0.82375  0.22162  1.0000
  H   H732      1.0  0.14931  0.95867  0.00958  1.0000
  Fe  Fe86      1.0  0.10769  0.84414  0.31255  1.0000
  S   S178      1.0  0.08306  0.84160  0.33513  1.0000
  S   S179      1.0  0.11498  0.82164  0.31454  1.0000
  Fe  Fe87      1.0  0.11434  0.87975  0.29242  1.0000
  S   S180      1.0  0.09005  0.87951  0.31422  1.0000
  S   S181      1.0  0.13334  0.89926  0.25934  1.0000
  Fe  Fe88      1.0  0.09317  0.86204  0.35127  1.0000
  S   S182      1.0  0.08482  0.85814  0.39972  1.0000
  Fe  Fe89      1.0  0.08219  0.85898  0.29642  1.0000
  S   S183      1.0  0.06621  0.85865  0.26594  1.0000
  S   S184      1.0  0.11793  0.86351  0.33025  1.0000
  S   S185      1.0  0.10635  0.86019  0.27315  1.0000
  S   S186      1.0  0.21805  0.98468  0.12942  1.0000
  C   C445      1.0  0.10019  0.87943  0.46976  1.0000
  H   H733      1.0  0.16761  0.81420  0.35589  1.0000
  Fe  Fe90      1.0  0.16853  0.98890  0.18937  1.0000
  H   H734      1.0  0.19671  0.82567  0.30629  1.0000
  C   C446      1.0  0.13752  0.91992  0.25164  1.0000
  C   C447      1.0  0.14982  0.92877  0.22818  1.0000
  C   C448      1.0  0.15360  0.94519  0.22083  1.0000
  C   C449      1.0  0.14514  0.95300  0.23697  1.0000
  C   C450      1.0  0.13272  0.94417  0.26033  1.0000
  C   C451      1.0  0.12887  0.92770  0.26760  1.0000
  H   H735      1.0  0.15657  0.92288  0.21566  1.0000
  H   H736      1.0  0.16319  0.95181  0.20284  1.0000
  H   H737      1.0  0.11938  0.92106  0.28571  1.0000
  S   S187      1.0  0.14986  0.97371  0.22887  1.0000
  C   C452      1.0  0.03670  0.83337  0.22995  1.0000
  C   C453      1.0  0.04765  0.84529  0.23509  1.0000
  C   C454      1.0  0.05235  0.84311  0.26062  1.0000
  C   C455      1.0  0.04580  0.82884  0.28110  1.0000
  C   C456      1.0  0.03484  0.81696  0.27599  1.0000
  H   H738      1.0  0.05246  0.85628  0.21913  1.0000
  H   H739      1.0  0.04887  0.82708  0.30120  1.0000
  H   H740      1.0  0.02975  0.80606  0.29216  1.0000
  H   H741      1.0  0.10725  0.81736  0.24290  1.0000
  C   C457      1.0  0.99557  0.84408  0.03647  1.0000
  C   C458      1.0  0.08517  0.85851  0.45493  1.0000
  C   C459      1.0  0.09162  0.86639  0.42599  1.0000
  C   C460      1.0  0.10270  0.88070  0.41910  1.0000
  C   C461      1.0  0.10683  0.88722  0.44085  1.0000
  H   H742      1.0  0.12610  0.95009  0.27297  1.0000
  H   H743      1.0  0.04101  0.91755  0.99265  1.0000
  H   H744      1.0  0.10773  0.88697  0.39703  1.0000
  H   H745      1.0  0.11508  0.89849  0.43515  1.0000
  H   H746      1.0  0.17467  0.83357  0.33250  1.0000
  H   H747      1.0  0.03837  0.78028  0.09459  1.0000
  C   C462      1.0  0.18868  0.81406  0.30957  1.0000
  C   C463      1.0  0.02051  0.80010  0.08236  1.0000
  C   C464      1.0  0.20242  0.76993  0.32652  1.0000
  C   C465      1.0  0.21651  0.77108  0.30777  1.0000
  S   S188      1.0  0.23034  0.79736  0.17281  1.0000
  Fe  Fe91      1.0  0.23493  0.74266  0.40712  1.0000
  C   C466      1.0  0.21229  0.75968  0.36642  1.0000
  C   C467      1.0  0.20035  0.76431  0.35582  1.0000
  H   H748      1.0  0.21822  0.77550  0.28512  1.0000
  H   H749      1.0  0.03326  0.83526  0.21020  1.0000
  H   H750      1.0  0.23244  0.77190  0.14182  1.0000
  H   H751      1.0  0.18947  0.76342  0.37041  1.0000
  H   H752      1.0  0.13603  0.95697  0.98783  1.0000
  Fe  Fe92      1.0  0.00277  0.79951  0.21187  1.0000
  H   H753      1.0  0.18961  0.80617  0.32921  1.0000
  H   H754      1.0  0.09333  0.82590  0.28215  1.0000
  C   C468      1.0  0.03019  0.81907  0.25040  1.0000
  S   S189      1.0  0.98775  0.81414  0.19508  1.0000
  H   H755      1.0  0.99918  0.85459  0.01922  1.0000
  H   H756      1.0  0.15039  0.85149  0.47364  1.0000
  S   S190      1.0  0.17535  0.98427  0.14651  1.0000
  S   S191      1.0  0.12277  0.97529  0.02647  1.0000
  S   S192      1.0  0.01658  0.80333  0.24514  1.0000
  H   H757      1.0  0.15513  0.82262  0.33720  1.0000
  H   H758      1.0  0.07281  0.81851  0.29593  1.0000
  H   H759      1.0  0.13109  0.96740  0.07933  1.0000
  H   H760      1.0  0.99627  0.77706  0.11710  1.0000
  C   C469      1.0  0.14899  0.81556  0.23919  1.0000
  C   C470      1.0  0.14142  0.80299  0.26283  1.0000
  C   C471      1.0  0.13057  0.80491  0.28534  1.0000
  C   C472      1.0  0.12744  0.81945  0.28459  1.0000
  C   C473      1.0  0.13462  0.83193  0.26060  1.0000
  C   C474      1.0  0.14531  0.82993  0.23783  1.0000
  H   H761      1.0  0.14393  0.79180  0.26378  1.0000
  H   H762      1.0  0.12482  0.79516  0.30368  1.0000
  H   H763      1.0  0.13227  0.84319  0.25984  1.0000
  H   H764      1.0  0.15110  0.83968  0.21950  1.0000
  Fe  Fe93      1.0  0.99335  0.77550  0.17835  1.0000
  C   C475      1.0  0.13469  0.98672  0.04304  1.0000
  C   C476      1.0  0.22852  0.76658  0.31840  1.0000
  H   H765      1.0  0.16550  0.79437  0.29781  1.0000
  N   N47       1.0  0.01723  0.78325  0.08389  1.0000
  C   C477      1.0  0.16239  0.79937  0.31614  1.0000
  C   C478      1.0  0.17185  0.82531  0.28462  1.0000
  H   H766      1.0  0.15003  0.79958  0.31921  1.0000
  H   H767      1.0  0.16330  0.79111  0.33532  1.0000
  H   H768      1.0  0.19298  0.80920  0.29161  1.0000
  H   H769      1.0  0.17516  0.82041  0.26617  1.0000
  H   H770      1.0  0.17972  0.83716  0.27985  1.0000
  H   H771      1.0  0.15995  0.82675  0.28569  1.0000
  C   C479      1.0  0.00214  0.84328  0.05987  1.0000
  Fe  Fe94      1.0  0.99705  0.80986  0.15267  1.0000
  C   C480      1.0  0.22640  0.76083  0.34773  1.0000
  H   H772      1.0  0.02264  0.76283  0.10610  1.0000
  H   H773      1.0  0.07650  0.84750  0.46057  1.0000
  H   H774      1.0  0.17648  0.74646  0.29311  1.0000
  H   H775      1.0  0.23401  0.80121  0.22787  1.0000
  H   H776      1.0  0.14759  0.99150  0.28078  1.0000
  H   H777      1.0  0.15811  0.98712  0.98932  1.0000
  H   H778      1.0  0.16248  0.75386  0.17727  1.0000
  H   H779      1.0  0.03500  0.78647  0.04593  1.0000
  S   S193      1.0  0.99860  0.75385  0.16693  1.0000
  N   N48       1.0  0.09799  0.90260  0.21629  1.0000
  C   C481      1.0  0.11006  0.91723  0.20123  1.0000
  C   C482      1.0  0.08452  0.90176  0.20388  1.0000
  C   C483      1.0  0.09297  0.90220  0.24663  1.0000
  C   C484      1.0  0.10440  0.88913  0.21359  1.0000
  H   H780      1.0  0.10576  0.92767  0.20329  1.0000
  H   H781      1.0  0.11406  0.91803  0.17820  1.0000
  H   H782      1.0  0.12042  0.91799  0.21004  1.0000
  H   H783      1.0  0.07526  0.89079  0.21503  1.0000
  H   H784      1.0  0.07933  0.91171  0.20565  1.0000
  H   H785      1.0  0.08782  0.90195  0.18100  1.0000
  H   H786      1.0  0.08381  0.89133  0.25859  1.0000
  H   H787      1.0  0.08818  0.91225  0.24955  1.0000
  H   H788      1.0  0.10281  0.90265  0.25676  1.0000
  H   H789      1.0  0.11456  0.88934  0.22288  1.0000
  H   H790      1.0  0.10834  0.88904  0.19099  1.0000
  H   H791      1.0  0.09561  0.87790  0.22485  1.0000
  N   N49       1.0  0.08286  0.80874  0.26310  1.0000
  C   C485      1.0  0.08237  0.82188  0.27621  1.0000
  C   C486      1.0  0.06818  0.80395  0.25510  1.0000
  C   C487      1.0  0.08491  0.79551  0.28369  1.0000
  C   C488      1.0  0.09600  0.81370  0.23750  1.0000
  C   C489      1.0  0.13674  0.97961  0.06952  1.0000
  H   H792      1.0  0.22618  0.78460  0.11661  1.0000
  H   H793      1.0  0.08064  0.83205  0.26149  1.0000
  H   H794      1.0  0.06820  0.79425  0.24458  1.0000
  H   H795      1.0  0.05806  0.79987  0.27403  1.0000
  H   H796      1.0  0.06602  0.81380  0.24021  1.0000
  H   H797      1.0  0.07521  0.79151  0.30332  1.0000
  H   H798      1.0  0.09582  0.79884  0.29036  1.0000
  H   H799      1.0  0.08545  0.78539  0.27451  1.0000
  C   C490      1.0  0.02236  0.78108  0.05519  1.0000
  H   H800      1.0  0.01084  0.85323  0.06046  1.0000
  Fe  Fe95      1.0  0.11302  0.98062  0.98747  1.0000
  N   N50       1.0  0.17256  0.81511  0.31141  1.0000
  S   S194      1.0  0.08811  0.98097  0.99130  1.0000
  H   H801      1.0  0.02251  0.77778  0.12445  1.0000
  H   H802      1.0  0.01457  0.80626  0.06787  1.0000
  C   C491      1.0  0.02560  0.77572  0.10296  1.0000
  H   H803      1.0  0.09677  0.80408  0.22702  1.0000
  H   H804      1.0  0.02014  0.76847  0.05571  1.0000
  C   C492      1.0  0.99745  0.82977  0.08256  1.0000
  H   H805      1.0  0.21062  0.75536  0.38907  1.0000
  C   C493      1.0  0.23252  0.77534  0.11892  1.0000
  C   C494      1.0  0.08950  0.86489  0.47665  1.0000
  C   C495      1.0  0.14825  0.95728  0.98825  1.0000
  H   H806      1.0  0.03313  0.80588  0.07455  1.0000
  H   H807      1.0  0.01613  0.78651  0.04038  1.0000
  H   H808      1.0  0.14784  0.74626  0.14316  1.0000
  H   H809      1.0  0.12693  0.84871  0.45436  1.0000
  H   H810      1.0  0.15006  0.94570  0.98665  1.0000
  H   H811      1.0  0.14731  0.98252  0.10407  1.0000
  H   H812      1.0  0.22581  0.76507  0.11378  1.0000
  C   C496      1.0  0.14595  0.98816  0.08364  1.0000
  H   H813      1.0  0.17730  0.97147  0.98724  1.0000
  C   C497      1.0  0.98632  0.81693  0.08144  1.0000
  H   H814      1.0  0.12095  0.82820  0.47197  1.0000
  H   H815      1.0  0.99745  0.76342  0.09606  1.0000
  H   H816      1.0  0.14112  0.93192  0.47772  1.0000
  C   C498      1.0  0.12044  0.83996  0.47474  1.0000
  H   H817      1.0  0.99364  0.78178  0.08178  1.0000
  H   H818      1.0  0.20228  0.74269  0.29567  1.0000
  H   H819      1.0  0.10809  0.84042  0.47818  1.0000
  H   H820      1.0  0.12103  0.92357  0.48017  1.0000
  C   C499      1.0  0.15556  0.74201  0.18159  1.0000
  Fe  Fe96      1.0  0.17285  0.78555  0.64769  1.0000
  S   S195      1.0  0.17464  0.77253  0.69005  1.0000
  S   S196      1.0  0.15110  0.79410  0.65203  1.0000
  Fe  Fe97      1.0  0.20365  0.78169  0.61732  1.0000
  S   S197      1.0  0.20795  0.76929  0.65781  1.0000
  S   S198      1.0  0.22212  0.78402  0.57764  1.0000
  Fe  Fe98      1.0  0.18309  0.75584  0.66741  1.0000
  H   H821      1.0  0.11512  0.94807  0.48899  1.0000
  Fe  Fe99      1.0  0.19917  0.78727  0.67654  1.0000
  S   S199      1.0  0.20624  0.79824  0.71059  1.0000
  S   S200      1.0  0.17911  0.76740  0.62607  1.0000
  S   S201      1.0  0.19707  0.80107  0.63510  1.0000
  Fe  Fe100     1.0  0.10316  0.87829  0.54360  1.0000
  S   S202      1.0  0.10015  0.85344  0.56751  1.0000
  Fe  Fe101     1.0  0.11264  0.89157  0.59254  1.0000
  S   S203      1.0  0.11067  0.86764  0.61931  1.0000
  S   S204      1.0  0.11813  0.91550  0.60259  1.0000
  Fe  Fe102     1.0  0.12222  0.86263  0.57899  1.0000
  S   S205      1.0  0.14312  0.85310  0.56781  1.0000
  Fe  Fe103     1.0  0.08851  0.86008  0.60611  1.0000
  S   S206      1.0  0.06857  0.84377  0.64241  1.0000
  S   S207      1.0  0.12590  0.88708  0.55324  1.0000
  S   S208      1.0  0.08977  0.88435  0.58151  1.0000
  S   S209      1.0  0.99791  0.81317  0.64913  1.0000
  H   H822      1.0  0.16758  0.83759  0.56551  1.0000
  N   N51       1.0  0.12510  0.93307  0.51503  1.0000
  H   H823      1.0  0.16521  0.97765  0.91938  1.0000
  S   S210      1.0  0.11194  0.96440  0.95866  1.0000
  Fe  Fe104     1.0  0.08753  0.96640  0.95951  1.0000
  H   H824      1.0  0.99433  0.84674  0.68959  1.0000
  C   C500      1.0  0.12574  0.85886  0.50144  1.0000
  C   C501      1.0  0.22093  0.75703  0.52213  1.0000
  H   H825      1.0  0.01705  0.93059  0.90641  1.0000
  C   C502      1.0  0.22399  0.98801  0.76089  1.0000
  C   C503      1.0  0.13133  0.94911  0.71534  1.0000
  H   H826      1.0  0.14440  0.83095  0.49114  1.0000
  Fe  Fe105     1.0  0.00454  0.88010  0.92328  1.0000
  S   S211      1.0  0.02579  0.90151  0.91033  1.0000
  S   S212      1.0  0.00432  0.85452  0.93154  1.0000
  C   C504      1.0  0.05553  0.93302  0.95300  1.0000
  C   C505      1.0  0.05843  0.93598  0.92339  1.0000
  C   C506      1.0  0.04933  0.92614  0.91088  1.0000
  C   C507      1.0  0.03722  0.91314  0.92764  1.0000
  C   C508      1.0  0.03433  0.91018  0.95725  1.0000
  H   H827      1.0  0.00671  0.85579  0.75296  1.0000
  H   H828      1.0  0.06770  0.94583  0.91010  1.0000
  H   H829      1.0  0.05175  0.92860  0.88798  1.0000
  H   H830      1.0  0.13540  0.92341  0.69896  1.0000
  C   C509      1.0  0.22682  0.82019  0.72437  1.0000
  C   C510      1.0  0.04337  0.92006  0.96975  1.0000
  C   C511      1.0  0.22586  0.76591  0.54016  1.0000
  H   H831      1.0  0.14276  0.95761  0.64040  1.0000
  H   H832      1.0  0.19793  0.82959  0.70169  1.0000
  H   H833      1.0  0.21894  0.81627  0.74535  1.0000
  H   H834      1.0  0.13392  0.95840  0.72648  1.0000
  H   H835      1.0  0.11836  0.81941  0.52411  1.0000
  N   N52       1.0  0.99325  0.92596  0.92935  1.0000
  H   H836      1.0  0.98539  0.94287  0.94906  1.0000
  C   C512      1.0  0.04927  0.83486  0.64273  1.0000
  C   C513      1.0  0.04005  0.82319  0.66700  1.0000
  C   C514      1.0  0.02441  0.81630  0.66904  1.0000
  C   C515      1.0  0.01778  0.82105  0.64679  1.0000
  C   C516      1.0  0.02703  0.83257  0.62234  1.0000
  C   C517      1.0  0.04271  0.83945  0.62029  1.0000
  H   H837      1.0  0.04506  0.81948  0.68437  1.0000
  H   H838      1.0  0.01752  0.80729  0.68778  1.0000
  H   H839      1.0  0.02203  0.83629  0.60498  1.0000
  H   H840      1.0  0.04966  0.84842  0.60151  1.0000
  C   C518      1.0  0.13209  0.92412  0.61921  1.0000
  C   C519      1.0  0.14331  0.91692  0.62705  1.0000
  C   C520      1.0  0.15432  0.92439  0.63954  1.0000
  C   C521      1.0  0.15429  0.93912  0.64450  1.0000
  C   C522      1.0  0.14297  0.94628  0.63687  1.0000
  C   C523      1.0  0.13201  0.93884  0.62425  1.0000
  H   H841      1.0  0.14360  0.90564  0.62334  1.0000
  H   H842      1.0  0.16297  0.91869  0.64534  1.0000
  H   H843      1.0  0.14843  0.94131  0.51822  1.0000
  H   H844      1.0  0.12341  0.94456  0.61828  1.0000
  C   C524      1.0  0.21563  0.77260  0.55563  1.0000
  C   C525      1.0  0.20037  0.77023  0.55313  1.0000
  Fe  Fe106     1.0  0.19997  0.98414  0.70499  1.0000
  H   H845      1.0  0.19248  0.77560  0.56447  1.0000
  S   S213      1.0  0.16832  0.94765  0.66106  1.0000
  C   C526      1.0  0.14449  0.93309  0.74156  1.0000
  H   H846      1.0  0.17359  0.80861  0.71903  1.0000
  S   S214      1.0  0.99081  0.87805  0.89037  1.0000
  H   H847      1.0  0.17637  0.85096  0.69269  1.0000
  H   H848      1.0  0.17999  0.84553  0.64501  1.0000
  H   H849      1.0  0.00027  0.92466  0.96843  1.0000
  C   C527      1.0  0.98770  0.91519  0.91286  1.0000
  C   C528      1.0  0.22334  0.81330  0.70282  1.0000
  H   H850      1.0  0.15419  0.93534  0.72234  1.0000
  C   C529      1.0  0.15715  0.96809  0.93733  1.0000
  H   H851      1.0  0.08411  0.85880  0.49871  1.0000
  C   C530      1.0  0.14518  0.83664  0.59128  1.0000
  C   C531      1.0  0.13365  0.82862  0.61613  1.0000
  C   C532      1.0  0.13555  0.81545  0.63430  1.0000
  C   C533      1.0  0.14899  0.81024  0.62782  1.0000
  C   C534      1.0  0.16056  0.81827  0.60298  1.0000
  C   C535      1.0  0.15862  0.83142  0.58473  1.0000
  H   H852      1.0  0.12323  0.83252  0.62133  1.0000
  H   H853      1.0  0.12657  0.80928  0.65350  1.0000
  H   H854      1.0  0.17095  0.81433  0.59781  1.0000
  Fe  Fe107     1.0  0.16573  0.97997  0.73265  1.0000
  H   H855      1.0  0.12084  0.96278  0.82281  1.0000
  C   C536      1.0  0.14406  0.97719  0.80305  1.0000
  C   C537      1.0  0.00756  0.82820  0.74277  1.0000
  H   H856      1.0  0.20046  0.82558  0.66766  1.0000
  S   S215      1.0  0.10521  0.88865  0.49631  1.0000
  H   H857      1.0  0.11576  0.91893  0.77446  1.0000
  H   H858      1.0  0.99609  0.82114  0.75689  1.0000
  H   H859      1.0  0.11052  0.91201  0.54444  1.0000
  H   H860      1.0  0.98979  0.80984  0.84745  1.0000
  H   H861      1.0  0.11515  0.92179  0.71158  1.0000
  H   H862      1.0  0.18360  0.75951  0.53330  1.0000
  H   H863      1.0  0.99841  0.86275  0.72441  1.0000
  C   C538      1.0  0.13049  0.97108  0.82534  1.0000
  C   C539      1.0  0.20568  0.75470  0.51965  1.0000
  H   H864      1.0  0.17783  0.95874  0.96398  1.0000
  H   H865      1.0  0.23090  0.94195  0.77791  1.0000
  H   H866      1.0  0.10597  0.93089  0.75486  1.0000
  H   H867      1.0  0.16208  0.83055  0.65814  1.0000
  C   C540      1.0  0.23310  0.98876  0.73417  1.0000
  H   H868      1.0  0.13093  0.91337  0.50208  1.0000
  H   H869      1.0  0.02520  0.90021  0.97059  1.0000
  H   H870      1.0  0.13070  0.86191  0.51885  1.0000
  H   H871      1.0  0.13514  0.95611  0.48729  1.0000
  H   H872      1.0  0.15911  0.95683  0.93395  1.0000
  H   H873      1.0  0.01292  0.94503  0.92432  1.0000
  C   C541      1.0  0.17532  0.96995  0.96649  1.0000
  H   H874      1.0  0.12027  0.95494  0.51808  1.0000
  H   H875      1.0  0.00693  0.94403  0.89222  1.0000
  S   S216      1.0  0.09508  0.98755  0.92192  1.0000
  C   C542      1.0  0.23343  0.81858  0.67567  1.0000
  S   S217      1.0  0.14494  0.97113  0.77126  1.0000
  C   C543      1.0  0.14315  0.84262  0.49335  1.0000
  H   H876      1.0  0.02068  0.86123  0.68848  1.0000
  H   H877      1.0  0.12055  0.94983  0.70852  1.0000
  H   H878      1.0  0.11350  0.85954  0.50624  1.0000
  S   S218      1.0  0.19904  0.74309  0.49820  1.0000
  H   H879      1.0  0.14812  0.84496  0.51126  1.0000
  H   H880      1.0  0.99986  0.82873  0.69371  1.0000
  H   H881      1.0  0.13784  0.92280  0.54241  1.0000
  S   S219      1.0  0.15997  0.98514  0.69031  1.0000
  N   N53       1.0  0.17809  0.82900  0.68434  1.0000
  C   C544      1.0  0.02139  0.85074  0.70386  1.0000
  H   H882      1.0  0.23081  0.81342  0.65889  1.0000
  H   H883      1.0  0.14377  0.92154  0.75554  1.0000
  N   N54       1.0  0.00600  0.84196  0.72274  1.0000
  C   C545      1.0  0.19539  0.76124  0.53529  1.0000
  N   N55       1.0  0.12975  0.93355  0.73381  1.0000
  C   C546      1.0  0.19504  0.83251  0.68084  1.0000
  H   H884      1.0  0.99629  0.90857  0.90678  1.0000
  N   N56       1.0  0.12676  0.84319  0.49867  1.0000
  C   C547      1.0  0.15649  0.98786  0.80661  1.0000
  H   H885      1.0  0.18397  0.97953  0.94940  1.0000
  Fe  Fe108     1.0  0.17463  0.96923  0.67824  1.0000
  Fe  Fe109     1.0  0.11942  0.98629  0.92292  1.0000
  H   H886      1.0  0.11989  0.93949  0.77185  1.0000
  H   H887      1.0  0.01273  0.82043  0.73130  1.0000
  H   H888      1.0  0.17363  0.83543  0.72379  1.0000
  S   S220      1.0  0.99086  0.83598  0.87182  1.0000
  H   H889      1.0  0.13352  0.94024  0.54896  1.0000
  H   H890      1.0  0.12202  0.83362  0.54383  1.0000
  S   S221      1.0  0.19646  0.98900  0.66078  1.0000
  C   C548      1.0  0.11726  0.93055  0.75990  1.0000
  H   H891      1.0  0.20078  0.84505  0.67043  1.0000
  H   H892      1.0  0.14772  0.94208  0.75305  1.0000
  H   H893      1.0  0.10597  0.92926  0.55133  1.0000
  H   H894      1.0  0.15858  0.83580  0.70542  1.0000
  C   C549      1.0  0.17137  0.83822  0.70238  1.0000
  C   C550      1.0  0.17478  0.83299  0.65621  1.0000
  H   H895      1.0  0.21150  0.98517  0.76487  1.0000
  C   C551      1.0  0.10990  0.92381  0.53399  1.0000
  H   H896      1.0  0.17581  0.80498  0.68473  1.0000
  H   H897      1.0  0.14090  0.95192  0.69577  1.0000
  C   C552      1.0  0.12600  0.92155  0.71845  1.0000
  S   S222      1.0  0.06647  0.94508  0.97034  1.0000
  C   C553      1.0  0.12934  0.97554  0.85102  1.0000
  H   H898      1.0  0.11887  0.97064  0.86806  1.0000
  H   H899      1.0  0.13202  0.86807  0.48153  1.0000
  H   H900      1.0  0.00366  0.90969  0.95139  1.0000
  S   S223      1.0  0.22487  0.98503  0.70634  1.0000
  S   S224      1.0  0.17950  0.96324  0.72131  1.0000
  H   H901      1.0  0.12451  0.90962  0.73185  1.0000
  H   H902      1.0  0.02967  0.85466  0.71618  1.0000
  C   C554      1.0  0.99552  0.83675  0.70550  1.0000
  H   H903      1.0  0.14521  0.96822  0.93551  1.0000
  C   C555      1.0  0.17111  0.81221  0.69797  1.0000
  H   H904      1.0  0.17942  0.82600  0.64225  1.0000
  H   H905      1.0  0.15832  0.80905  0.70088  1.0000
  Fe  Fe110     1.0  0.98873  0.85228  0.90156  1.0000
  N   N57       1.0  0.15931  0.97011  0.96515  1.0000
  C   C556      1.0  0.14179  0.98618  0.85458  1.0000
  H   H906      1.0  0.14446  0.98551  0.96820  1.0000
  C   C557      1.0  0.13677  0.93447  0.53175  1.0000
  H   H907      1.0  0.10523  0.83140  0.52993  1.0000
  H   H908      1.0  0.02657  0.84349  0.69114  1.0000
  H   H909      1.0  0.10079  0.92223  0.52216  1.0000
  C   C558      1.0  0.12386  0.94876  0.50172  1.0000
  C   C559      1.0  0.23110  0.99057  0.78274  1.0000
  C   C560      1.0  0.99944  0.85209  0.73885  1.0000
  H   H910      1.0  0.98763  0.84590  0.75258  1.0000
  C   C561      1.0  0.00816  0.93693  0.91233  1.0000
  C   C562      1.0  0.11769  0.83138  0.52526  1.0000
  C   C563      1.0  0.12979  0.92521  0.49272  1.0000
  H   H911      1.0  0.22400  0.98965  0.80357  1.0000
  C   C564      1.0  0.15652  0.98517  0.96860  1.0000
  C   C565      1.0  0.99545  0.91692  0.95592  1.0000
  H   H912      1.0  0.22886  0.75184  0.51038  1.0000
  H   H913      1.0  0.01507  0.83164  0.75668  1.0000
  H   H914      1.0  0.98556  0.92148  0.89292  1.0000
  Fe  Fe111     1.0  0.39048  0.21666  0.23154  1.0000
  S   S225      1.0  0.37590  0.21643  0.27373  1.0000
  H   H915      1.0  0.43464  0.06518  0.25923  1.0000
  Fe  Fe112     1.0  0.39660  0.18562  0.25424  1.0000
  S   S226      1.0  0.38272  0.18293  0.29864  1.0000
  S   S227      1.0  0.41086  0.16923  0.24218  1.0000
  Fe  Fe113     1.0  0.36520  0.19113  0.27729  1.0000
  S   S228      1.0  0.33914  0.18173  0.29732  1.0000
  Fe  Fe114     1.0  0.39453  0.20833  0.29169  1.0000
  S   S229      1.0  0.40082  0.21780  0.32815  1.0000
  S   S230      1.0  0.37835  0.19210  0.23333  1.0000
  S   S231      1.0  0.40983  0.21035  0.24901  1.0000
  Fe  Fe115     1.0  0.40633  0.11336  0.14044  1.0000
  S   S232      1.0  0.40837  0.08959  0.16157  1.0000
  S   S233      1.0  0.39152  0.12705  0.16165  1.0000
  Fe  Fe116     1.0  0.42249  0.11211  0.08157  1.0000
  S   S234      1.0  0.42579  0.08852  0.09797  1.0000
  S   S235      1.0  0.43015  0.12125  0.03386  1.0000
  Fe  Fe117     1.0  0.40146  0.08248  0.12425  1.0000
  S   S236      1.0  0.38546  0.05915  0.12798  1.0000
  Fe  Fe118     1.0  0.43271  0.09764  0.13342  1.0000
  S   S237      1.0  0.45430  0.09063  0.14107  1.0000
  S   S238      1.0  0.39750  0.10544  0.10528  1.0000
  S   S239      1.0  0.43128  0.12201  0.11489  1.0000
  C   C566      1.0  0.45361  0.05633  0.29131  1.0000
  Fe  Fe119     1.0  0.33781  0.02722  0.03526  1.0000
  S   S240      1.0  0.32982  0.00810  0.07568  1.0000
  S   S241      1.0  0.35711  0.04927  0.02526  1.0000
  Fe  Fe120     1.0  0.31169  0.01246  0.01116  1.0000
  H   H916      1.0  0.26123  0.07818  0.18666  1.0000
  Fe  Fe121     1.0  0.30574  0.00994  0.07447  1.0000
  S   S242      1.0  0.28964  0.01427  0.11120  1.0000
  H   H917      1.0  0.39305  0.10520  0.99229  1.0000
  H   H918      1.0  0.39806  0.19340  0.15723  1.0000
  S   S243      1.0  0.31400  0.03028  0.03615  1.0000
  S   S244      1.0  0.33626  0.01111  0.00669  1.0000
  Fe  Fe122     1.0  0.26458  0.12677  0.27825  1.0000
  S   S245      1.0  0.25121  0.13694  0.30926  1.0000
  S   S246      1.0  0.29068  0.13441  0.25837  1.0000
  H   H919      1.0  0.28697  0.15746  0.29100  1.0000
  S   S247      1.0  0.24669  0.12388  0.25299  1.0000
  C   C567      1.0  0.26900  0.02136  0.03748  1.0000
  H   H920      1.0  0.43222  0.22480  0.29114  1.0000
  C   C568      1.0  0.47119  0.06060  0.24568  1.0000
  C   C569      1.0  0.47365  0.01177  0.23586  1.0000
  C   C570      1.0  0.44718  0.06803  0.24840  1.0000
  C   C571      1.0  0.24233  0.12703  0.45638  1.0000
  C   C572      1.0  0.44453  0.13895  0.02144  1.0000
  H   H921      1.0  0.25195  0.10190  0.17874  1.0000
  H   H922      1.0  0.43308  0.18157  0.17014  1.0000
  H   H923      1.0  0.40663  0.17725  0.16362  1.0000
  C   C573      1.0  0.45987  0.16188  0.03001  1.0000
  C   C574      1.0  0.44767  0.14828  0.03974  1.0000
  C   C575      1.0  0.24858  0.10737  0.43239  1.0000
  H   H924      1.0  0.46237  0.16903  0.04425  1.0000
  H   H925      1.0  0.44063  0.14510  0.06130  1.0000
  C   C576      1.0  0.37979  0.05643  0.09720  1.0000
  C   C577      1.0  0.38092  0.06913  0.07474  1.0000
  C   C578      1.0  0.37433  0.06678  0.05225  1.0000
  C   C579      1.0  0.36666  0.05173  0.05207  1.0000
  C   C580      1.0  0.36607  0.03900  0.07396  1.0000
  C   C581      1.0  0.37259  0.04134  0.09648  1.0000
  H   H926      1.0  0.38636  0.08080  0.07525  1.0000
  H   H927      1.0  0.37471  0.07669  0.03548  1.0000
  H   H928      1.0  0.36051  0.02733  0.07364  1.0000
  H   H929      1.0  0.37180  0.03147  0.11370  1.0000
  C   C582      1.0  0.46896  0.16617  0.00196  1.0000
  S   S248      1.0  0.39567  0.23551  0.19083  1.0000
  C   C583      1.0  0.46975  0.00410  0.29445  1.0000
  H   H930      1.0  0.45842  0.11941  0.05455  1.0000
  H   H931      1.0  0.26229  0.09527  0.24794  1.0000
  H   H932      1.0  0.24746  0.22139  0.11851  1.0000
  H   H933      1.0  0.25313  0.09727  0.43227  1.0000
  C   C584      1.0  0.45338  0.14345  0.99319  1.0000
  C   C585      1.0  0.46394  0.09528  0.16668  1.0000
  C   C586      1.0  0.45943  0.10489  0.18362  1.0000
  H   H934      1.0  0.24912  0.18331  0.16161  1.0000
  C   C587      1.0  0.24244  0.18992  0.17359  1.0000
  H   H935      1.0  0.44968  0.10967  0.18129  1.0000
  H   H936      1.0  0.46406  0.11573  0.21683  1.0000
  C   C588      1.0  0.41948  0.22684  0.33100  1.0000
  C   C589      1.0  0.23684  0.12648  0.41013  1.0000
  H   H937      1.0  0.37653  0.17408  0.39545  1.0000
  C   C590      1.0  0.25884  0.01285  0.12978  1.0000
  H   H938      1.0  0.47261  0.06060  0.22294  1.0000
  H   H939      1.0  0.48067  0.14262  0.03131  1.0000
  H   H940      1.0  0.28091  0.02346  0.02386  1.0000
  H   H941      1.0  0.28228  0.09646  0.23340  1.0000
  Fe  Fe123     1.0  0.32640  0.99198  0.04736  1.0000
  C   C591      1.0  0.40508  0.15677  0.22120  1.0000
  C   C592      1.0  0.41567  0.14944  0.20840  1.0000
  C   C593      1.0  0.41167  0.14014  0.19026  1.0000
  C   C594      1.0  0.39700  0.13811  0.18494  1.0000
  C   C595      1.0  0.38637  0.14531  0.19799  1.0000
  C   C596      1.0  0.39035  0.15455  0.21616  1.0000
  H   H942      1.0  0.42705  0.15102  0.21239  1.0000
  H   H943      1.0  0.41990  0.13457  0.18038  1.0000
  H   H944      1.0  0.37498  0.14371  0.19404  1.0000
  H   H945      1.0  0.38204  0.15999  0.22614  1.0000
  H   H946      1.0  0.30610  0.17539  0.30646  1.0000
  C   C597      1.0  0.37357  0.17944  0.37570  1.0000
  H   H947      1.0  0.33811  0.18315  0.40623  1.0000
  C   C598      1.0  0.32604  0.16967  0.28384  1.0000
  C   C599      1.0  0.33100  0.16066  0.26593  1.0000
  C   C600      1.0  0.32007  0.15022  0.25773  1.0000
  C   C601      1.0  0.30409  0.14873  0.26714  1.0000
  C   C602      1.0  0.29918  0.15814  0.28422  1.0000
  C   C603      1.0  0.31007  0.16838  0.29281  1.0000
  H   H948      1.0  0.34324  0.16148  0.25887  1.0000
  H   H949      1.0  0.32405  0.14309  0.24435  1.0000
  H   H950      1.0  0.46638  0.12377  0.10905  1.0000
  H   H951      1.0  0.28564  0.11847  0.17589  1.0000
  H   H952      1.0  0.25767  0.20643  0.11996  1.0000
  H   H953      1.0  0.37017  0.19568  0.41499  1.0000
  H   H954      1.0  0.47731  0.05231  0.25511  1.0000
  N   N58       1.0  0.45472  0.05641  0.26122  1.0000
  H   H955      1.0  0.36860  0.20334  0.33947  1.0000
  C   C604      1.0  0.46249  0.99316  0.28159  1.0000
  H   H956      1.0  0.45263  0.07993  0.24977  1.0000
  C   C605      1.0  0.44708  0.04074  0.25943  1.0000
  H   H957      1.0  0.24151  0.00340  0.07028  1.0000
  C   C606      1.0  0.27230  0.10097  0.22909  1.0000
  H   H958      1.0  0.42956  0.19315  0.19459  1.0000
  C   C607      1.0  0.24873  0.11432  0.45530  1.0000
  C   C608      1.0  0.25765  0.01666  0.99919  1.0000
  H   H959      1.0  0.24492  0.09893  0.21622  1.0000
  C   C609      1.0  0.48017  0.10205  0.20707  1.0000
  H   H960      1.0  0.44134  0.05315  0.30389  1.0000
  H   H961      1.0  0.38452  0.18734  0.36095  1.0000
  H   H962      1.0  0.34908  0.20135  0.35828  1.0000
  C   C610      1.0  0.35814  0.19492  0.35473  1.0000
  C   C611      1.0  0.43295  0.22909  0.30968  1.0000
  H   H963      1.0  0.44508  0.20110  0.16298  1.0000
  C   C612      1.0  0.25100  0.21253  0.13321  1.0000
  H   H964      1.0  0.40244  0.18719  0.19065  1.0000
  H   H965      1.0  0.45249  0.03173  0.26915  1.0000
  H   H966      1.0  0.27539  0.11368  0.22773  1.0000
  Fe  Fe124     1.0  0.23590  0.09987  0.28282  1.0000
  H   H967      1.0  0.23835  0.01904  0.04568  1.0000
  H   H968      1.0  0.45936  0.06800  0.29331  1.0000
  C   C613      1.0  0.46760  0.10833  0.20367  1.0000
  C   C614      1.0  0.42071  0.23235  0.35511  1.0000
  H   H969      1.0  0.26935  0.01686  0.05986  1.0000
  H   H970      1.0  0.39293  0.07969  0.98174  1.0000
  H   H971      1.0  0.27347  0.99661  0.01834  1.0000
  H   H972      1.0  0.40384  0.07523  0.00716  1.0000
  N   N59       1.0  0.29116  0.12223  0.35561  1.0000
  C   C615      1.0  0.29268  0.12442  0.38363  1.0000
  C   C616      1.0  0.30659  0.12743  0.33516  1.0000
  C   C617      1.0  0.28096  0.13153  0.34525  1.0000
  C   C618      1.0  0.28436  0.10557  0.35830  1.0000
  H   H973      1.0  0.28115  0.12079  0.39934  1.0000
  H   H974      1.0  0.29783  0.13688  0.38222  1.0000
  H   H975      1.0  0.30015  0.11743  0.39234  1.0000
  H   H976      1.0  0.31472  0.12083  0.34237  1.0000
  H   H977      1.0  0.30579  0.12574  0.31389  1.0000
  H   H978      1.0  0.31195  0.14005  0.33205  1.0000
  H   H979      1.0  0.26924  0.12803  0.36013  1.0000
  H   H980      1.0  0.27945  0.13002  0.32426  1.0000
  H   H981      1.0  0.28572  0.14418  0.34285  1.0000
  H   H982      1.0  0.27284  0.10118  0.37400  1.0000
  H   H983      1.0  0.29191  0.09819  0.36540  1.0000
  H   H984      1.0  0.28256  0.10363  0.33768  1.0000
  N   N60       1.0  0.32608  0.04173  0.13061  1.0000
  C   C619      1.0  0.33863  0.05240  0.13723  1.0000
  C   C620      1.0  0.32855  0.02589  0.13563  1.0000
  C   C621      1.0  0.32610  0.04737  0.10050  1.0000
  C   C622      1.0  0.31101  0.04123  0.14910  1.0000
  H   H985      1.0  0.33703  0.06441  0.13419  1.0000
  H   H986      1.0  0.35009  0.05336  0.12319  1.0000
  H   H987      1.0  0.33939  0.04828  0.15947  1.0000
  H   H988      1.0  0.31916  0.01752  0.13111  1.0000
  H   H989      1.0  0.33973  0.02577  0.12178  1.0000
  H   H990      1.0  0.32882  0.02130  0.15802  1.0000
  H   H991      1.0  0.31672  0.03964  0.09479  1.0000
  H   H992      1.0  0.33721  0.04767  0.08595  1.0000
  H   H993      1.0  0.32444  0.05935  0.09574  1.0000
  H   H994      1.0  0.30130  0.03317  0.14481  1.0000
  H   H995      1.0  0.30866  0.05293  0.14563  1.0000
  H   H996      1.0  0.31064  0.03704  0.17195  1.0000
  C   C623      1.0  0.36739  0.20048  0.39470  1.0000
  N   N61       1.0  0.47959  0.12442  0.06762  1.0000
  H   H997      1.0  0.25469  0.02809  0.99608  1.0000
  H   H998      1.0  0.35395  0.18587  0.34402  1.0000
  C   C624      1.0  0.34736  0.17707  0.40127  1.0000
  C   C625      1.0  0.46683  0.11339  0.06224  1.0000
  H   H999      1.0  0.35874  0.20726  0.39926  1.0000
  C   C626      1.0  0.46428  0.99699  0.25219  1.0000
  H   H1000     1.0  0.36969  0.17000  0.36558  1.0000
  S   S249      1.0  0.25499  0.10229  0.30564  1.0000
  H   H1001     1.0  0.26276  0.02359  0.13545  1.0000
  C   C627      1.0  0.48474  0.09257  0.18991  1.0000
  N   N62       1.0  0.36162  0.18799  0.38159  1.0000
  H   H1002     1.0  0.41987  0.20560  0.11361  1.0000
  H   H1003     1.0  0.43457  0.03721  0.27070  1.0000
  N   N63       1.0  0.42228  0.19977  0.15633  1.0000
  C   C628      1.0  0.40666  0.18895  0.16736  1.0000
  C   C629      1.0  0.43301  0.19365  0.17156  1.0000
  C   C630      1.0  0.42158  0.21523  0.16088  1.0000
  C   C631      1.0  0.42781  0.20118  0.12565  1.0000
  S   S250      1.0  0.24197  0.10358  0.38212  1.0000
  C   C632      1.0  0.26444  0.08095  0.20581  1.0000
  C   C633      1.0  0.28220  0.10564  0.17850  1.0000
  H   H1004     1.0  0.43955  0.20934  0.11651  1.0000
  H   H1005     1.0  0.46024  0.10415  0.08190  1.0000
  N   N64       1.0  0.25758  0.01030  0.02909  1.0000
  C   C634      1.0  0.40489  0.10585  0.99534  1.0000
  H   H1006     1.0  0.41730  0.21450  0.18385  1.0000
  H   H1007     1.0  0.41351  0.22020  0.14988  1.0000
  H   H1008     1.0  0.37820  0.20889  0.38044  1.0000
  H   H1009     1.0  0.42851  0.18967  0.12165  1.0000
  C   C635      1.0  0.23655  0.13313  0.43346  1.0000
  H   H1010     1.0  0.48023  0.08182  0.15663  1.0000
  C   C636      1.0  0.26971  0.00561  0.11762  1.0000
  H   H1011     1.0  0.25431  0.07482  0.22427  1.0000
  S   S251      1.0  0.48210  0.24126  0.40286  1.0000
  C   C637      1.0  0.42903  0.09901  0.98208  1.0000
  H   H1012     1.0  0.45943  0.04781  0.30141  1.0000
  H   H1013     1.0  0.44822  0.06869  0.22543  1.0000
  H   H1014     1.0  0.24991  0.19561  0.18563  1.0000
  C   C638      1.0  0.24259  0.11336  0.40969  1.0000
  H   H1015     1.0  0.34268  0.16755  0.39192  1.0000
  H   H1016     1.0  0.29241  0.10115  0.18145  1.0000
  H   H1017     1.0  0.47725  0.07238  0.24652  1.0000
  H   H1018     1.0  0.44801  0.04032  0.23694  1.0000
  H   H1019     1.0  0.27417  0.07578  0.20931  1.0000
  H   H1020     1.0  0.47121  0.10749  0.04601  1.0000
  C   C639      1.0  0.25533  0.10427  0.19800  1.0000
  H   H1021     1.0  0.47520  0.01485  0.21307  1.0000
  H   H1022     1.0  0.25807  0.11710  0.19534  1.0000
  H   H1023     1.0  0.25365  0.10974  0.47222  1.0000
  C   C640      1.0  0.24288  0.00641  0.13407  1.0000
  C   C641      1.0  0.26174  0.99523  0.03211  1.0000
  H   H1024     1.0  0.46804  0.00110  0.31728  1.0000
  C   C642      1.0  0.47664  0.08920  0.16981  1.0000
  H   H1025     1.0  0.46521  0.13901  0.08065  1.0000
  H   H1026     1.0  0.27979  0.10368  0.15828  1.0000
  C   C643      1.0  0.44739  0.23714  0.31217  1.0000
  N   N65       1.0  0.26857  0.09795  0.20285  1.0000
  H   H1027     1.0  0.43316  0.22374  0.15303  1.0000
  H   H1028     1.0  0.25898  0.21895  0.14359  1.0000
  C   C644      1.0  0.43516  0.24039  0.35759  1.0000
  H   H1029     1.0  0.40368  0.10067  0.01831  1.0000
  H   H1030     1.0  0.34955  0.17157  0.42176  1.0000
  C   C645      1.0  0.46561  0.15704  0.98346  1.0000
  S   S252      1.0  0.30147  0.99211  0.04962  1.0000
  C   C646      1.0  0.47908  0.01890  0.27815  1.0000
  Fe  Fe125     1.0  0.24065  0.11232  0.33596  1.0000
  C   C647      1.0  0.24195  0.00795  0.04756  1.0000
  H   H1031     1.0  0.42838  0.09386  0.00481  1.0000
  H   H1032     1.0  0.48376  0.10689  0.09942  1.0000
  C   C648      1.0  0.47312  0.13233  0.08856  1.0000
  H   H1033     1.0  0.41040  0.23064  0.37179  1.0000
  H   H1034     1.0  0.24919  0.00858  0.99218  1.0000
  C   C649      1.0  0.48117  0.02257  0.24864  1.0000
  H   H1035     1.0  0.26622  0.03284  0.03570  1.0000
  H   H1036     1.0  0.23624  0.21667  0.18225  1.0000
  H   H1037     1.0  0.41109  0.11840  0.99065  1.0000
  N   N66       1.0  0.23735  0.20146  0.15440  1.0000
  C   C650      1.0  0.40491  0.08111  0.98457  1.0000
  H   H1038     1.0  0.48241  0.14066  0.09329  1.0000
  H   H1039     1.0  0.26926  0.01853  0.98463  1.0000
  H   H1040     1.0  0.45769  0.23898  0.29537  1.0000
  C   C651      1.0  0.23776  0.99253  0.12674  1.0000
  S   S253      1.0  0.48493  0.18248  0.99097  1.0000
  Fe  Fe126     1.0  0.39023  0.19016  0.63514  1.0000
  S   S254      1.0  0.36955  0.19295  0.66491  1.0000
  S   S255      1.0  0.40438  0.17330  0.64728  1.0000
  S   S256      1.0  0.48338  0.05776  0.71828  1.0000
  Fe  Fe127     1.0  0.35773  0.19110  0.62953  1.0000
  S   S257      1.0  0.33344  0.17450  0.64145  1.0000
  C   C652      1.0  0.26858  0.16436  0.61335  1.0000
  S   S258      1.0  0.37794  0.18673  0.60116  1.0000
  H   H1041     1.0  0.30560  0.15079  0.64859  1.0000
  Fe  Fe128     1.0  0.40409  0.12048  0.78677  1.0000
  S   S259      1.0  0.39875  0.10440  0.83048  1.0000
  S   S260      1.0  0.38965  0.13731  0.77681  1.0000
  Fe  Fe129     1.0  0.43168  0.10873  0.76440  1.0000
  S   S261      1.0  0.42865  0.09189  0.80634  1.0000
  S   S262      1.0  0.44887  0.11139  0.72282  1.0000
  Fe  Fe130     1.0  0.40328  0.08628  0.80748  1.0000
  S   S263      1.0  0.38988  0.06074  0.82009  1.0000
  Fe  Fe131     1.0  0.42455  0.11159  0.82557  1.0000
  S   S264      1.0  0.43352  0.11594  0.86375  1.0000
  S   S265      1.0  0.40663  0.10185  0.76422  1.0000
  S   S266      1.0  0.42951  0.12893  0.78324  1.0000
  H   H1042     1.0  0.40920  0.07015  0.76199  1.0000
  Fe  Fe132     1.0  0.31479  0.01372  0.79201  1.0000
  H   H1043     1.0  0.40931  0.02903  0.76444  1.0000
  S   S267      1.0  0.33057  0.03835  0.77547  1.0000
  H   H1044     1.0  0.27945  0.18859  0.56714  1.0000
  H   H1045     1.0  0.47330  0.20206  0.86368  1.0000
  H   H1046     1.0  0.44670  0.14429  0.72130  1.0000
  H   H1047     1.0  0.25132  0.18064  0.63787  1.0000
  H   H1048     1.0  0.33542  0.03216  0.86094  1.0000
  S   S268      1.0  0.29440  0.00828  0.82972  1.0000
  H   H1049     1.0  0.46839  0.16759  0.69708  1.0000
  C   C653      1.0  0.41076  0.05401  0.72255  1.0000
  Fe  Fe133     1.0  0.27257  0.13861  0.56065  1.0000
  S   S269      1.0  0.29720  0.15374  0.55261  1.0000
  H   H1050     1.0  0.42705  0.06840  0.77048  1.0000
  C   C654      1.0  0.28998  0.18496  0.61400  1.0000
  C   C655      1.0  0.43999  0.22791  0.52329  1.0000
  C   C656      1.0  0.30063  0.00557  0.95192  1.0000
  C   C657      1.0  0.29461  0.00901  0.92825  1.0000
  H   H1051     1.0  0.48014  0.08234  0.67327  1.0000
  H   H1052     1.0  0.47001  0.14910  0.90115  1.0000
  C   C658      1.0  0.35765  0.04742  0.88141  1.0000
  H   H1053     1.0  0.28957  0.01883  0.92486  1.0000
  H   H1054     1.0  0.42809  0.24164  0.57673  1.0000
  H   H1055     1.0  0.47249  0.16038  0.96172  1.0000
  H   H1056     1.0  0.47259  0.20039  0.82888  1.0000
  C   C659      1.0  0.44867  0.13256  0.86052  1.0000
  C   C660      1.0  0.45399  0.13459  0.88451  1.0000
  C   C661      1.0  0.29533  0.99995  0.90855  1.0000
  C   C662      1.0  0.41400  0.22974  0.52172  1.0000
  H   H1057     1.0  0.23903  0.04699  0.60500  1.0000
  C   C663      1.0  0.45546  0.14377  0.83461  1.0000
  H   H1058     1.0  0.44889  0.12596  0.90462  1.0000
  Fe  Fe134     1.0  0.28076  0.99528  0.80491  1.0000
  Fe  Fe135     1.0  0.24940  0.10637  0.57894  1.0000
  H   H1059     1.0  0.45153  0.14237  0.81599  1.0000
  C   C664      1.0  0.37372  0.05467  0.80676  1.0000
  C   C665      1.0  0.36606  0.03874  0.81402  1.0000
  C   C666      1.0  0.35281  0.03356  0.80465  1.0000
  C   C667      1.0  0.34719  0.04428  0.78770  1.0000
  C   C668      1.0  0.35501  0.06018  0.78013  1.0000
  C   C669      1.0  0.36817  0.06538  0.78971  1.0000
  H   H1060     1.0  0.37033  0.03036  0.82707  1.0000
  H   H1061     1.0  0.34695  0.02128  0.81044  1.0000
  H   H1062     1.0  0.35075  0.06854  0.76702  1.0000
  H   H1063     1.0  0.37391  0.07769  0.78410  1.0000
  S   S270      1.0  0.25461  0.15066  0.54868  1.0000
  H   H1064     1.0  0.44139  0.05082  0.75058  1.0000
  C   C670      1.0  0.34512  0.02673  0.92416  1.0000
  C   C671      1.0  0.41486  0.10504  0.94695  1.0000
  Fe  Fe136     1.0  0.24747  0.13098  0.52854  1.0000
  C   C672      1.0  0.46759  0.07524  0.74503  1.0000
  C   C673      1.0  0.45984  0.08701  0.74643  1.0000
  C   C674      1.0  0.45928  0.09709  0.72149  1.0000
  C   C675      1.0  0.46681  0.09550  0.69510  1.0000
  Fe  Fe137     1.0  0.38626  0.21276  0.58472  1.0000
  S   S271      1.0  0.24713  0.08029  0.59322  1.0000
  H   H1065     1.0  0.45441  0.08834  0.76684  1.0000
  H   H1066     1.0  0.35636  0.05470  0.86148  1.0000
  C   C676      1.0  0.48107  0.99542  0.61445  1.0000
  S   S272      1.0  0.37876  0.23875  0.66421  1.0000
  S   S273      1.0  0.25565  0.99556  0.80670  1.0000
  H   H1067     1.0  0.41950  0.21606  0.55733  1.0000
  C   C677      1.0  0.39978  0.16323  0.68332  1.0000
  C   C678      1.0  0.39213  0.16900  0.70449  1.0000
  C   C679      1.0  0.38885  0.16085  0.73319  1.0000
  C   C680      1.0  0.39342  0.14705  0.74079  1.0000
  C   C681      1.0  0.40082  0.14116  0.71957  1.0000
  C   C682      1.0  0.40392  0.14920  0.69089  1.0000
  H   H1068     1.0  0.38908  0.17992  0.69888  1.0000
  H   H1069     1.0  0.38311  0.16544  0.74959  1.0000
  H   H1070     1.0  0.40405  0.13035  0.72528  1.0000
  H   H1071     1.0  0.40940  0.14444  0.67454  1.0000
  C   C683      1.0  0.32411  0.16803  0.61633  1.0000
  C   C684      1.0  0.32994  0.17478  0.58712  1.0000
  C   C685      1.0  0.32173  0.16996  0.56794  1.0000
  C   C686      1.0  0.30763  0.15835  0.57765  1.0000
  C   C687      1.0  0.30199  0.15130  0.60684  1.0000
  C   C688      1.0  0.31017  0.15616  0.62605  1.0000
  H   H1072     1.0  0.34066  0.18389  0.57928  1.0000
  H   H1073     1.0  0.32626  0.17545  0.54542  1.0000
  H   H1074     1.0  0.29129  0.14218  0.61460  1.0000
  N   N67       1.0  0.35168  0.14165  0.68651  1.0000
  C   C689      1.0  0.35904  0.13073  0.70196  1.0000
  C   C690      1.0  0.36212  0.14987  0.65814  1.0000
  C   C691      1.0  0.34872  0.15313  0.70271  1.0000
  C   C692      1.0  0.33687  0.13293  0.68314  1.0000
  H   H1075     1.0  0.35151  0.12433  0.72352  1.0000
  H   H1076     1.0  0.37021  0.13703  0.70485  1.0000
  H   H1077     1.0  0.36157  0.12195  0.69031  1.0000
  H   H1078     1.0  0.35678  0.15789  0.64560  1.0000
  H   H1079     1.0  0.37319  0.15701  0.65979  1.0000
  H   H1080     1.0  0.36504  0.14160  0.64554  1.0000
  H   H1081     1.0  0.34329  0.16165  0.69154  1.0000
  H   H1082     1.0  0.35967  0.15990  0.70565  1.0000
  H   H1083     1.0  0.34083  0.14736  0.72420  1.0000
  H   H1084     1.0  0.32867  0.12656  0.70409  1.0000
  H   H1085     1.0  0.33870  0.12426  0.67078  1.0000
  H   H1086     1.0  0.33109  0.14095  0.67156  1.0000
  S   S274      1.0  0.36513  0.21707  0.61070  1.0000
  H   H1087     1.0  0.46647  0.10329  0.67569  1.0000
  H   H1088     1.0  0.31971  0.03626  0.91760  1.0000
  H   H1089     1.0  0.27577  0.20336  0.58487  1.0000
  H   H1090     1.0  0.41702  0.06382  0.70347  1.0000
  H   H1091     1.0  0.36850  0.22947  0.79658  1.0000
  S   S275      1.0  0.30051  0.00262  0.76580  1.0000
  C   C693      1.0  0.48388  0.23108  0.80252  1.0000
  H   H1092     1.0  0.40838  0.23246  0.67001  1.0000
  H   H1093     1.0  0.26677  0.19664  0.63713  1.0000
  H   H1094     1.0  0.29171  0.17762  0.63340  1.0000
  H   H1095     1.0  0.35384  0.02005  0.91933  1.0000
  H   H1096     1.0  0.44774  0.22339  0.53466  1.0000
  H   H1097     1.0  0.46102  0.21137  0.84593  1.0000
  H   H1098     1.0  0.26997  0.15665  0.63269  1.0000
  H   H1099     1.0  0.39753  0.23739  0.77897  1.0000
  H   H1100     1.0  0.25617  0.16090  0.61313  1.0000
  H   H1101     1.0  0.42111  0.11763  0.94075  1.0000
  C   C694      1.0  0.33765  0.02558  0.88059  1.0000
  S   S276      1.0  0.39412  0.22573  0.53828  1.0000
  Fe  Fe138     1.0  0.37896  0.21862  0.64330  1.0000
  H   H1102     1.0  0.33413  0.01817  0.93725  1.0000
  H   H1103     1.0  0.23517  0.10247  0.51802  1.0000
  H   H1104     1.0  0.47279  0.23460  0.80465  1.0000
  C   C695      1.0  0.47457  0.08367  0.69368  1.0000
  H   H1105     1.0  0.39865  0.04157  0.77844  1.0000
  C   C696      1.0  0.44601  0.23781  0.49575  1.0000
  S   S277      1.0  0.25712  0.12384  0.60277  1.0000
  H   H1106     1.0  0.29406  0.19737  0.61414  1.0000
  S   S278      1.0  0.26658  0.12015  0.53746  1.0000
  H   H1107     1.0  0.45504  0.17845  0.68717  1.0000
  H   H1108     1.0  0.32674  0.01660  0.89261  1.0000
  H   H1109     1.0  0.25156  0.05513  0.66667  1.0000
  H   H1110     1.0  0.44184  0.06146  0.71567  1.0000
  H   H1111     1.0  0.39897  0.05559  0.73018  1.0000
  C   C697      1.0  0.42076  0.06833  0.75352  1.0000
  H   H1112     1.0  0.43417  0.04066  0.72673  1.0000
  H   H1113     1.0  0.46832  0.14254  0.68434  1.0000
  C   C698      1.0  0.43480  0.05152  0.73401  1.0000
  N   N68       1.0  0.41922  0.05356  0.74497  1.0000
  C   C699      1.0  0.26380  0.18406  0.63745  1.0000
  H   H1114     1.0  0.48416  0.22357  0.78745  1.0000
  N   N69       1.0  0.34287  0.03605  0.89788  1.0000
  H   H1115     1.0  0.47262  0.16538  0.81248  1.0000
  C   C700      1.0  0.24832  0.04797  0.68914  1.0000
  H   H1116     1.0  0.23896  0.02139  0.73006  1.0000
  H   H1117     1.0  0.29776  0.18315  0.59532  1.0000
  N   N70       1.0  0.27362  0.18102  0.61275  1.0000
  H   H1118     1.0  0.36686  0.04149  0.87514  1.0000
  H   H1119     1.0  0.25796  0.04251  0.69217  1.0000
  H   H1120     1.0  0.42721  0.07856  0.73531  1.0000
  C   C701      1.0  0.47278  0.15887  0.85659  1.0000
  C   C702      1.0  0.42403  0.22380  0.53619  1.0000
  H   H1121     1.0  0.41638  0.04003  0.78753  1.0000
  C   C703      1.0  0.27215  0.19071  0.58610  1.0000
  H   H1122     1.0  0.40933  0.04301  0.71560  1.0000
  H   H1123     1.0  0.34912  0.03425  0.93770  1.0000
  H   H1124     1.0  0.45217  0.16740  0.63437  1.0000
  H   H1125     1.0  0.26001  0.18802  0.58425  1.0000
  H   H1126     1.0  0.32911  0.05169  0.88600  1.0000
  H   H1127     1.0  0.46786  0.06742  0.76446  1.0000
  C   C704      1.0  0.46743  0.15684  0.83269  1.0000
  H   H1128     1.0  0.26509  0.17729  0.65783  1.0000
  S   S279      1.0  0.40052  0.21590  0.61598  1.0000
  H   H1129     1.0  0.33449  0.05234  0.91872  1.0000
  H   H1130     1.0  0.24767  0.05609  0.70306  1.0000
  C   C705      1.0  0.24729  0.99386  0.77805  1.0000
  H   H1131     1.0  0.36202  0.05548  0.89376  1.0000
  H   H1132     1.0  0.45482  0.13516  0.66585  1.0000
  C   C706      1.0  0.41997  0.23953  0.49407  1.0000
  N   N71       1.0  0.45220  0.15631  0.67706  1.0000
  C   C707      1.0  0.44395  0.16072  0.65516  1.0000
  C   C708      1.0  0.46196  0.14613  0.66822  1.0000
  C   C709      1.0  0.44083  0.14786  0.70439  1.0000
  C   C710      1.0  0.46208  0.17052  0.68056  1.0000
  C   C711      1.0  0.47484  0.07344  0.71870  1.0000
  H   H1133     1.0  0.43617  0.16811  0.66141  1.0000
  Fe  Fe139     1.0  0.23880  0.13488  0.58967  1.0000
  H   H1134     1.0  0.27542  0.16175  0.59455  1.0000
  H   H1135     1.0  0.42144  0.09939  0.93253  1.0000
  H   H1136     1.0  0.47066  0.15202  0.64759  1.0000
  C   C712      1.0  0.41052  0.04043  0.76989  1.0000
  H   H1137     1.0  0.43323  0.13699  0.70264  1.0000
  H   H1138     1.0  0.43325  0.15514  0.71191  1.0000
  H   H1139     1.0  0.24359  0.01877  0.68093  1.0000
  H   H1140     1.0  0.29069  0.00269  0.89036  1.0000
  C   C713      1.0  0.46599  0.14769  0.88259  1.0000
  C   C714      1.0  0.33104  0.04449  0.90535  1.0000
  H   H1141     1.0  0.43664  0.15025  0.65156  1.0000
  H   H1142     1.0  0.43582  0.09298  0.96889  1.0000
  H   H1143     1.0  0.47394  0.23684  0.85308  1.0000
  H   H1144     1.0  0.34643  0.01927  0.87396  1.0000
  H   H1145     1.0  0.47087  0.17717  0.66039  1.0000
  S   S280      1.0  0.32259  0.99233  0.80730  1.0000
  C   C715      1.0  0.47247  0.20860  0.84271  1.0000
  H   H1146     1.0  0.40331  0.10418  0.94234  1.0000
  S   S281      1.0  0.30065  0.01791  0.97489  1.0000
  C   C716      1.0  0.36830  0.24094  0.78348  1.0000
  C   C717      1.0  0.30706  0.99283  0.95623  1.0000
  H   H1147     1.0  0.26887  0.99796  0.74702  1.0000
  H   H1148     1.0  0.36673  0.23928  0.76257  1.0000
  S   S282      1.0  0.24049  0.13527  0.48619  1.0000
  H   H1149     1.0  0.25293  0.24079  0.78313  1.0000
  H   H1150     1.0  0.41088  0.07466  0.97106  1.0000
  H   H1151     1.0  0.23874  0.03203  0.65407  1.0000
  H   H1152     1.0  0.24031  0.08490  0.51339  1.0000
  C   C718      1.0  0.25638  0.99514  0.75103  1.0000
  H   H1153     1.0  0.25641  0.99317  0.70858  1.0000
  C   C719      1.0  0.24930  0.99246  0.72928  1.0000
  H   H1154     1.0  0.43573  0.11142  0.97675  1.0000
  N   N72       1.0  0.41341  0.09775  0.97721  1.0000
  H   H1155     1.0  0.45097  0.13636  0.97886  1.0000
  C   C720      1.0  0.48496  0.23322  0.84967  1.0000
  H   H1156     1.0  0.24983  0.40819  0.23024  1.0000
  S   S283      1.0  0.46638  0.25577  0.33519  1.0000
  H   H1157     1.0  0.33772  0.48878  0.01018  1.0000
  H   H1158     1.0  0.27210  0.43054  0.20215  1.0000
  C   C721      1.0  0.40442  0.25446  0.19204  1.0000
  Fe  Fe140     1.0  0.42447  0.32461  0.16176  1.0000
  S   S284      1.0  0.41066  0.33979  0.17957  1.0000
  S   S285      1.0  0.42577  0.30413  0.19520  1.0000
  Fe  Fe141     1.0  0.43189  0.34498  0.10178  1.0000
  S   S286      1.0  0.41795  0.36106  0.11540  1.0000
  S   S287      1.0  0.44413  0.35305  0.05510  1.0000
  Fe  Fe142     1.0  0.42985  0.35998  0.15092  1.0000
  S   S288      1.0  0.43922  0.38366  0.15826  1.0000
  Fe  Fe143     1.0  0.40024  0.33939  0.14239  1.0000
  S   S289      1.0  0.37407  0.33512  0.15251  1.0000
  S   S290      1.0  0.44465  0.34489  0.13599  1.0000
  S   S291      1.0  0.41310  0.32317  0.12588  1.0000
  Fe  Fe144     1.0  0.29688  0.45787  0.16454  1.0000
  S   S292      1.0  0.30637  0.44259  0.19409  1.0000
  S   S293      1.0  0.27360  0.46287  0.17744  1.0000
  Fe  Fe145     1.0  0.32496  0.46425  0.11541  1.0000
  S   S294      1.0  0.33686  0.44933  0.14098  1.0000
  H   H1159     1.0  0.43152  0.26277  0.26735  1.0000
  Fe  Fe146     1.0  0.31330  0.43244  0.15744  1.0000
  S   S295      1.0  0.30847  0.40613  0.16652  1.0000
  Fe  Fe147     1.0  0.32902  0.46089  0.17517  1.0000
  S   S296      1.0  0.34256  0.46778  0.20620  1.0000
  S   S297      1.0  0.30204  0.44643  0.12916  1.0000
  S   S298      1.0  0.31890  0.47713  0.14831  1.0000
  Fe  Fe148     1.0  0.27539  0.31248  0.09490  1.0000
  S   S299      1.0  0.29101  0.30679  0.05954  1.0000
  S   S300      1.0  0.25437  0.29534  0.12727  1.0000
  Fe  Fe149     1.0  0.29097  0.34763  0.07372  1.0000
  S   S301      1.0  0.30756  0.34441  0.03686  1.0000
  S   S302      1.0  0.29210  0.37299  0.07230  1.0000
  Fe  Fe150     1.0  0.28730  0.32776  0.03124  1.0000
  H   H1160     1.0  0.35038  0.28528  0.17527  1.0000
  Fe  Fe151     1.0  0.31001  0.32402  0.06848  1.0000
  S   S303      1.0  0.33457  0.32146  0.06464  1.0000
  S   S304      1.0  0.27045  0.33232  0.06604  1.0000
  S   S305      1.0  0.29468  0.32831  0.10601  1.0000
  H   H1161     1.0  0.26334  0.27783  0.04111  1.0000
  C   C722      1.0  0.24624  0.25640  0.09844  1.0000
  C   C723      1.0  0.25371  0.27035  0.10347  1.0000
  H   H1162     1.0  0.26595  0.27548  0.09390  1.0000
  H   H1163     1.0  0.23690  0.30328  0.03141  1.0000
  C   C724      1.0  0.25654  0.42682  0.14281  1.0000
  C   C725      1.0  0.44856  0.24306  0.33590  1.0000
  C   C726      1.0  0.45250  0.31256  0.00023  1.0000
  S   S306      1.0  0.46958  0.27318  0.40513  1.0000
  H   H1164     1.0  0.44876  0.32312  0.00366  1.0000
  C   C727      1.0  0.48441  0.33318  0.02314  1.0000
  H   H1165     1.0  0.25279  0.25096  0.08461  1.0000
  H   H1166     1.0  0.40317  0.48446  0.24286  1.0000
  H   H1167     1.0  0.25538  0.29256  0.05342  1.0000
  H   H1168     1.0  0.27173  0.39579  0.15879  1.0000
  H   H1169     1.0  0.46677  0.36152  0.00178  1.0000
  H   H1170     1.0  0.25645  0.46010  0.31595  1.0000
  C   C728      1.0  0.25189  0.27964  0.99500  1.0000
  C   C729      1.0  0.30434  0.39702  0.14001  1.0000
  C   C730      1.0  0.29934  0.38069  0.14670  1.0000
  C   C731      1.0  0.29564  0.37310  0.12608  1.0000
  C   C732      1.0  0.29684  0.38187  0.09873  1.0000
  C   C733      1.0  0.30185  0.39819  0.09205  1.0000
  C   C734      1.0  0.30567  0.40576  0.11258  1.0000
  H   H1171     1.0  0.29823  0.37389  0.16798  1.0000
  H   H1172     1.0  0.29168  0.36052  0.13144  1.0000
  H   H1173     1.0  0.30287  0.40502  0.07083  1.0000
  H   H1174     1.0  0.30966  0.41834  0.10716  1.0000
  C   C735      1.0  0.45968  0.34539  0.04332  1.0000
  H   H1175     1.0  0.46167  0.31137  0.01169  1.0000
  H   H1176     1.0  0.43713  0.29889  0.25060  1.0000
  H   H1177     1.0  0.27935  0.41557  0.15895  1.0000
  C   C736      1.0  0.46284  0.33306  0.06121  1.0000
  H   H1178     1.0  0.24231  0.46661  0.29947  1.0000
  H   H1179     1.0  0.39032  0.30440  0.17608  1.0000
  H   H1180     1.0  0.45565  0.32807  0.08269  1.0000
  C   C737      1.0  0.36330  0.33086  0.12806  1.0000
  C   C738      1.0  0.34710  0.32808  0.13622  1.0000
  C   C739      1.0  0.33812  0.32509  0.11709  1.0000
  C   C740      1.0  0.34529  0.32469  0.08971  1.0000
  C   C741      1.0  0.36146  0.32707  0.08183  1.0000
  C   C742      1.0  0.37046  0.33022  0.10087  1.0000
  H   H1181     1.0  0.34147  0.32839  0.15735  1.0000
  H   H1182     1.0  0.32566  0.32305  0.12353  1.0000
  H   H1183     1.0  0.36707  0.32668  0.06073  1.0000
  H   H1184     1.0  0.38292  0.33225  0.09441  1.0000
  H   H1185     1.0  0.24811  0.38873  0.14154  1.0000
  H   H1186     1.0  0.25847  0.43270  0.32045  1.0000
  H   H1187     1.0  0.43584  0.24496  0.37586  1.0000
  H   H1188     1.0  0.28142  0.42326  0.10721  1.0000
  H   H1189     1.0  0.23621  0.45268  0.33354  1.0000
  H   H1190     1.0  0.47107  0.37570  0.12386  1.0000
  C   C743      1.0  0.46006  0.48827  0.25685  1.0000
  C   C744      1.0  0.42211  0.47156  0.21098  1.0000
  C   C745      1.0  0.25553  0.44855  0.27068  1.0000
  H   H1191     1.0  0.38815  0.29621  0.21298  1.0000
  H   H1192     1.0  0.35031  0.39645  0.09265  1.0000
  H   H1193     1.0  0.35558  0.30405  0.18222  1.0000
  H   H1194     1.0  0.36385  0.26517  0.19020  1.0000
  N   N73       1.0  0.24628  0.28476  0.02066  1.0000
  C   C746      1.0  0.33117  0.36351  0.07932  1.0000
  C   C747      1.0  0.31184  0.49000  0.06880  1.0000
  H   H1195     1.0  0.48135  0.41324  0.06898  1.0000
  C   C748      1.0  0.47303  0.41018  0.18296  1.0000
  C   C749      1.0  0.35764  0.37049  0.08251  1.0000
  H   H1196     1.0  0.34725  0.27355  0.22707  1.0000
  C   C750      1.0  0.46394  0.37902  0.18085  1.0000
  C   C751      1.0  0.45529  0.38934  0.17221  1.0000
  C   C752      1.0  0.45989  0.40491  0.17337  1.0000
  H   H1197     1.0  0.47544  0.37597  0.04776  1.0000
  H   H1198     1.0  0.46049  0.36699  0.18016  1.0000
  H   H1199     1.0  0.45327  0.41297  0.16674  1.0000
  C   C753      1.0  0.24320  0.44907  0.20485  1.0000
  H   H1200     1.0  0.32494  0.36857  0.13150  1.0000
  H   H1201     1.0  0.47247  0.28465  0.25090  1.0000
  C   C754      1.0  0.47460  0.48710  0.21100  1.0000
  C   C755      1.0  0.32435  0.48640  0.05253  1.0000
  C   C756      1.0  0.41333  0.27281  0.21814  1.0000
  C   C757      1.0  0.41748  0.28514  0.19350  1.0000
  C   C758      1.0  0.41507  0.28211  0.16809  1.0000
  C   C759      1.0  0.40862  0.26677  0.16735  1.0000
  H   H1202     1.0  0.41497  0.27512  0.23792  1.0000
  H   H1203     1.0  0.41841  0.29151  0.14892  1.0000
  H   H1204     1.0  0.40682  0.26446  0.14763  1.0000
  H   H1205     1.0  0.38169  0.27842  0.16826  1.0000
  C   C760      1.0  0.33664  0.36698  0.12346  1.0000
  H   H1206     1.0  0.40053  0.46762  0.18183  1.0000
  C   C761      1.0  0.25817  0.44696  0.19793  1.0000
  C   C762      1.0  0.26057  0.43222  0.20722  1.0000
  C   C763      1.0  0.24796  0.41959  0.22299  1.0000
  C   C764      1.0  0.27020  0.41454  0.11083  1.0000
  H   H1207     1.0  0.47559  0.39646  0.11770  1.0000
  H   H1208     1.0  0.36198  0.37449  0.05897  1.0000
  H   H1209     1.0  0.33082  0.35091  0.08493  1.0000
  H   H1210     1.0  0.48385  0.37630  0.19676  1.0000
  H   H1211     1.0  0.45759  0.30326  0.23524  1.0000
  H   H1212     1.0  0.34463  0.37338  0.13386  1.0000
  N   N74       1.0  0.24382  0.44339  0.29832  1.0000
  H   H1213     1.0  0.26121  0.40439  0.18301  1.0000
  H   H1214     1.0  0.46327  0.26759  0.27940  1.0000
  C   C765      1.0  0.48177  0.39992  0.19137  1.0000
  H   H1215     1.0  0.33457  0.36764  0.05571  1.0000
  H   H1216     1.0  0.38002  0.26990  0.20504  1.0000
  H   H1217     1.0  0.33591  0.35437  0.13087  1.0000
  H   H1218     1.0  0.31914  0.36446  0.08665  1.0000
  H   H1219     1.0  0.44229  0.29609  0.29893  1.0000
  H   H1220     1.0  0.37833  0.31085  0.20190  1.0000
  H   H1221     1.0  0.36824  0.29921  0.15487  1.0000
  H   H1222     1.0  0.45462  0.39702  0.09289  1.0000
  N   N75       1.0  0.47447  0.38821  0.08046  1.0000
  N   N76       1.0  0.26024  0.41205  0.13962  1.0000
  C   C766      1.0  0.47813  0.38684  0.10834  1.0000
  H   H1223     1.0  0.35835  0.48455  0.23920  1.0000
  S   S307      1.0  0.33571  0.47580  0.06888  1.0000
  H   H1224     1.0  0.23919  0.40365  0.12808  1.0000
  C   C767      1.0  0.47515  0.32693  0.05107  1.0000
  H   H1225     1.0  0.44052  0.25117  0.45980  1.0000
  H   H1226     1.0  0.36337  0.27784  0.24236  1.0000
  C   C768      1.0  0.36027  0.29437  0.17658  1.0000
  H   H1227     1.0  0.44463  0.28769  0.22807  1.0000
  H   H1228     1.0  0.24131  0.46047  0.19765  1.0000
  H   H1229     1.0  0.26709  0.43590  0.14173  1.0000
  H   H1230     1.0  0.46274  0.30023  0.28302  1.0000
  C   C769      1.0  0.24536  0.27762  0.12098  1.0000
  H   H1231     1.0  0.23684  0.26117  0.04663  1.0000
  C   C770      1.0  0.47716  0.38432  0.19026  1.0000
  H   H1232     1.0  0.35352  0.29258  0.23255  1.0000
  H   H1233     1.0  0.47643  0.42220  0.18374  1.0000
  C   C771      1.0  0.35763  0.28276  0.22615  1.0000
  C   C772      1.0  0.25906  0.28828  0.03435  1.0000
  N   N77       1.0  0.36835  0.28808  0.19746  1.0000
  C   C773      1.0  0.47070  0.48216  0.24068  1.0000
  H   H1234     1.0  0.33065  0.39116  0.09051  1.0000
  H   H1235     1.0  0.43429  0.26213  0.30219  1.0000
  C   C774      1.0  0.24475  0.45625  0.31242  1.0000
  H   H1236     1.0  0.42378  0.27496  0.28762  1.0000
  H   H1237     1.0  0.25121  0.43168  0.12592  1.0000
  H   H1238     1.0  0.35773  0.35802  0.08889  1.0000
  H   H1239     1.0  0.36609  0.37709  0.09186  1.0000
  H   H1240     1.0  0.24820  0.42513  0.16356  1.0000
  H   H1241     1.0  0.30879  0.48589  0.09173  1.0000
  C   C775      1.0  0.39881  0.47487  0.19712  1.0000
  H   H1242     1.0  0.45316  0.28268  0.31052  1.0000
  Fe  Fe152     1.0  0.47691  0.25521  0.43455  1.0000
  C   C776      1.0  0.24676  0.42979  0.31652  1.0000
  H   H1243     1.0  0.40354  0.24807  0.23661  1.0000
  H   H1244     1.0  0.25338  0.45845  0.25593  1.0000
  N   N78       1.0  0.34194  0.37256  0.09215  1.0000
  Fe  Fe153     1.0  0.47640  0.26009  0.37252  1.0000
  C   C777      1.0  0.40681  0.25750  0.21745  1.0000
  C   C778      1.0  0.37369  0.27481  0.18992  1.0000
  H   H1245     1.0  0.34609  0.39387  0.05983  1.0000
  C   C779      1.0  0.34231  0.38925  0.08335  1.0000
  C   C780      1.0  0.47806  0.37527  0.06882  1.0000
  N   N79       1.0  0.44848  0.28249  0.26989  1.0000
  C   C781      1.0  0.46136  0.27555  0.26095  1.0000
  C   C782      1.0  0.43388  0.27006  0.28222  1.0000
  C   C783      1.0  0.44690  0.29357  0.24492  1.0000
  C   C784      1.0  0.45180  0.29078  0.29150  1.0000
  H   H1246     1.0  0.25542  0.43896  0.25995  1.0000
  H   H1247     1.0  0.41525  0.46328  0.23166  1.0000
  H   H1248     1.0  0.44248  0.30223  0.01063  1.0000
  H   H1249     1.0  0.25034  0.30858  0.99723  1.0000
  H   H1250     1.0  0.26454  0.41884  0.09405  1.0000
  H   H1251     1.0  0.23805  0.42559  0.33751  1.0000
  H   H1252     1.0  0.27290  0.40352  0.10753  1.0000
  C   C785      1.0  0.38184  0.30040  0.19720  1.0000
  H   H1253     1.0  0.23796  0.39784  0.16545  1.0000
  C   C786      1.0  0.24572  0.40003  0.14383  1.0000
  C   C787      1.0  0.36351  0.49063  0.21706  1.0000
  H   H1254     1.0  0.42462  0.46460  0.19547  1.0000
  N   N80       1.0  0.41373  0.48306  0.20096  1.0000
  H   H1255     1.0  0.39244  0.48325  0.18870  1.0000
  H   H1256     1.0  0.39103  0.46707  0.21754  1.0000
  H   H1257     1.0  0.43340  0.47736  0.21422  1.0000
  H   H1258     1.0  0.45904  0.26867  0.24547  1.0000
  C   C788      1.0  0.26846  0.40672  0.16102  1.0000
  H   H1259     1.0  0.35981  0.48887  0.15108  1.0000
  H   H1260     1.0  0.47580  0.47358  0.25115  1.0000
  C   C789      1.0  0.46911  0.35186  0.01557  1.0000
  H   H1261     1.0  0.47736  0.31714  0.06476  1.0000
  H   H1262     1.0  0.26747  0.45241  0.27317  1.0000
  C   C790      1.0  0.48157  0.34587  0.00557  1.0000
  H   H1263     1.0  0.42560  0.48752  0.15695  1.0000
  H   H1264     1.0  0.26910  0.29750  0.01968  1.0000
  H   H1265     1.0  0.45053  0.37637  0.09909  1.0000
  C   C791      1.0  0.24088  0.29894  0.01257  1.0000
  H   H1266     1.0  0.47101  0.36373  0.08302  1.0000
  H   H1267     1.0  0.30045  0.30991  0.98679  1.0000
  H   H1268     1.0  0.24606  0.41986  0.30646  1.0000
  H   H1269     1.0  0.45446  0.38809  0.06360  1.0000
  C   C792      1.0  0.48380  0.40326  0.06071  1.0000
  H   H1270     1.0  0.48129  0.39271  0.32724  1.0000
  C   C793      1.0  0.45783  0.38747  0.08403  1.0000
  H   H1271     1.0  0.25610  0.26900  0.00035  1.0000
  H   H1272     1.0  0.45703  0.48435  0.27981  1.0000
  C   C794      1.0  0.35763  0.48509  0.19601  1.0000
  H   H1273     1.0  0.24258  0.27695  0.98399  1.0000
  S   S308      1.0  0.27954  0.33021  0.99032  1.0000
  H   H1274     1.0  0.48122  0.40466  0.03952  1.0000
  C   C795      1.0  0.32818  0.49174  0.02284  1.0000
  H   H1275     1.0  0.41052  0.48816  0.74931  1.0000
  H   H1276     1.0  0.28719  0.44421  0.67372  1.0000
  H   H1277     1.0  0.29978  0.28906  0.67749  1.0000
  H   H1278     1.0  0.35791  0.24417  0.79412  1.0000
  H   H1279     1.0  0.43255  0.46849  0.76445  1.0000
  Fe  Fe154     1.0  0.41200  0.30134  0.77841  1.0000
  S   S309      1.0  0.42648  0.28412  0.77960  1.0000
  S   S310      1.0  0.38779  0.29455  0.80717  1.0000
  Fe  Fe155     1.0  0.43733  0.32660  0.73438  1.0000
  S   S311      1.0  0.45377  0.31128  0.73092  1.0000
  S   S312      1.0  0.44081  0.35201  0.71244  1.0000
  Fe  Fe156     1.0  0.43289  0.29253  0.73202  1.0000
  S   S313      1.0  0.43381  0.27401  0.70743  1.0000
  Fe  Fe157     1.0  0.44609  0.30400  0.77878  1.0000
  S   S314      1.0  0.46348  0.29936  0.80452  1.0000
  S   S315      1.0  0.41718  0.30857  0.73096  1.0000
  S   S316      1.0  0.43089  0.32046  0.78211  1.0000
  Fe  Fe158     1.0  0.31283  0.46559  0.72993  1.0000
  S   S317      1.0  0.31419  0.45594  0.77443  1.0000
  H   H1280     1.0  0.41224  0.24411  0.48275  1.0000
  Fe  Fe159     1.0  0.27873  0.44755  0.74144  1.0000
  S   S318      1.0  0.27728  0.43626  0.78710  1.0000
  S   S319      1.0  0.25910  0.44865  0.71966  1.0000
  Fe  Fe160     1.0  0.29062  0.45985  0.78854  1.0000
  S   S320      1.0  0.28220  0.47244  0.82113  1.0000
  Fe  Fe161     1.0  0.30093  0.43306  0.76964  1.0000
  S   S321      1.0  0.31055  0.41214  0.78123  1.0000
  S   S322      1.0  0.29032  0.47130  0.74438  1.0000
  S   S323      1.0  0.30135  0.44258  0.72386  1.0000
  Fe  Fe162     1.0  0.27778  0.28877  0.81302  1.0000
  S   S324      1.0  0.26971  0.29925  0.84880  1.0000
  S   S325      1.0  0.26569  0.26638  0.80385  1.0000
  Fe  Fe163     1.0  0.31029  0.31108  0.79549  1.0000
  S   S326      1.0  0.30495  0.32367  0.82918  1.0000
  S   S327      1.0  0.33319  0.31637  0.76291  1.0000
  Fe  Fe164     1.0  0.29292  0.29979  0.85787  1.0000
  S   S328      1.0  0.29746  0.29227  0.90095  1.0000
  Fe  Fe165     1.0  0.28229  0.32245  0.81744  1.0000
  S   S329      1.0  0.27040  0.34207  0.81523  1.0000
  S   S330      1.0  0.30006  0.28731  0.82496  1.0000
  S   S331      1.0  0.28858  0.31193  0.78096  1.0000
  C   C796      1.0  0.29240  0.30274  0.92583  1.0000
  H   H1281     1.0  0.41121  0.25890  0.53960  1.0000
  C   C797      1.0  0.28174  0.31166  0.92294  1.0000
  H   H1282     1.0  0.34606  0.47330  0.73678  1.0000
  H   H1283     1.0  0.27643  0.31202  0.90532  1.0000
  C   C798      1.0  0.25189  0.26427  0.78355  1.0000
  H   H1284     1.0  0.46254  0.47842  0.62466  1.0000
  N   N81       1.0  0.29694  0.46707  0.64496  1.0000
  H   H1285     1.0  0.28141  0.26555  0.71378  1.0000
  H   H1286     1.0  0.46739  0.33868  0.95896  1.0000
  C   C799      1.0  0.24524  0.27632  0.77421  1.0000
  C   C800      1.0  0.28411  0.29315  0.72588  1.0000
  H   H1287     1.0  0.24826  0.28724  0.77990  1.0000
  H   H1288     1.0  0.31503  0.28103  0.74148  1.0000
  H   H1289     1.0  0.28379  0.47625  0.61739  1.0000
  H   H1290     1.0  0.38472  0.24383  0.82213  1.0000
  H   H1291     1.0  0.48157  0.44952  0.56484  1.0000
  C   C801      1.0  0.30555  0.28704  0.74338  1.0000
  C   C802      1.0  0.29912  0.39294  0.78777  1.0000
  C   C803      1.0  0.28294  0.38935  0.79571  1.0000
  C   C804      1.0  0.27422  0.37371  0.80340  1.0000
  C   C805      1.0  0.28162  0.36160  0.80297  1.0000
  C   C806      1.0  0.29779  0.36522  0.79437  1.0000
  C   C807      1.0  0.30650  0.38084  0.78686  1.0000
  H   H1292     1.0  0.27715  0.39859  0.79656  1.0000
  H   H1293     1.0  0.26171  0.37097  0.81003  1.0000
  H   H1294     1.0  0.30360  0.35599  0.79377  1.0000
  H   H1295     1.0  0.31902  0.38357  0.78061  1.0000
  C   C808      1.0  0.47094  0.31084  0.82591  1.0000
  C   C809      1.0  0.46494  0.32311  0.83209  1.0000
  H   H1296     1.0  0.28918  0.30596  0.72102  1.0000
  H   H1297     1.0  0.30328  0.48790  0.61080  1.0000
  H   H1298     1.0  0.45529  0.32559  0.82409  1.0000
  H   H1299     1.0  0.28160  0.26291  0.75037  1.0000
  H   H1300     1.0  0.42762  0.26562  0.61208  1.0000
  C   C810      1.0  0.37258  0.30021  0.79437  1.0000
  C   C811      1.0  0.35846  0.29853  0.81371  1.0000
  C   C812      1.0  0.34626  0.30336  0.80426  1.0000
  C   C813      1.0  0.34811  0.30984  0.77534  1.0000
  C   C814      1.0  0.36216  0.31132  0.75593  1.0000
  C   C815      1.0  0.37435  0.30649  0.76540  1.0000
  H   H1301     1.0  0.35697  0.29365  0.83617  1.0000
  H   H1302     1.0  0.33548  0.30218  0.81943  1.0000
  H   H1303     1.0  0.36360  0.31623  0.73351  1.0000
  H   H1304     1.0  0.38507  0.30765  0.75025  1.0000
  C   C816      1.0  0.24778  0.25015  0.77609  1.0000
  H   H1305     1.0  0.31221  0.30324  0.68898  1.0000
  H   H1306     1.0  0.25072  0.39960  0.68999  1.0000
  C   C817      1.0  0.27776  0.31986  0.94316  1.0000
  C   C818      1.0  0.23718  0.24809  0.75930  1.0000
  H   H1307     1.0  0.47571  0.32931  0.93357  1.0000
  C   C819      1.0  0.47221  0.35827  0.70791  1.0000
  C   C820      1.0  0.45956  0.36440  0.70531  1.0000
  H   H1308     1.0  0.39268  0.27730  0.75883  1.0000
  H   H1309     1.0  0.42129  0.28755  0.56234  1.0000
  H   H1310     1.0  0.47062  0.34578  0.71384  1.0000
  H   H1311     1.0  0.39956  0.26497  0.56689  1.0000
  C   C821      1.0  0.29893  0.30194  0.94916  1.0000
  H   H1312     1.0  0.44050  0.48718  0.68783  1.0000
  H   H1313     1.0  0.43693  0.25541  0.54289  1.0000
  N   N82       1.0  0.43415  0.48852  0.73112  1.0000
  H   H1314     1.0  0.29825  0.28250  0.76567  1.0000
  H   H1315     1.0  0.37208  0.27209  0.77271  1.0000
  N   N83       1.0  0.42207  0.26356  0.57267  1.0000
  C   C822      1.0  0.41861  0.26468  0.69465  1.0000
  C   C823      1.0  0.40551  0.27030  0.69354  1.0000
  C   C824      1.0  0.39342  0.26222  0.68415  1.0000
  N   N84       1.0  0.45829  0.31376  0.96966  1.0000
  C   C825      1.0  0.48131  0.47872  0.64501  1.0000
  H   H1316     1.0  0.40473  0.28089  0.69980  1.0000
  H   H1317     1.0  0.38333  0.26665  0.68333  1.0000
  C   C826      1.0  0.25453  0.42087  0.70357  1.0000
  C   C827      1.0  0.25019  0.43476  0.70377  1.0000
  C   C828      1.0  0.44567  0.31461  0.95533  1.0000
  C   C829      1.0  0.47112  0.32798  0.95664  1.0000
  H   H1318     1.0  0.26343  0.41823  0.71379  1.0000
  H   H1319     1.0  0.45213  0.38548  0.69482  1.0000
  H   H1320     1.0  0.31769  0.46085  0.62738  1.0000
  H   H1321     1.0  0.29896  0.48707  0.66226  1.0000
  N   N85       1.0  0.39811  0.35164  0.76229  1.0000
  C   C830      1.0  0.38937  0.36352  0.75704  1.0000
  C   C831      1.0  0.40016  0.34457  0.73803  1.0000
  C   C832      1.0  0.38943  0.33941  0.78857  1.0000
  C   C833      1.0  0.41348  0.35905  0.76543  1.0000
  H   H1322     1.0  0.38759  0.36911  0.77491  1.0000
  H   H1323     1.0  0.37771  0.35825  0.75457  1.0000
  H   H1324     1.0  0.39559  0.37288  0.73727  1.0000
  H   H1325     1.0  0.38884  0.33912  0.73460  1.0000
  H   H1326     1.0  0.40708  0.35338  0.71795  1.0000
  H   H1327     1.0  0.40651  0.33541  0.74153  1.0000
  H   H1328     1.0  0.39548  0.32999  0.79276  1.0000
  H   H1329     1.0  0.37763  0.33382  0.78720  1.0000
  H   H1330     1.0  0.38798  0.34421  0.80748  1.0000
  H   H1331     1.0  0.42035  0.35036  0.76937  1.0000
  H   H1332     1.0  0.41247  0.36461  0.78340  1.0000
  H   H1333     1.0  0.42047  0.36814  0.74575  1.0000
  H   H1334     1.0  0.41986  0.46510  0.74172  1.0000
  C   C834      1.0  0.31320  0.46667  0.64367  1.0000
  C   C835      1.0  0.47157  0.33227  0.84841  1.0000
  H   H1335     1.0  0.30713  0.29497  0.95152  1.0000
  C   C836      1.0  0.28898  0.26780  0.72824  1.0000
  H   H1336     1.0  0.43994  0.28464  0.56485  1.0000
  H   H1337     1.0  0.31440  0.46027  0.66441  1.0000
  C   C837      1.0  0.39615  0.24826  0.76574  1.0000
  C   C838      1.0  0.35407  0.48324  0.72099  1.0000
  C   C839      1.0  0.42938  0.28017  0.55795  1.0000
  H   H1338     1.0  0.31098  0.29964  0.74021  1.0000
  H   H1339     1.0  0.23530  0.44881  0.69020  1.0000
  H   H1340     1.0  0.40223  0.24569  0.57383  1.0000
  C   C840      1.0  0.46185  0.38065  0.69706  1.0000
  C   C841      1.0  0.39435  0.24853  0.67559  1.0000
  H   H1341     1.0  0.39507  0.26386  0.80612  1.0000
  H   H1342     1.0  0.46698  0.34186  0.85277  1.0000
  N   N86       1.0  0.29592  0.36220  0.88271  1.0000
  C   C842      1.0  0.30787  0.35449  0.89026  1.0000
  C   C843      1.0  0.28503  0.35170  0.87234  1.0000
  C   C844      1.0  0.30344  0.37680  0.86008  1.0000
  C   C845      1.0  0.28737  0.36582  0.90804  1.0000
  H   H1343     1.0  0.30265  0.34355  0.90754  1.0000
  H   H1344     1.0  0.31642  0.36217  0.89782  1.0000
  H   H1345     1.0  0.31433  0.35129  0.87177  1.0000
  H   H1346     1.0  0.27615  0.35729  0.86542  1.0000
  H   H1347     1.0  0.29116  0.34833  0.85378  1.0000
  H   H1348     1.0  0.27877  0.34075  0.88895  1.0000
  H   H1349     1.0  0.29475  0.38259  0.85281  1.0000
  H   H1350     1.0  0.31047  0.37452  0.84109  1.0000
  H   H1351     1.0  0.31131  0.38532  0.86734  1.0000
  H   H1352     1.0  0.28177  0.35509  0.92574  1.0000
  H   H1353     1.0  0.27813  0.37146  0.90314  1.0000
  H   H1354     1.0  0.29522  0.37387  0.91626  1.0000
  C   C846      1.0  0.23861  0.43802  0.69036  1.0000
  C   C847      1.0  0.41747  0.26168  0.60369  1.0000
  H   H1355     1.0  0.48093  0.32762  0.96663  1.0000
  C   C848      1.0  0.28700  0.45097  0.65243  1.0000
  H   H1356     1.0  0.37450  0.25886  0.81906  1.0000
  H   H1357     1.0  0.29077  0.44449  0.63675  1.0000
  C   C849      1.0  0.41960  0.25109  0.68580  1.0000
  C   C850      1.0  0.36899  0.48891  0.72420  1.0000
  C   C851      1.0  0.28464  0.31943  0.96600  1.0000
  H   H1358     1.0  0.26930  0.32652  0.94113  1.0000
  N   N87       1.0  0.29627  0.28463  0.72276  1.0000
  H   H1359     1.0  0.43296  0.28192  0.53448  1.0000
  H   H1360     1.0  0.27468  0.45088  0.65337  1.0000
  H   H1361     1.0  0.31417  0.49168  0.78006  1.0000
  H   H1362     1.0  0.41188  0.24928  0.61536  1.0000
  H   H1363     1.0  0.38037  0.26695  0.74113  1.0000
  H   H1364     1.0  0.42971  0.24667  0.68656  1.0000
  H   H1365     1.0  0.44027  0.46707  0.72913  1.0000
  C   C852      1.0  0.43323  0.25426  0.56617  1.0000
  H   H1366     1.0  0.27636  0.29106  0.71166  1.0000
  C   C853      1.0  0.29592  0.47570  0.61704  1.0000
  H   H1367     1.0  0.29979  0.47002  0.60006  1.0000
  H   H1368     1.0  0.27668  0.28944  0.74799  1.0000
  C   C854      1.0  0.47667  0.39072  0.69198  1.0000
  H   H1369     1.0  0.40894  0.26842  0.60946  1.0000
  H   H1370     1.0  0.47338  0.29888  0.97731  1.0000
  H   H1371     1.0  0.32097  0.47864  0.63859  1.0000
  C   C855      1.0  0.48421  0.32926  0.85874  1.0000
  C   C856      1.0  0.38191  0.26798  0.76232  1.0000
  S   S332      1.0  0.48463  0.46137  0.63730  1.0000
  H   H1372     1.0  0.29783  0.26105  0.72549  1.0000
  H   H1373     1.0  0.44980  0.31567  0.93215  1.0000
  H   H1374     1.0  0.44113  0.32491  0.95753  1.0000
  H   H1375     1.0  0.31576  0.28438  0.69045  1.0000
  H   H1376     1.0  0.31275  0.47149  0.82970  1.0000
  C   C857      1.0  0.24731  0.41034  0.69007  1.0000
  C   C858      1.0  0.29515  0.31036  0.96914  1.0000
  H   H1377     1.0  0.46879  0.30064  0.94354  1.0000
  C   C859      1.0  0.43158  0.47152  0.74215  1.0000
  C   C860      1.0  0.30645  0.29058  0.69359  1.0000
  C   C861      1.0  0.40818  0.25811  0.56279  1.0000
  C   C862      1.0  0.40753  0.24302  0.67640  1.0000
  H   H1378     1.0  0.47830  0.40323  0.68615  1.0000
  H   H1379     1.0  0.23820  0.44954  0.54299  1.0000
  C   C863      1.0  0.48336  0.30763  0.83680  1.0000
  H   H1380     1.0  0.40716  0.25745  0.76131  1.0000
  H   H1381     1.0  0.44386  0.25799  0.57335  1.0000
  H   H1382     1.0  0.32998  0.48743  0.85177  1.0000
  C   C864      1.0  0.46945  0.48456  0.63618  1.0000
  C   C865      1.0  0.30898  0.48034  0.83881  1.0000
  H   H1383     1.0  0.47844  0.35272  0.79369  1.0000
  C   C866      1.0  0.38429  0.25490  0.80805  1.0000
  C   C867      1.0  0.23565  0.41353  0.67686  1.0000
  C   C868      1.0  0.29442  0.48283  0.83809  1.0000
  H   H1384     1.0  0.39495  0.24604  0.74501  1.0000
  H   H1385     1.0  0.29213  0.46862  0.68805  1.0000
  H   H1386     1.0  0.43580  0.30401  0.96440  1.0000
  C   C869      1.0  0.29162  0.47496  0.66679  1.0000
  S   S333      1.0  0.33065  0.48403  0.69360  1.0000
  H   H1387     1.0  0.27935  0.47543  0.66860  1.0000
  N   N88       1.0  0.38268  0.25302  0.77990  1.0000
  H   H1388     1.0  0.37232  0.48331  0.74259  1.0000
  H   H1389     1.0  0.42049  0.48700  0.70067  1.0000
  H   H1390     1.0  0.26172  0.28880  0.97945  1.0000
  H   H1391     1.0  0.45456  0.28897  0.97554  1.0000
  C   C870      1.0  0.31869  0.48934  0.85138  1.0000
  S   S334      1.0  0.24438  0.47223  0.49019  1.0000
  C   C871      1.0  0.46397  0.29994  0.96636  1.0000
  C   C872      1.0  0.34960  0.49041  0.69739  1.0000
  C   C873      1.0  0.43595  0.24353  0.48104  1.0000
  S   S335      1.0  0.46620  0.24335  0.48123  1.0000
  Fe  Fe166     1.0  0.43080  0.52650  0.24366  1.0000
  S   S336      1.0  0.43607  0.53500  0.19648  1.0000
  Fe  Fe167     1.0  0.41208  0.55004  0.25275  1.0000
  S   S337      1.0  0.41636  0.56035  0.20566  1.0000
  S   S338      1.0  0.39635  0.56042  0.28043  1.0000
  Fe  Fe168     1.0  0.41121  0.53546  0.20317  1.0000
  C   C874      1.0  0.36426  0.49306  0.16745  1.0000
  Fe  Fe169     1.0  0.44077  0.55892  0.20356  1.0000
  S   S339      1.0  0.46237  0.57569  0.17304  1.0000
  S   S340      1.0  0.40531  0.52512  0.25029  1.0000
  S   S341      1.0  0.43709  0.55050  0.25068  1.0000
  Fe  Fe170     1.0  0.36022  0.58848  0.44257  1.0000
  S   S342      1.0  0.38188  0.60096  0.40764  1.0000
  S   S343      1.0  0.33620  0.58812  0.43524  1.0000
  S   S344      1.0  0.40188  0.59273  0.45413  1.0000
  Fe  Fe171     1.0  0.39069  0.61189  0.44027  1.0000
  S   S345      1.0  0.40297  0.63800  0.42648  1.0000
  Fe  Fe172     1.0  0.39118  0.58089  0.42463  1.0000
  S   S346      1.0  0.40494  0.56729  0.40094  1.0000
  S   S347      1.0  0.36901  0.56772  0.45752  1.0000
  S   S348      1.0  0.41607  0.65229  0.99757  1.0000
  C   C875      1.0  0.42392  0.56038  0.46311  1.0000
  H   H1392     1.0  0.48249  0.53364  0.18763  1.0000
  Fe  Fe173     1.0  0.26738  0.52150  0.41393  1.0000
  S   S349      1.0  0.29361  0.53272  0.40289  1.0000
  H   H1393     1.0  0.33670  0.63226  0.46833  1.0000
  H   H1394     1.0  0.47237  0.56317  0.22493  1.0000
  H   H1395     1.0  0.45620  0.61628  0.08743  1.0000
  S   S350      1.0  0.29728  0.51710  0.00970  1.0000
  H   H1396     1.0  0.46833  0.54425  0.19588  1.0000
  H   H1397     1.0  0.43687  0.61864  0.09534  1.0000
  S   S351      1.0  0.36832  0.60087  0.47396  1.0000
  H   H1398     1.0  0.47940  0.71969  0.01709  1.0000
  C   C876      1.0  0.35831  0.53278  0.98311  1.0000
  S   S352      1.0  0.44438  0.64349  0.04461  1.0000
  S   S353      1.0  0.26092  0.49653  0.41110  1.0000
  H   H1399     1.0  0.41512  0.59645  0.12603  1.0000
  N   N89       1.0  0.46942  0.70949  0.06189  1.0000
  H   H1400     1.0  0.27859  0.53537  0.98850  1.0000
  C   C877      1.0  0.41068  0.65062  0.44628  1.0000
  C   C878      1.0  0.26755  0.53685  0.98353  1.0000
  C   C879      1.0  0.42268  0.58851  0.12229  1.0000
  C   C880      1.0  0.41479  0.53513  0.45525  1.0000
  C   C881      1.0  0.47270  0.66560  0.02408  1.0000
  C   C882      1.0  0.46217  0.65452  0.04749  1.0000
  C   C883      1.0  0.46567  0.65237  0.07407  1.0000
  H   H1401     1.0  0.44186  0.60650  0.07272  1.0000
  H   H1402     1.0  0.47021  0.66734  0.00349  1.0000
  H   H1403     1.0  0.45756  0.64398  0.09241  1.0000
  N   N90       1.0  0.35289  0.54132  0.00377  1.0000
  C   C884      1.0  0.30341  0.49922  0.05543  1.0000
  H   H1404     1.0  0.47386  0.72270  0.09192  1.0000
  H   H1405     1.0  0.30589  0.58386  0.42461  1.0000
  C   C885      1.0  0.48272  0.60442  0.15873  1.0000
  C   C886      1.0  0.41994  0.66573  0.43164  1.0000
  C   C887      1.0  0.46790  0.49820  0.19768  1.0000
  H   H1406     1.0  0.42263  0.66926  0.40869  1.0000
  C   C888      1.0  0.32361  0.57182  0.42964  1.0000
  C   C889      1.0  0.32775  0.55781  0.42944  1.0000
  C   C890      1.0  0.31791  0.54552  0.42312  1.0000
  C   C891      1.0  0.30376  0.54698  0.41709  1.0000
  C   C892      1.0  0.29938  0.56080  0.41825  1.0000
  C   C893      1.0  0.30926  0.57312  0.42445  1.0000
  H   H1407     1.0  0.33863  0.55653  0.43378  1.0000
  H   H1408     1.0  0.32137  0.53487  0.42257  1.0000
  C   C894      1.0  0.39964  0.56287  0.31311  1.0000
  C   C895      1.0  0.39217  0.57244  0.32659  1.0000
  C   C896      1.0  0.39375  0.57395  0.35348  1.0000
  C   C897      1.0  0.40294  0.56594  0.36696  1.0000
  C   C898      1.0  0.41060  0.55654  0.35330  1.0000
  C   C899      1.0  0.40897  0.55500  0.32643  1.0000
  H   H1409     1.0  0.38520  0.57880  0.31611  1.0000
  H   H1410     1.0  0.38796  0.58135  0.36369  1.0000
  H   H1411     1.0  0.41777  0.55036  0.36359  1.0000
  H   H1412     1.0  0.41475  0.54758  0.31621  1.0000
  S   S354      1.0  0.25192  0.51625  0.45789  1.0000
  C   C900      1.0  0.35375  0.65667  0.42455  1.0000
  C   C901      1.0  0.47003  0.59380  0.17922  1.0000
  C   C902      1.0  0.45337  0.49939  0.24347  1.0000
  H   H1413     1.0  0.32952  0.53622  0.99948  1.0000
  Fe  Fe174     1.0  0.43807  0.64577  0.00215  1.0000
  C   C903      1.0  0.47027  0.61237  0.20808  1.0000
  C   C904      1.0  0.46376  0.59780  0.20391  1.0000
  H   H1414     1.0  0.41309  0.54065  0.43427  1.0000
  H   H1415     1.0  0.26442  0.54639  0.99239  1.0000
  H   H1416     1.0  0.45393  0.58971  0.21983  1.0000
  H   H1417     1.0  0.37828  0.65453  0.44599  1.0000
  N   N91       1.0  0.43921  0.59653  0.11729  1.0000
  S   S355      1.0  0.44019  0.50701  0.26426  1.0000
  H   H1418     1.0  0.45376  0.71357  0.00047  1.0000
  C   C905      1.0  0.47866  0.53560  0.24179  1.0000
  H   H1419     1.0  0.43846  0.59213  0.16180  1.0000
  H   H1420     1.0  0.37120  0.63448  0.46493  1.0000
  S   S356      1.0  0.24905  0.52784  0.39232  1.0000
  H   H1421     1.0  0.44779  0.58175  0.09274  1.0000
  H   H1422     1.0  0.42176  0.49793  0.22630  1.0000
  C   C906      1.0  0.34397  0.62948  0.45021  1.0000
  H   H1423     1.0  0.38213  0.51226  0.13785  1.0000
  H   H1424     1.0  0.44821  0.71416  0.08175  1.0000
  H   H1425     1.0  0.32250  0.50465  0.98657  1.0000
  H   H1426     1.0  0.33885  0.52068  0.03571  1.0000
  H   H1427     1.0  0.23656  0.71824  0.99702  1.0000
  H   H1428     1.0  0.46127  0.59101  0.10989  1.0000
  C   C907      1.0  0.37595  0.50402  0.20967  1.0000
  H   H1429     1.0  0.40633  0.52348  0.46345  1.0000
  N   N92       1.0  0.34492  0.54767  0.34373  1.0000
  C   C908      1.0  0.35529  0.54997  0.31537  1.0000
  C   C909      1.0  0.33386  0.55743  0.34139  1.0000
  C   C910      1.0  0.35429  0.55221  0.36315  1.0000
  C   C911      1.0  0.33624  0.53109  0.35504  1.0000
  H   H1430     1.0  0.36387  0.54283  0.31635  1.0000
  H   H1431     1.0  0.36211  0.56233  0.30621  1.0000
  H   H1432     1.0  0.34870  0.54668  0.30005  1.0000
  H   H1433     1.0  0.32595  0.55606  0.36249  1.0000
  H   H1434     1.0  0.33996  0.57002  0.33277  1.0000
  H   H1435     1.0  0.32642  0.55416  0.32726  1.0000
  H   H1436     1.0  0.34702  0.54974  0.38515  1.0000
  H   H1437     1.0  0.36013  0.56490  0.35631  1.0000
  H   H1438     1.0  0.36347  0.54584  0.36400  1.0000
  H   H1439     1.0  0.32792  0.52904  0.37603  1.0000
  H   H1440     1.0  0.34418  0.52340  0.35783  1.0000
  H   H1441     1.0  0.32929  0.52721  0.34060  1.0000
  H   H1442     1.0  0.42227  0.56645  0.44249  1.0000
  C   C912      1.0  0.36735  0.63790  0.41214  1.0000
  C   C913      1.0  0.37689  0.50631  0.16002  1.0000
  S   S357      1.0  0.39947  0.52766  0.17075  1.0000
  H   H1443     1.0  0.43607  0.55936  0.45921  1.0000
  H   H1444     1.0  0.45983  0.68461  0.07603  1.0000
  H   H1445     1.0  0.23681  0.53382  0.99895  1.0000
  C   C914      1.0  0.47734  0.70857  0.03351  1.0000
  H   H1446     1.0  0.29390  0.50218  0.06817  1.0000
  H   H1447     1.0  0.36090  0.64825  0.47456  1.0000
  H   H1448     1.0  0.46543  0.61541  0.22725  1.0000
  H   H1449     1.0  0.38022  0.50825  0.22611  1.0000
  H   H1450     1.0  0.35505  0.60119  0.99286  1.0000
  C   C915      1.0  0.44879  0.58558  0.11228  1.0000
  H   H1451     1.0  0.45246  0.51290  0.20318  1.0000
  Fe  Fe175     1.0  0.24129  0.50225  0.39353  1.0000
  S   S358      1.0  0.44787  0.72844  0.44189  1.0000
  C   C916      1.0  0.42588  0.67635  0.44638  1.0000
  S   S359      1.0  0.47247  0.71134  0.46980  1.0000
  H   H1452     1.0  0.40512  0.50128  0.21468  1.0000
  Fe  Fe176     1.0  0.47361  0.73128  0.43322  1.0000
  H   H1453     1.0  0.24986  0.52557  0.03685  1.0000
  H   H1454     1.0  0.47088  0.50205  0.17472  1.0000
  C   C917      1.0  0.31964  0.50082  0.00947  1.0000
  C   C918      1.0  0.45741  0.50437  0.21382  1.0000
  H   H1455     1.0  0.44678  0.70433  0.05416  1.0000
  H   H1456     1.0  0.34683  0.61838  0.45875  1.0000
  H   H1457     1.0  0.43302  0.68788  0.43475  1.0000
  H   H1458     1.0  0.28869  0.56225  0.41320  1.0000
  N   N93       1.0  0.25515  0.52217  0.99483  1.0000
  C   C919      1.0  0.33923  0.54637  0.99765  1.0000
  H   H1459     1.0  0.33486  0.55299  0.01259  1.0000
  Fe  Fe177     1.0  0.44675  0.70923  0.47971  1.0000
  H   H1460     1.0  0.26377  0.51442  0.03096  1.0000
  H   H1461     1.0  0.34474  0.53719  0.04908  1.0000
  H   H1462     1.0  0.36071  0.63560  0.39634  1.0000
  C   C920      1.0  0.36543  0.55515  0.00126  1.0000
  H   H1463     1.0  0.35842  0.52651  0.03804  1.0000
  H   H1464     1.0  0.44522  0.57494  0.13037  1.0000
  H   H1465     1.0  0.45400  0.60817  0.13932  1.0000
  H   H1466     1.0  0.41887  0.57825  0.14119  1.0000
  C   C921      1.0  0.39673  0.54692  0.47990  1.0000
  C   C922      1.0  0.38285  0.51176  0.18107  1.0000
  H   H1467     1.0  0.39430  0.55214  0.45955  1.0000
  C   C923      1.0  0.44374  0.61003  0.09215  1.0000
  C   C924      1.0  0.25296  0.51672  0.02585  1.0000
  C   C925      1.0  0.45453  0.71333  0.06074  1.0000
  C   C926      1.0  0.34857  0.53101  0.03291  1.0000
  H   H1468     1.0  0.37091  0.62715  0.42002  1.0000
  C   C927      1.0  0.44164  0.60202  0.14242  1.0000
  C   C928      1.0  0.46647  0.69433  0.08276  1.0000
  H   H1469     1.0  0.42047  0.58418  0.10374  1.0000
  C   C929      1.0  0.30740  0.50477  0.02577  1.0000
  H   H1470     1.0  0.45632  0.72473  0.04522  1.0000
  H   H1471     1.0  0.36459  0.63980  0.99403  1.0000
  C   C930      1.0  0.36746  0.64501  0.45626  1.0000
  H   H1472     1.0  0.34674  0.65503  0.40899  1.0000
  H   H1473     1.0  0.43457  0.61029  0.14688  1.0000
  S   S360      1.0  0.24871  0.72557  0.41851  1.0000
  H   H1474     1.0  0.25054  0.49890  0.98931  1.0000
  C   C931      1.0  0.42243  0.67209  0.47609  1.0000
  H   H1475     1.0  0.33673  0.62701  0.43533  1.0000
  H   H1476     1.0  0.37822  0.64718  0.40087  1.0000
  C   C932      1.0  0.44560  0.71483  0.98776  1.0000
  Fe  Fe178     1.0  0.25194  0.73745  0.45334  1.0000
  H   H1477     1.0  0.48201  0.65961  0.09788  1.0000
  C   C933      1.0  0.37113  0.65043  0.99850  1.0000
  H   H1478     1.0  0.42666  0.53332  0.45134  1.0000
  C   C934      1.0  0.47954  0.66122  0.07724  1.0000
  C   C935      1.0  0.40730  0.64630  0.47599  1.0000
  H   H1479     1.0  0.36421  0.66649  0.41353  1.0000
  H   H1480     1.0  0.36335  0.65331  0.01579  1.0000
  H   H1481     1.0  0.46601  0.53478  0.24703  1.0000
  H   H1482     1.0  0.48003  0.52399  0.23935  1.0000
  C   C936      1.0  0.24059  0.52495  0.98873  1.0000
  C   C937      1.0  0.47939  0.72175  0.07049  1.0000
  H   H1483     1.0  0.47040  0.69910  0.02665  1.0000
  N   N94       1.0  0.35812  0.64225  0.43582  1.0000
  S   S361      1.0  0.43207  0.62494  0.98468  1.0000
  H   H1484     1.0  0.27061  0.50794  0.98506  1.0000
  H   H1485     1.0  0.36158  0.56235  0.01551  1.0000
  H   H1486     1.0  0.37573  0.55176  0.00674  1.0000
  N   N95       1.0  0.41266  0.54495  0.47526  1.0000
  H   H1487     1.0  0.34680  0.66031  0.44188  1.0000
  H   H1488     1.0  0.48289  0.53762  0.26050  1.0000
  C   C938      1.0  0.48091  0.54491  0.19167  1.0000
  H   H1489     1.0  0.24364  0.50570  0.03518  1.0000
  H   H1490     1.0  0.37866  0.68110  0.99610  1.0000
  H   H1491     1.0  0.38079  0.64714  0.00683  1.0000
  H   H1492     1.0  0.42266  0.56815  0.47750  1.0000
  H   H1493     1.0  0.45983  0.69432  0.10412  1.0000
  C   C939      1.0  0.42322  0.49386  0.17357  1.0000
  H   H1494     1.0  0.39599  0.67474  0.98728  1.0000
  C   C940      1.0  0.41080  0.49205  0.22215  1.0000
  H   H1495     1.0  0.41722  0.50277  0.16560  1.0000
  H   H1496     1.0  0.43456  0.50023  0.17568  1.0000
  S   S362      1.0  0.38609  0.61907  0.98641  1.0000
  C   C941      1.0  0.44006  0.72824  0.98419  1.0000
  H   H1497     1.0  0.48312  0.67113  0.27165  1.0000
  H   H1498     1.0  0.34920  0.52222  0.98449  1.0000
  H   H1499     1.0  0.36868  0.52887  0.98690  1.0000
  H   H1500     1.0  0.47752  0.69154  0.08532  1.0000
  C   C942      1.0  0.48296  0.62304  0.18749  1.0000
  H   H1501     1.0  0.48181  0.73336  0.05522  1.0000
  C   C943      1.0  0.48486  0.56327  0.21999  1.0000
  Fe  Fe179     1.0  0.24451  0.49185  0.45390  1.0000
  C   C944      1.0  0.25956  0.51019  0.98114  1.0000
  Fe  Fe180     1.0  0.45190  0.53325  0.65712  1.0000
  S   S363      1.0  0.43678  0.53716  0.69518  1.0000
  Fe  Fe181     1.0  0.47427  0.72945  0.49501  1.0000
  Fe  Fe182     1.0  0.43407  0.54765  0.61763  1.0000
  S   S364      1.0  0.41727  0.55195  0.65301  1.0000
  S   S365      1.0  0.43556  0.55747  0.57131  1.0000
  Fe  Fe183     1.0  0.43854  0.56063  0.66754  1.0000
  S   S366      1.0  0.44230  0.58423  0.67734  1.0000
  Fe  Fe184     1.0  0.41710  0.52797  0.67716  1.0000
  S   S367      1.0  0.39797  0.50870  0.70956  1.0000
  S   S368      1.0  0.45530  0.55758  0.63090  1.0000
  S   S369      1.0  0.43223  0.52285  0.64034  1.0000
  H   H1502     1.0  0.35240  0.51508  0.78194  1.0000
  S   S370      1.0  0.37614  0.56871  0.53180  1.0000
  H   H1503     1.0  0.36937  0.56281  0.97918  1.0000
  H   H1504     1.0  0.42399  0.50679  0.74087  1.0000
  S   S371      1.0  0.42909  0.68522  0.49593  1.0000
  C   C945      1.0  0.44320  0.61402  0.80452  1.0000
  S   S372      1.0  0.44837  0.72578  0.50806  1.0000
  H   H1505     1.0  0.39711  0.65595  0.95784  1.0000
  H   H1506     1.0  0.46098  0.73903  0.88037  1.0000
  H   H1507     1.0  0.47778  0.62298  0.70613  1.0000
  H   H1508     1.0  0.46313  0.64181  0.79653  1.0000
  C   C946      1.0  0.47359  0.66418  0.83765  1.0000
  Fe  Fe185     1.0  0.31981  0.52896  0.90237  1.0000
  S   S373      1.0  0.29593  0.52525  0.93000  1.0000
  S   S374      1.0  0.32733  0.51321  0.87534  1.0000
  Fe  Fe186     1.0  0.33397  0.55702  0.92323  1.0000
  S   S375      1.0  0.35807  0.57270  0.91793  1.0000
  H   H1509     1.0  0.39221  0.66881  0.93076  1.0000
  Fe  Fe187     1.0  0.30054  0.55130  0.91626  1.0000
  S   S376      1.0  0.28169  0.56330  0.90810  1.0000
  S   S377      1.0  0.33159  0.53126  0.93744  1.0000
  S   S378      1.0  0.32379  0.55490  0.88594  1.0000
  Fe  Fe188     1.0  0.41140  0.63303  0.97577  1.0000
  H   H1510     1.0  0.47923  0.60815  0.78770  1.0000
  H   H1511     1.0  0.42245  0.59443  0.56495  1.0000
  Fe  Fe189     1.0  0.44524  0.64168  0.94240  1.0000
  S   S379      1.0  0.46185  0.63248  0.91427  1.0000
  S   S380      1.0  0.42419  0.64833  0.93228  1.0000
  C   C947      1.0  0.38594  0.67731  0.97945  1.0000
  H   H1512     1.0  0.27821  0.49599  0.85035  1.0000
  C   C948      1.0  0.47847  0.58502  0.71380  1.0000
  C   C949      1.0  0.37520  0.50887  0.68007  1.0000
  H   H1513     1.0  0.44120  0.61572  0.78286  1.0000
  H   H1514     1.0  0.26124  0.51387  0.95770  1.0000
  H   H1515     1.0  0.38329  0.51878  0.66426  1.0000
  H   H1516     1.0  0.36146  0.54021  0.96085  1.0000
  H   H1517     1.0  0.24607  0.68272  0.86626  1.0000
  H   H1518     1.0  0.26845  0.70367  0.86686  1.0000
  C   C950      1.0  0.47122  0.64351  0.87929  1.0000
  C   C951      1.0  0.46641  0.65623  0.86626  1.0000
  H   H1519     1.0  0.38789  0.53560  0.48986  1.0000
  H   H1520     1.0  0.40714  0.52556  0.51208  1.0000
  H   H1521     1.0  0.45705  0.65978  0.87813  1.0000
  C   C952      1.0  0.36533  0.58595  0.93683  1.0000
  C   C953      1.0  0.42256  0.49404  0.74906  1.0000
  H   H1522     1.0  0.31820  0.51316  0.80296  1.0000
  C   C954      1.0  0.38779  0.60353  0.94367  1.0000
  C   C955      1.0  0.38129  0.59334  0.92882  1.0000
  H   H1523     1.0  0.40010  0.60909  0.93721  1.0000
  H   H1524     1.0  0.38870  0.59113  0.91100  1.0000
  C   C956      1.0  0.26315  0.55246  0.90815  1.0000
  C   C957      1.0  0.25068  0.55941  0.91045  1.0000
  H   H1525     1.0  0.23904  0.67300  0.94498  1.0000
  C   C958      1.0  0.24564  0.52854  0.90718  1.0000
  C   C959      1.0  0.26056  0.53697  0.90649  1.0000
  H   H1526     1.0  0.25260  0.57140  0.91162  1.0000
  H   H1527     1.0  0.27010  0.53158  0.90419  1.0000
  H   H1528     1.0  0.41306  0.54426  0.51855  1.0000
  C   C960      1.0  0.47462  0.61101  0.70496  1.0000
  H   H1529     1.0  0.43543  0.50470  0.69217  1.0000
  H   H1530     1.0  0.35688  0.50880  0.65851  1.0000
  H   H1531     1.0  0.29554  0.51208  0.87199  1.0000
  C   C961      1.0  0.44080  0.70306  0.97462  1.0000
  C   C962      1.0  0.35589  0.58888  0.95999  1.0000
  H   H1532     1.0  0.40901  0.58272  0.50678  1.0000
  C   C963      1.0  0.46631  0.58000  0.70166  1.0000
  H   H1533     1.0  0.34203  0.55402  0.97571  1.0000
  H   H1534     1.0  0.34359  0.58338  0.96631  1.0000
  H   H1535     1.0  0.41026  0.65358  0.51371  1.0000
  H   H1536     1.0  0.35044  0.53312  0.73818  1.0000
  C   C964      1.0  0.46205  0.61468  0.83236  1.0000
  C   C965      1.0  0.41892  0.56121  0.56175  1.0000
  C   C966      1.0  0.42063  0.57163  0.53555  1.0000
  C   C967      1.0  0.40757  0.57449  0.52677  1.0000
  C   C968      1.0  0.39270  0.56661  0.54374  1.0000
  C   C969      1.0  0.39099  0.55644  0.57026  1.0000
  C   C970      1.0  0.40408  0.55379  0.57935  1.0000
  H   H1537     1.0  0.43212  0.57755  0.52204  1.0000
  H   H1538     1.0  0.34752  0.51735  0.72161  1.0000
  H   H1539     1.0  0.37950  0.55037  0.58358  1.0000
  H   H1540     1.0  0.40266  0.54571  0.59960  1.0000
  H   H1541     1.0  0.25629  0.66293  0.91244  1.0000
  C   C971      1.0  0.37840  0.60641  0.96688  1.0000
  H   H1542     1.0  0.27250  0.67775  0.91347  1.0000
  C   C972      1.0  0.36243  0.59902  0.97496  1.0000
  H   H1543     1.0  0.45757  0.62303  0.84328  1.0000
  C   C973      1.0  0.45808  0.59039  0.69155  1.0000
  H   H1544     1.0  0.44763  0.59199  0.57544  1.0000
  C   C974      1.0  0.46226  0.60591  0.69327  1.0000
  C   C975      1.0  0.29927  0.50316  0.86305  1.0000
  H   H1545     1.0  0.45594  0.61401  0.68546  1.0000
  C   C976      1.0  0.26286  0.70231  0.88958  1.0000
  H   H1546     1.0  0.45897  0.49310  0.71740  1.0000
  C   C977      1.0  0.44991  0.49661  0.73147  1.0000
  C   C978      1.0  0.42499  0.71815  0.95381  1.0000
  H   H1547     1.0  0.45745  0.50283  0.63501  1.0000
  S   S381      1.0  0.31109  0.55567  0.95205  1.0000
  N   N96       1.0  0.43104  0.60170  0.59851  1.0000
  C   C979      1.0  0.43845  0.61781  0.58088  1.0000
  C   C980      1.0  0.42488  0.60195  0.62821  1.0000
  C   C981      1.0  0.44263  0.59244  0.59752  1.0000
  C   C982      1.0  0.41823  0.59456  0.58747  1.0000
  H   H1548     1.0  0.44323  0.61803  0.55832  1.0000
  H   H1549     1.0  0.44819  0.62352  0.58866  1.0000
  H   H1550     1.0  0.43004  0.62514  0.58112  1.0000
  H   H1551     1.0  0.41953  0.58992  0.64222  1.0000
  H   H1552     1.0  0.43423  0.60739  0.63715  1.0000
  H   H1553     1.0  0.41592  0.60862  0.62995  1.0000
  H   H1554     1.0  0.43735  0.58018  0.61022  1.0000
  H   H1555     1.0  0.45231  0.59721  0.60640  1.0000
  H   H1556     1.0  0.41262  0.58225  0.59990  1.0000
  H   H1557     1.0  0.40910  0.60104  0.58831  1.0000
  N   N97       1.0  0.33283  0.51260  0.76369  1.0000
  C   C983      1.0  0.23572  0.55094  0.91125  1.0000
  H   H1558     1.0  0.45590  0.60269  0.84572  1.0000
  H   H1559     1.0  0.45172  0.49410  0.75322  1.0000
  H   H1560     1.0  0.43684  0.60186  0.81676  1.0000
  H   H1561     1.0  0.26892  0.67582  0.87994  1.0000
  H   H1562     1.0  0.42724  0.53624  0.50032  1.0000
  H   H1563     1.0  0.32670  0.49304  0.74646  1.0000
  C   C984      1.0  0.23977  0.72387  0.97450  1.0000
  H   H1564     1.0  0.41698  0.71946  0.94068  1.0000
  C   C985      1.0  0.34147  0.52345  0.73583  1.0000
  C   C986      1.0  0.36024  0.50319  0.67686  1.0000
  N   N98       1.0  0.37704  0.66360  0.97268  1.0000
  H   H1565     1.0  0.39078  0.68740  0.96033  1.0000
  H   H1566     1.0  0.42353  0.49190  0.77138  1.0000
  H   H1567     1.0  0.25498  0.68840  0.94522  1.0000
  C   C987      1.0  0.34378  0.50592  0.77745  1.0000
  C   C988      1.0  0.32116  0.49994  0.75949  1.0000
  H   H1568     1.0  0.46095  0.59376  0.80110  1.0000
  H   H1569     1.0  0.44519  0.69278  0.97747  1.0000
  H   H1570     1.0  0.25566  0.71085  0.89018  1.0000
  Fe  Fe190     1.0  0.43002  0.66714  0.95460  1.0000
  C   C989      1.0  0.41306  0.65700  0.49075  1.0000
  C   C990      1.0  0.23539  0.72481  0.92754  1.0000
  H   H1571     1.0  0.46320  0.56803  0.70044  1.0000
  H   H1572     1.0  0.43783  0.62203  0.81503  1.0000
  C   C991      1.0  0.32496  0.52109  0.78193  1.0000
  H   H1573     1.0  0.46520  0.60756  0.76721  1.0000
  H   H1574     1.0  0.27210  0.70581  0.90030  1.0000
  H   H1575     1.0  0.27000  0.54090  0.96007  1.0000
  H   H1576     1.0  0.31290  0.50455  0.74858  1.0000
  H   H1577     1.0  0.33763  0.49721  0.79795  1.0000
  N   N99       1.0  0.45991  0.61700  0.80323  1.0000
  H   H1578     1.0  0.39482  0.55474  0.49402  1.0000
  H   H1579     1.0  0.48044  0.63592  0.78568  1.0000
  C   C992      1.0  0.42962  0.72982  0.96737  1.0000
  C   C993      1.0  0.46658  0.60613  0.78927  1.0000
  C   C994      1.0  0.37959  0.50177  0.70387  1.0000
  S   S382      1.0  0.42488  0.69044  0.93974  1.0000
  H   H1580     1.0  0.31668  0.52638  0.77216  1.0000
  S   S383      1.0  0.45249  0.66205  0.96039  1.0000
  H   H1581     1.0  0.23835  0.69295  0.93520  1.0000
  H   H1582     1.0  0.24380  0.51660  0.90569  1.0000
  H   H1583     1.0  0.35595  0.67099  0.97849  1.0000
  H   H1584     1.0  0.38100  0.64872  0.94485  1.0000
  C   C995      1.0  0.41516  0.53740  0.50270  1.0000
  C   C996      1.0  0.38723  0.65910  0.95045  1.0000
  C   C997      1.0  0.43255  0.49194  0.70167  1.0000
  C   C998      1.0  0.48269  0.60052  0.71544  1.0000
  S   S384      1.0  0.47172  0.52323  0.66616  1.0000
  Fe  Fe191     1.0  0.30804  0.52978  0.96359  1.0000
  C   C999      1.0  0.31399  0.50095  0.86310  1.0000
  C   C1000     1.0  0.46786  0.63322  0.78673  1.0000
  H   H1585     1.0  0.36801  0.67740  0.94272  1.0000
  H   H1586     1.0  0.45213  0.50950  0.72365  1.0000
  C   C1001     1.0  0.26323  0.67520  0.90230  1.0000
  C   C1002     1.0  0.46653  0.49835  0.64206  1.0000
  C   C1003     1.0  0.43057  0.70473  0.95742  1.0000
  H   H1587     1.0  0.33339  0.53055  0.78611  1.0000
  H   H1588     1.0  0.46672  0.63539  0.76449  1.0000
  H   H1589     1.0  0.46971  0.67389  0.82754  1.0000
  H   H1590     1.0  0.33361  0.52869  0.72471  1.0000
  N   N100      1.0  0.25335  0.68619  0.90357  1.0000
  C   C1004     1.0  0.24614  0.68504  0.93358  1.0000
  C   C1005     1.0  0.25223  0.73733  0.96348  1.0000
  C   C1006     1.0  0.24788  0.73823  0.91647  1.0000
  C   C1007     1.0  0.24111  0.68220  0.88888  1.0000
  H   H1591     1.0  0.47452  0.61649  0.83218  1.0000
  H   H1592     1.0  0.42502  0.73995  0.96499  1.0000
  H   H1593     1.0  0.24203  0.52938  0.96549  1.0000
  H   H1594     1.0  0.35028  0.49987  0.76387  1.0000
  C   C1008     1.0  0.36390  0.66753  0.96226  1.0000
  C   C1009     1.0  0.47538  0.50631  0.65703  1.0000
  Fe  Fe192     1.0  0.37902  0.58106  0.48585  1.0000
  H   H1595     1.0  0.35699  0.65741  0.95693  1.0000
  C   C1010     1.0  0.48335  0.63896  0.86379  1.0000
  H   H1596     1.0  0.45590  0.73515  0.91836  1.0000
  C   C1011     1.0  0.28951  0.49408  0.85066  1.0000
  H   H1597     1.0  0.40014  0.63478  0.48764  1.0000
  H   H1598     1.0  0.48462  0.57682  0.72191  1.0000
  H   H1599     1.0  0.47587  0.74178  0.89904  1.0000
  Fe  Fe193     1.0  0.44368  0.95760  0.24714  1.0000
  S   S385      1.0  0.44895  0.94738  0.20990  1.0000
  C   C1012     1.0  0.25685  0.79461  0.10824  1.0000
  Fe  Fe194     1.0  0.42544  0.92497  0.28558  1.0000
  S   S386      1.0  0.43045  0.91255  0.25131  1.0000
  S   S387      1.0  0.40830  0.91325  0.32853  1.0000
  Fe  Fe195     1.0  0.45441  0.92865  0.24007  1.0000
  H   H1600     1.0  0.31177  0.91899  0.02388  1.0000
  Fe  Fe196     1.0  0.42454  0.93237  0.22403  1.0000
  S   S388      1.0  0.40991  0.93075  0.19211  1.0000
  S   S389      1.0  0.45010  0.93927  0.27699  1.0000
  S   S390      1.0  0.41852  0.94426  0.25855  1.0000
  H   H1601     1.0  0.25588  0.81634  0.24179  1.0000
  H   H1602     1.0  0.25076  0.75799  0.09895  1.0000
  H   H1603     1.0  0.42525  0.90487  0.40939  1.0000
  S   S391      1.0  0.36523  0.80635  0.44420  1.0000
  C   C1013     1.0  0.25686  0.81652  0.21968  1.0000
  S   S392      1.0  0.29340  0.79584  0.05108  1.0000
  S   S393      1.0  0.39465  0.78901  0.00381  1.0000
  Fe  Fe197     1.0  0.37992  0.83091  0.43446  1.0000
  S   S394      1.0  0.39712  0.84186  0.39145  1.0000
  H   H1604     1.0  0.24471  0.97434  0.10965  1.0000
  H   H1605     1.0  0.31409  0.90145  0.08280  1.0000
  N   N101      1.0  0.45021  0.92285  0.14119  1.0000
  C   C1014     1.0  0.24443  0.80802  0.21182  1.0000
  H   H1606     1.0  0.29468  0.78773  0.33793  1.0000
  H   H1607     1.0  0.33236  0.92631  0.00912  1.0000
  Fe  Fe198     1.0  0.44998  0.79883  0.00194  1.0000
  S   S395      1.0  0.45697  0.80959  0.03641  1.0000
  C   C1015     1.0  0.25927  0.81696  0.16272  1.0000
  S   S396      1.0  0.43021  0.77734  0.02076  1.0000
  Fe  Fe199     1.0  0.33980  0.87189  0.16202  1.0000
  S   S397      1.0  0.33890  0.88619  0.11973  1.0000
  S   S398      1.0  0.36037  0.87251  0.18199  1.0000
  Fe  Fe200     1.0  0.30581  0.85321  0.17517  1.0000
  S   S399      1.0  0.30247  0.86596  0.13426  1.0000
  S   S400      1.0  0.28539  0.83674  0.20938  1.0000
  Fe  Fe201     1.0  0.32581  0.86342  0.11434  1.0000
  S   S401      1.0  0.32998  0.85911  0.07041  1.0000
  Fe  Fe202     1.0  0.31553  0.88742  0.14309  1.0000
  S   S402      1.0  0.30338  0.90677  0.14006  1.0000
  S   S403      1.0  0.32836  0.84890  0.15484  1.0000
  S   S404      1.0  0.31732  0.87488  0.18566  1.0000
  C   C1016     1.0  0.31975  0.84147  0.06538  1.0000
  C   C1017     1.0  0.30994  0.82947  0.08829  1.0000
  C   C1018     1.0  0.30209  0.81553  0.08360  1.0000
  C   C1019     1.0  0.30381  0.81348  0.05598  1.0000
  C   C1020     1.0  0.31356  0.82552  0.03306  1.0000
  C   C1021     1.0  0.32152  0.83942  0.03777  1.0000
  H   H1608     1.0  0.30854  0.83085  0.10967  1.0000
  H   H1609     1.0  0.27949  0.88591  0.20112  1.0000
  H   H1610     1.0  0.32910  0.84861  0.01993  1.0000
  C   C1022     1.0  0.31307  0.92504  0.11616  1.0000
  C   C1023     1.0  0.30495  0.93648  0.11135  1.0000
  C   C1024     1.0  0.31223  0.95092  0.09146  1.0000
  C   C1025     1.0  0.32764  0.95391  0.07617  1.0000
  C   C1026     1.0  0.33581  0.94253  0.08127  1.0000
  C   C1027     1.0  0.32858  0.92816  0.10135  1.0000
  H   H1611     1.0  0.29296  0.93415  0.12288  1.0000
  H   H1612     1.0  0.34780  0.94489  0.06969  1.0000
  H   H1613     1.0  0.33502  0.91955  0.10548  1.0000
  C   C1028     1.0  0.47301  0.82552  0.03162  1.0000
  H   H1614     1.0  0.33278  0.90086  0.99718  1.0000
  H   H1615     1.0  0.27975  0.77579  0.40142  1.0000
  H   H1616     1.0  0.42400  0.79767  0.06222  1.0000
  H   H1617     1.0  0.46765  0.82493  0.07613  1.0000
  C   C1029     1.0  0.36590  0.90387  0.25817  1.0000
  C   C1030     1.0  0.32322  0.91952  0.02876  1.0000
  H   H1618     1.0  0.36411  0.89230  0.25323  1.0000
  H   H1619     1.0  0.40555  0.79231  0.08776  1.0000
  H   H1620     1.0  0.28468  0.87157  0.18410  1.0000
  C   C1031     1.0  0.48462  0.89191  0.16916  1.0000
  N   N102      1.0  0.41167  0.88488  0.44337  1.0000
  C   C1032     1.0  0.27504  0.87405  0.19849  1.0000
  H   H1621     1.0  0.47636  0.96194  0.22867  1.0000
  H   H1622     1.0  0.45859  0.92447  0.09678  1.0000
  H   H1623     1.0  0.25712  0.76475  0.12729  1.0000
  H   H1624     1.0  0.26191  0.99014  0.05436  1.0000
  C   C1033     1.0  0.47008  0.89010  0.18740  1.0000
  C   C1034     1.0  0.24865  0.98513  0.11520  1.0000
  H   H1625     1.0  0.26025  0.81739  0.14058  1.0000
  C   C1035     1.0  0.39957  0.86149  0.37330  1.0000
  C   C1036     1.0  0.41194  0.86855  0.34902  1.0000
  C   C1037     1.0  0.41458  0.88434  0.33471  1.0000
  C   C1038     1.0  0.40487  0.89318  0.34466  1.0000
  C   C1039     1.0  0.39230  0.88603  0.36857  1.0000
  C   C1040     1.0  0.38965  0.87025  0.38284  1.0000
  H   H1626     1.0  0.41964  0.86184  0.34142  1.0000
  H   H1627     1.0  0.42431  0.88972  0.31632  1.0000
  H   H1628     1.0  0.38467  0.89278  0.37627  1.0000
  H   H1629     1.0  0.37994  0.86487  0.40122  1.0000
  C   C1041     1.0  0.25661  0.76844  0.10480  1.0000
  H   H1630     1.0  0.40171  0.86371  0.43325  1.0000
  S   S405      1.0  0.23913  0.75522  0.44041  1.0000
  C   C1042     1.0  0.29404  0.79012  0.45889  1.0000
  C   C1043     1.0  0.42542  0.87976  0.44878  1.0000
  C   C1044     1.0  0.39617  0.91438  0.18977  1.0000
  C   C1045     1.0  0.38492  0.91688  0.17496  1.0000
  C   C1046     1.0  0.37377  0.90423  0.17257  1.0000
  C   C1047     1.0  0.37390  0.88892  0.18469  1.0000
  C   C1048     1.0  0.38523  0.88643  0.19936  1.0000
  C   C1049     1.0  0.39630  0.89907  0.20189  1.0000
  H   H1631     1.0  0.38477  0.92868  0.16532  1.0000
  H   H1632     1.0  0.36518  0.90633  0.16114  1.0000
  H   H1633     1.0  0.38549  0.87462  0.20858  1.0000
  H   H1634     1.0  0.40507  0.89692  0.21282  1.0000
  S   S406      1.0  0.33683  0.97136  0.04962  1.0000
  C   C1050     1.0  0.27051  0.82527  0.19909  1.0000
  H   H1635     1.0  0.28217  0.83210  0.15455  1.0000
  H   H1636     1.0  0.31227  0.89354  0.01297  1.0000
  H   H1637     1.0  0.32387  0.92634  0.04487  1.0000
  H   H1638     1.0  0.27484  0.88273  0.14370  1.0000
  H   H1639     1.0  0.30131  0.89450  0.06246  1.0000
  Fe  Fe203     1.0  0.44212  0.76675  0.98872  1.0000
  H   H1640     1.0  0.46041  0.88069  0.18819  1.0000
  H   H1641     1.0  0.39657  0.89800  0.46014  1.0000
  H   H1642     1.0  0.38807  0.87441  0.44434  1.0000
  H   H1643     1.0  0.44272  0.94189  0.15401  1.0000
  H   H1644     1.0  0.39380  0.79544  0.36861  1.0000
  H   H1645     1.0  0.39632  0.90111  0.28688  1.0000
  C   C1051     1.0  0.36521  0.78793  0.99807  1.0000
  H   H1646     1.0  0.40368  0.81188  0.42737  1.0000
  H   H1647     1.0  0.32540  0.88298  0.02480  1.0000
  H   H1648     1.0  0.41655  0.90491  0.46010  1.0000
  H   H1649     1.0  0.26554  0.85460  0.16794  1.0000
  H   H1650     1.0  0.29477  0.80624  0.10155  1.0000
  H   H1651     1.0  0.40465  0.81516  0.36407  1.0000
  S   S407      1.0  0.27631  0.78865  0.98697  1.0000
  N   N103      1.0  0.37460  0.90458  0.28015  1.0000
  C   C1052     1.0  0.38968  0.90128  0.27041  1.0000
  C   C1053     1.0  0.32386  0.89493  0.01753  1.0000
  H   H1652     1.0  0.25516  0.88425  0.14973  1.0000
  S   S408      1.0  0.24152  0.75517  0.36058  1.0000
  H   H1653     1.0  0.38824  0.88976  0.26538  1.0000
  C   C1054     1.0  0.47550  0.83070  0.05545  1.0000
  H   H1654     1.0  0.43538  0.79590  0.46840  1.0000
  H   H1655     1.0  0.42915  0.87266  0.43423  1.0000
  C   C1055     1.0  0.35317  0.78603  0.98430  1.0000
  H   H1656     1.0  0.43539  0.88990  0.44581  1.0000
  H   H1657     1.0  0.30587  0.95965  0.08765  1.0000
  H   H1658     1.0  0.25079  0.80410  0.10620  1.0000
  H   H1659     1.0  0.45530  0.98189  0.29451  1.0000
  C   C1056     1.0  0.24562  0.80817  0.18329  1.0000
  S   S409      1.0  0.30032  0.76760  0.00159  1.0000
  C   C1057     1.0  0.36572  0.89286  0.30695  1.0000
  C   C1058     1.0  0.28143  0.75704  0.34887  1.0000
  C   C1059     1.0  0.37722  0.92033  0.28503  1.0000
  C   C1060     1.0  0.26524  0.88468  0.15920  1.0000
  H   H1660     1.0  0.35424  0.89496  0.31504  1.0000
  H   H1661     1.0  0.37209  0.89316  0.32385  1.0000
  Fe  Fe204     1.0  0.29608  0.79045  0.00784  1.0000
  H   H1662     1.0  0.34251  0.89332  0.05294  1.0000
  H   H1663     1.0  0.37222  0.91280  0.23787  1.0000
  H   H1664     1.0  0.27255  0.86539  0.21937  1.0000
  H   H1665     1.0  0.38380  0.92945  0.26510  1.0000
  H   H1666     1.0  0.38405  0.92137  0.30109  1.0000
  H   H1667     1.0  0.36609  0.92319  0.29277  1.0000
  H   H1668     1.0  0.46569  0.93247  0.16431  1.0000
  H   H1669     1.0  0.35430  0.90601  0.26494  1.0000
  C   C1061     1.0  0.46801  0.90037  0.20459  1.0000
  N   N104      1.0  0.41056  0.81448  0.05728  1.0000
  C   C1062     1.0  0.41895  0.82183  0.02721  1.0000
  C   C1063     1.0  0.41170  0.79821  0.06518  1.0000
  C   C1064     1.0  0.39407  0.81458  0.06121  1.0000
  C   C1065     1.0  0.41758  0.82328  0.07543  1.0000
  H   H1670     1.0  0.41846  0.83416  0.02057  1.0000
  H   H1671     1.0  0.41388  0.81557  0.01289  1.0000
  H   H1672     1.0  0.43139  0.82176  0.02335  1.0000
  H   H1673     1.0  0.40651  0.79121  0.05193  1.0000
  H   H1674     1.0  0.34184  0.78700  0.99433  1.0000
  H   H1675     1.0  0.39695  0.91034  0.25100  1.0000
  H   H1676     1.0  0.38733  0.80908  0.08363  1.0000
  H   H1677     1.0  0.38855  0.80797  0.04766  1.0000
  H   H1678     1.0  0.39272  0.82665  0.05532  1.0000
  H   H1679     1.0  0.41161  0.81805  0.09832  1.0000
  H   H1680     1.0  0.41695  0.83563  0.07006  1.0000
  H   H1681     1.0  0.43006  0.82338  0.07267  1.0000
  S   S410      1.0  0.47828  0.92561  0.22473  1.0000
  H   H1682     1.0  0.45679  0.89886  0.21865  1.0000
  S   S411      1.0  0.44671  0.74287  0.00062  1.0000
  H   H1683     1.0  0.36366  0.88084  0.30400  1.0000
  H   H1684     1.0  0.23945  0.76754  0.30389  1.0000
  H   H1685     1.0  0.31498  0.82413  0.01172  1.0000
  N   N105      1.0  0.28791  0.76534  0.36818  1.0000
  H   H1686     1.0  0.26015  0.78983  0.05613  1.0000
  C   C1066     1.0  0.30895  0.79037  0.46297  1.0000
  H   H1687     1.0  0.30940  0.77722  0.33700  1.0000
  H   H1688     1.0  0.43950  0.91580  0.18605  1.0000
  H   H1689     1.0  0.29027  0.80076  0.45648  1.0000
  H   H1690     1.0  0.26878  0.77237  0.09142  1.0000
  C   C1067     1.0  0.27535  0.76935  0.38671  1.0000
  Fe  Fe205     1.0  0.34622  0.81426  0.46880  1.0000
  C   C1068     1.0  0.40714  0.89426  0.46311  1.0000
  H   H1691     1.0  0.25214  0.88794  0.21031  1.0000
  C   C1069     1.0  0.27170  0.82542  0.17058  1.0000
  H   H1692     1.0  0.44482  0.90056  0.17140  1.0000
  H   H1693     1.0  0.47355  0.93750  0.12645  1.0000
  H   H1694     1.0  0.30484  0.78629  0.36542  1.0000
  H   H1695     1.0  0.27248  0.77624  0.45513  1.0000
  H   H1696     1.0  0.28629  0.74417  0.39898  1.0000
  S   S412      1.0  0.32086  0.80812  0.46549  1.0000
  C   C1070     1.0  0.28859  0.76232  0.46112  1.0000
  C   C1071     1.0  0.34069  0.90504  0.04480  1.0000
  C   C1072     1.0  0.25622  0.85724  0.18297  1.0000
  C   C1073     1.0  0.31362  0.77650  0.46592  1.0000
  H   H1697     1.0  0.32497  0.77639  0.46927  1.0000
  H   H1698     1.0  0.26882  0.79948  0.09430  1.0000
  H   H1699     1.0  0.29974  0.76097  0.40116  1.0000
  N   N106      1.0  0.32523  0.90375  0.03917  1.0000
  H   H1700     1.0  0.27288  0.98594  0.10146  1.0000
  H   H1701     1.0  0.31412  0.88335  0.07365  1.0000
  H   H1702     1.0  0.40532  0.89869  0.40906  1.0000
  N   N107      1.0  0.24853  0.78096  0.10059  1.0000
  C   C1074     1.0  0.31314  0.89542  0.06568  1.0000
  H   H1703     1.0  0.43945  0.91185  0.11321  1.0000
  H   H1704     1.0  0.24226  0.79498  0.06645  1.0000
  C   C1075     1.0  0.44027  0.91104  0.16707  1.0000
  N   N108      1.0  0.40804  0.79812  0.39781  1.0000
  C   C1076     1.0  0.39820  0.80397  0.38010  1.0000
  H   H1705     1.0  0.42154  0.80621  0.42511  1.0000
  C   C1077     1.0  0.42151  0.79520  0.37961  1.0000
  C   C1078     1.0  0.39894  0.78343  0.41905  1.0000
  H   H1706     1.0  0.43143  0.93277  0.13365  1.0000
  H   H1707     1.0  0.38799  0.80637  0.39323  1.0000
  C   C1079     1.0  0.45113  0.91592  0.11670  1.0000
  H   H1708     1.0  0.41978  0.82137  0.39723  1.0000
  C   C1080     1.0  0.42521  0.78614  0.47536  1.0000
  H   H1709     1.0  0.42823  0.90713  0.16505  1.0000
  H   H1710     1.0  0.42914  0.79072  0.39244  1.0000
  H   H1711     1.0  0.42868  0.80606  0.36343  1.0000
  H   H1712     1.0  0.41780  0.78635  0.36816  1.0000
  H   H1713     1.0  0.39411  0.77442  0.40882  1.0000
  H   H1714     1.0  0.38903  0.78527  0.43404  1.0000
  H   H1715     1.0  0.40620  0.77840  0.43206  1.0000
  N   N109      1.0  0.26128  0.87302  0.18689  1.0000
  H   H1716     1.0  0.45047  0.94544  0.11641  1.0000
  H   H1717     1.0  0.34217  0.91166  0.06097  1.0000
  C   C1081     1.0  0.24864  0.87610  0.20691  1.0000
  C   C1082     1.0  0.44346  0.93634  0.13599  1.0000
  S   S413      1.0  0.47765  0.74937  0.45727  1.0000
  H   H1718     1.0  0.48140  0.82925  0.98646  1.0000
  H   H1719     1.0  0.23806  0.87541  0.19882  1.0000
  C   C1083     1.0  0.24819  0.78550  0.07045  1.0000
  H   H1720     1.0  0.25337  0.98654  0.02611  1.0000
  H   H1721     1.0  0.27225  0.74621  0.36099  1.0000
  C   C1084     1.0  0.48055  0.91239  0.20386  1.0000
  C   C1085     1.0  0.41353  0.80990  0.41253  1.0000
  S   S414      1.0  0.44573  0.76837  0.46752  1.0000
  C   C1086     1.0  0.41538  0.89444  0.41374  1.0000
  C   C1087     1.0  0.30354  0.76262  0.46495  1.0000
  H   H1722     1.0  0.26650  0.75865  0.40000  1.0000
  H   H1723     1.0  0.47171  0.91832  0.14736  1.0000
  C   C1088     1.0  0.46595  0.92804  0.14500  1.0000
  H   H1724     1.0  0.45617  0.90567  0.12006  1.0000
  Fe  Fe206     1.0  0.41922  0.78741  0.98722  1.0000
  C   C1089     1.0  0.29499  0.75517  0.38594  1.0000
  S   S415      1.0  0.45526  0.98388  0.23460  1.0000
  C   C1090     1.0  0.42691  0.77094  0.47731  1.0000
  H   H1725     1.0  0.26925  0.89675  0.16130  1.0000
  H   H1726     1.0  0.25772  0.79149  0.13062  1.0000
  H   H1727     1.0  0.30732  0.75198  0.46744  1.0000
  C   C1091     1.0  0.37996  0.78660  0.98545  1.0000
  C   C1092     1.0  0.28392  0.77621  0.45805  1.0000
  S   S416      1.0  0.36047  0.83945  0.45583  1.0000
  C   C1093     1.0  0.29975  0.77979  0.35136  1.0000
  H   H1728     1.0  0.24541  0.86748  0.22800  1.0000
  C   C1094     1.0  0.39874  0.87105  0.44787  1.0000
  H   H1729     1.0  0.29050  0.75369  0.33462  1.0000
  H   H1730     1.0  0.24582  0.85589  0.17436  1.0000
  H   H1731     1.0  0.35012  0.91115  0.02523  1.0000
  H   H1732     1.0  0.41858  0.88764  0.39822  1.0000
  H   H1733     1.0  0.25334  0.84811  0.20338  1.0000
  H   H1734     1.0  0.36304  0.79036  0.01868  1.0000
  H   H1735     1.0  0.26929  0.77657  0.37418  1.0000
  H   H1736     1.0  0.27588  0.76436  0.33531  1.0000
  H   H1737     1.0  0.30458  0.75190  0.37282  1.0000
  H   H1738     1.0  0.48289  0.97273  0.26716  1.0000
  H   H1739     1.0  0.24211  0.77546  0.06380  1.0000
  S   S417      1.0  0.26253  0.74442  0.98698  1.0000
  S   S418      1.0  0.38978  0.82650  0.47245  1.0000
  S   S419      1.0  0.27649  0.74436  0.45987  1.0000
  Fe  Fe207     1.0  0.45171  0.74507  0.46913  1.0000
  H   H1740     1.0  0.42298  0.87250  0.47096  1.0000
  H   H1741     1.0  0.39570  0.86353  0.46993  1.0000
  C   C1095     1.0  0.48319  0.83313  0.00497  1.0000
  C   C1096     1.0  0.26458  0.99172  0.11039  1.0000
  H   H1742     1.0  0.40921  0.80055  0.48075  1.0000
  Fe  Fe208     1.0  0.44530  0.93037  0.61271  1.0000
  S   S420      1.0  0.44385  0.91569  0.65593  1.0000
  S   S421      1.0  0.45572  0.95687  0.59860  1.0000
  Fe  Fe209     1.0  0.43279  0.90133  0.59112  1.0000
  S   S422      1.0  0.43103  0.88508  0.63303  1.0000
  S   S423      1.0  0.42903  0.88999  0.55475  1.0000
  Fe  Fe210     1.0  0.42096  0.90215  0.65257  1.0000
  S   S424      1.0  0.40069  0.89172  0.69137  1.0000
  Fe  Fe211     1.0  0.45399  0.90002  0.63243  1.0000
  C   C1097     1.0  0.25775  0.81221  0.78436  1.0000
  S   S425      1.0  0.42140  0.91784  0.61069  1.0000
  S   S426      1.0  0.45674  0.91532  0.58915  1.0000
  S   S427      1.0  0.37117  0.85143  0.52172  1.0000
  H   H1743     1.0  0.23753  0.76730  0.54241  1.0000
  H   H1744     1.0  0.47494  0.88792  0.78242  1.0000
  C   C1098     1.0  0.24702  0.83054  0.67022  1.0000
  Fe  Fe212     1.0  0.37345  0.80261  0.48408  1.0000
  C   C1099     1.0  0.47720  0.81913  0.88317  1.0000
  C   C1100     1.0  0.33717  0.91491  0.74158  1.0000
  C   C1101     1.0  0.39722  0.77628  0.49121  1.0000
  Fe  Fe213     1.0  0.44955  0.79626  0.94207  1.0000
  S   S428      1.0  0.45979  0.80440  0.89470  1.0000
  C   C1102     1.0  0.46616  0.96432  0.64448  1.0000
  H   H1745     1.0  0.33208  0.83495  0.84601  1.0000
  Fe  Fe214     1.0  0.28057  0.86051  0.71498  1.0000
  S   S429      1.0  0.27380  0.85464  0.76270  1.0000
  S   S430      1.0  0.26802  0.85204  0.68383  1.0000
  Fe  Fe215     1.0  0.31300  0.87990  0.71110  1.0000
  S   S431      1.0  0.30926  0.87541  0.75833  1.0000
  S   S432      1.0  0.33410  0.89577  0.67820  1.0000
  Fe  Fe216     1.0  0.29757  0.85083  0.75975  1.0000
  S   S433      1.0  0.30089  0.82872  0.78545  1.0000
  Fe  Fe217     1.0  0.28596  0.87978  0.75753  1.0000
  S   S434      1.0  0.27701  0.89435  0.78553  1.0000
  S   S435      1.0  0.30359  0.85493  0.71235  1.0000
  S   S436      1.0  0.29050  0.88606  0.71007  1.0000
  H   H1746     1.0  0.28478  0.82237  0.74382  1.0000
  C   C1103     1.0  0.36409  0.92804  0.71928  1.0000
  H   H1747     1.0  0.46720  0.77666  0.91973  1.0000
  Fe  Fe218     1.0  0.29459  0.80132  0.94649  1.0000
  H   H1748     1.0  0.27747  0.78712  0.76226  1.0000
  S   S437      1.0  0.29272  0.82300  0.91685  1.0000
  H   H1749     1.0  0.35918  0.81198  0.86874  1.0000
  H   H1750     1.0  0.34500  0.84790  0.85907  1.0000
  H   H1751     1.0  0.40299  0.84829  0.51784  1.0000
  H   H1752     1.0  0.26994  0.96866  0.74337  1.0000
  H   H1753     1.0  0.23787  0.96065  0.78400  1.0000
  S   S438      1.0  0.29876  0.77952  0.93534  1.0000
  C   C1104     1.0  0.39227  0.87791  0.62335  1.0000
  H   H1754     1.0  0.24373  0.93013  0.81368  1.0000
  H   H1755     1.0  0.34863  0.81584  0.91661  1.0000
  H   H1756     1.0  0.26622  0.97092  0.77903  1.0000
  C   C1105     1.0  0.34693  0.94197  0.74024  1.0000
  C   C1106     1.0  0.29778  0.82696  0.82214  1.0000
  C   C1107     1.0  0.29700  0.81266  0.84049  1.0000
  C   C1108     1.0  0.29484  0.81111  0.86981  1.0000
  C   C1109     1.0  0.29381  0.82396  0.88077  1.0000
  C   C1110     1.0  0.29442  0.83820  0.86242  1.0000
  C   C1111     1.0  0.29631  0.83969  0.83319  1.0000
  H   H1757     1.0  0.29801  0.80274  0.83206  1.0000
  H   H1758     1.0  0.29406  0.80001  0.88388  1.0000
  H   H1759     1.0  0.29351  0.84816  0.87082  1.0000
  H   H1760     1.0  0.29679  0.85074  0.81921  1.0000
  C   C1112     1.0  0.28787  0.91385  0.77737  1.0000
  C   C1113     1.0  0.28743  0.92182  0.79874  1.0000
  C   C1114     1.0  0.29536  0.93765  0.79235  1.0000
  C   C1115     1.0  0.30356  0.94565  0.76443  1.0000
  C   C1116     1.0  0.30394  0.93770  0.74307  1.0000
  C   C1117     1.0  0.29624  0.92182  0.74952  1.0000
  H   H1761     1.0  0.28099  0.91569  0.82034  1.0000
  H   H1762     1.0  0.31000  0.94393  0.72135  1.0000
  H   H1763     1.0  0.29641  0.91584  0.73282  1.0000
  H   H1764     1.0  0.47531  0.97030  0.67876  1.0000
  H   H1765     1.0  0.46156  0.74701  0.54195  1.0000
  H   H1766     1.0  0.47358  0.77395  0.48697  1.0000
  Fe  Fe219     1.0  0.30133  0.98616  0.84362  1.0000
  N   N110      1.0  0.34125  0.82349  0.87878  1.0000
  H   H1767     1.0  0.26028  0.94242  0.73545  1.0000
  H   H1768     1.0  0.46520  0.88716  0.81799  1.0000
  H   H1769     1.0  0.31839  0.80974  0.90144  1.0000
  H   H1770     1.0  0.35531  0.83650  0.90025  1.0000
  H   H1771     1.0  0.35211  0.81982  0.83909  1.0000
  C   C1118     1.0  0.39893  0.76106  0.49364  1.0000
  H   H1772     1.0  0.41492  0.74662  0.48826  1.0000
  C   C1119     1.0  0.33582  0.83677  0.86532  1.0000
  S   S439      1.0  0.35362  0.80926  0.50966  1.0000
  C   C1120     1.0  0.46408  0.74317  0.89853  1.0000
  H   H1773     1.0  0.29515  0.94364  0.80903  1.0000
  H   H1774     1.0  0.48019  0.92210  0.63234  1.0000
  C   C1121     1.0  0.25327  0.94104  0.80585  1.0000
  H   H1775     1.0  0.48497  0.85016  0.80126  1.0000
  C   C1122     1.0  0.44759  0.76082  0.89517  1.0000
  Fe  Fe220     1.0  0.28179  0.76688  0.97736  1.0000
  H   H1776     1.0  0.47655  0.82376  0.92409  1.0000
  H   H1777     1.0  0.44786  0.75563  0.56003  1.0000
  H   H1778     1.0  0.27555  0.80809  0.57045  1.0000
  C   C1123     1.0  0.48320  0.90090  0.70985  1.0000
  C   C1124     1.0  0.41252  0.87882  0.54733  1.0000
  C   C1125     1.0  0.39824  0.88260  0.55162  1.0000
  C   C1126     1.0  0.38571  0.87396  0.54399  1.0000
  C   C1127     1.0  0.38727  0.86153  0.53170  1.0000
  C   C1128     1.0  0.40158  0.85783  0.52719  1.0000
  C   C1129     1.0  0.41412  0.86649  0.53478  1.0000
  H   H1779     1.0  0.39696  0.89244  0.56011  1.0000
  H   H1780     1.0  0.37478  0.87710  0.54722  1.0000
  C   C1130     1.0  0.48220  0.99012  0.64227  1.0000
  H   H1781     1.0  0.38875  0.75129  0.50068  1.0000
  H   H1782     1.0  0.46621  0.90363  0.68596  1.0000
  C   C1131     1.0  0.38228  0.89363  0.68831  1.0000
  C   C1132     1.0  0.38046  0.90324  0.66402  1.0000
  C   C1133     1.0  0.36558  0.90369  0.66110  1.0000
  C   C1134     1.0  0.35246  0.89454  0.68242  1.0000
  C   C1135     1.0  0.35423  0.88508  0.70696  1.0000
  C   C1136     1.0  0.36915  0.88475  0.70999  1.0000
  H   H1783     1.0  0.39050  0.91032  0.64742  1.0000
  H   H1784     1.0  0.36424  0.91114  0.64220  1.0000
  H   H1785     1.0  0.34412  0.87803  0.72354  1.0000
  H   H1786     1.0  0.37051  0.87730  0.72885  1.0000
  H   H1787     1.0  0.46025  0.95247  0.65644  1.0000
  H   H1788     1.0  0.48241  0.76240  0.55701  1.0000
  S   S440      1.0  0.43836  0.80955  0.96996  1.0000
  N   N111      1.0  0.26401  0.80396  0.76386  1.0000
  C   C1137     1.0  0.32874  0.80903  0.88606  1.0000
  H   H1789     1.0  0.44984  0.75656  0.52309  1.0000
  C   C1138     1.0  0.34427  0.93468  0.69712  1.0000
  H   H1790     1.0  0.42516  0.86359  0.53100  1.0000
  S   S441      1.0  0.34091  0.78028  0.93982  1.0000
  H   H1791     1.0  0.24473  0.80235  0.74500  1.0000
  C   C1139     1.0  0.26824  0.96257  0.76605  1.0000
  C   C1140     1.0  0.46770  0.87986  0.80310  1.0000
  H   H1792     1.0  0.24206  0.95820  0.74864  1.0000
  H   H1793     1.0  0.46984  0.79660  0.52271  1.0000
  H   H1794     1.0  0.29499  0.79659  0.54570  1.0000
  H   H1795     1.0  0.47164  0.84902  0.85074  1.0000
  H   H1796     1.0  0.37264  0.77897  0.92451  1.0000
  S   S442      1.0  0.42944  0.77488  0.95663  1.0000
  Fe  Fe221     1.0  0.36950  0.83370  0.49480  1.0000
  H   H1797     1.0  0.32506  0.80677  0.86698  1.0000
  N   N112      1.0  0.38451  0.86126  0.63674  1.0000
  H   H1798     1.0  0.40455  0.88750  0.48565  1.0000
  H   H1799     1.0  0.47803  0.93428  0.65630  1.0000
  N   N113      1.0  0.34811  0.92990  0.72457  1.0000
  C   C1141     1.0  0.35577  0.78276  0.95776  1.0000
  H   H1800     1.0  0.44438  0.75743  0.87649  1.0000
  H   H1801     1.0  0.38950  0.84133  0.66143  1.0000
  H   H1802     1.0  0.27093  0.77920  0.57999  1.0000
  H   H1803     1.0  0.25253  0.77846  0.57200  1.0000
  H   H1804     1.0  0.33747  0.90566  0.73006  1.0000
  H   H1805     1.0  0.37266  0.93906  0.70616  1.0000
  C   C1142     1.0  0.25069  0.83721  0.69187  1.0000
  H   H1806     1.0  0.39565  0.88401  0.63920  1.0000
  H   H1807     1.0  0.33550  0.82802  0.91980  1.0000
  S   S443      1.0  0.47371  0.88935  0.63948  1.0000
  H   H1808     1.0  0.39144  0.85435  0.59829  1.0000
  H   H1809     1.0  0.38465  0.88407  0.61312  1.0000
  H   H1810     1.0  0.24957  0.80393  0.80386  1.0000
  S   S444      1.0  0.37844  0.77920  0.49851  1.0000
  H   H1811     1.0  0.33238  0.79869  0.89597  1.0000
  C   C1143     1.0  0.46537  0.96951  0.61640  1.0000
  S   S445      1.0  0.28597  0.97252  0.82222  1.0000
  C   C1144     1.0  0.27241  0.79341  0.77721  1.0000
  H   H1812     1.0  0.37493  0.84085  0.62405  1.0000
  N   N114      1.0  0.46846  0.77206  0.53181  1.0000
  H   H1813     1.0  0.24310  0.83737  0.73561  1.0000
  H   H1814     1.0  0.36463  0.83267  0.85287  1.0000
  H   H1815     1.0  0.26895  0.82392  0.72819  1.0000
  H   H1816     1.0  0.47888  0.90718  0.72464  1.0000
  H   H1817     1.0  0.46281  0.86421  0.85757  1.0000
  C   C1145     1.0  0.25622  0.74450  0.93431  1.0000
  H   H1818     1.0  0.47430  0.78226  0.86788  1.0000
  H   H1819     1.0  0.35507  0.95343  0.72812  1.0000
  H   H1820     1.0  0.29054  0.78650  0.51979  1.0000
  S   S446      1.0  0.30355  0.97609  0.88773  1.0000
  H   H1821     1.0  0.47217  0.98937  0.57997  1.0000
  H   H1822     1.0  0.44661  0.77298  0.89373  1.0000
  H   H1823     1.0  0.26398  0.93795  0.80974  1.0000
  C   C1146     1.0  0.38078  0.85346  0.61477  1.0000
  C   C1147     1.0  0.24051  0.83206  0.71899  1.0000
  C   C1148     1.0  0.47946  0.77355  0.50455  1.0000
  C   C1149     1.0  0.47604  0.89896  0.68790  1.0000
  C   C1150     1.0  0.46108  0.78516  0.52881  1.0000
  C   C1151     1.0  0.46714  0.76425  0.92122  1.0000
  C   C1152     1.0  0.30198  0.98735  0.91253  1.0000
  H   H1824     1.0  0.33508  0.94382  0.74430  1.0000
  N   N115      1.0  0.47569  0.86826  0.81427  1.0000
  C   C1153     1.0  0.47277  0.98516  0.60162  1.0000
  C   C1154     1.0  0.48308  0.93434  0.63395  1.0000
  H   H1825     1.0  0.47875  0.76295  0.92333  1.0000
  H   H1826     1.0  0.25111  0.74386  0.89396  1.0000
  H   H1827     1.0  0.32502  0.91592  0.74638  1.0000
  H   H1828     1.0  0.37259  0.86498  0.67556  1.0000
  H   H1829     1.0  0.26932  0.80572  0.49939  1.0000
  H   H1830     1.0  0.45655  0.87415  0.79934  1.0000
  C   C1155     1.0  0.48169  0.89106  0.66846  1.0000
  S   S447      1.0  0.31337  0.96558  0.75536  1.0000
  H   H1831     1.0  0.33986  0.91074  0.76222  1.0000
  H   H1832     1.0  0.31170  0.99008  0.97448  1.0000
  H   H1833     1.0  0.36534  0.91893  0.70769  1.0000
  H   H1834     1.0  0.34952  0.93866  0.76125  1.0000
  C   C1156     1.0  0.45640  0.75717  0.53960  1.0000
  N   N116      1.0  0.25529  0.94833  0.77542  1.0000
  C   C1157     1.0  0.38262  0.78343  0.95881  1.0000
  H   H1835     1.0  0.36744  0.92448  0.73948  1.0000
  C   C1158     1.0  0.35492  0.82195  0.85894  1.0000
  H   H1836     1.0  0.26969  0.93415  0.76080  1.0000
  H   H1837     1.0  0.34562  0.92614  0.68426  1.0000
  H   H1838     1.0  0.26576  0.75485  0.92552  1.0000
  Fe  Fe222     1.0  0.30662  0.98058  0.78460  1.0000
  N   N117      1.0  0.46337  0.75951  0.89624  1.0000
  H   H1839     1.0  0.31277  0.97391  0.93984  1.0000
  H   H1840     1.0  0.32560  0.83828  0.88009  1.0000
  C   C1159     1.0  0.47463  0.97452  0.65717  1.0000
  C   C1160     1.0  0.25879  0.93730  0.75850  1.0000
  H   H1841     1.0  0.26597  0.76967  0.55356  1.0000
  H   H1842     1.0  0.45470  0.85101  0.83875  1.0000
  C   C1161     1.0  0.30768  0.98371  0.93659  1.0000
  H   H1843     1.0  0.40598  0.85477  0.63524  1.0000
  H   H1844     1.0  0.39815  0.85970  0.66728  1.0000
  H   H1845     1.0  0.35190  0.94623  0.68412  1.0000
  C   C1162     1.0  0.39497  0.85389  0.65082  1.0000
  C   C1163     1.0  0.37007  0.85985  0.65805  1.0000
  H   H1846     1.0  0.37294  0.85880  0.60369  1.0000
  H   H1847     1.0  0.36225  0.86606  0.64850  1.0000
  H   H1848     1.0  0.40310  0.87942  0.60689  1.0000
  H   H1849     1.0  0.36353  0.84745  0.66780  1.0000
  C   C1164     1.0  0.34540  0.82610  0.90496  1.0000
  H   H1850     1.0  0.43876  0.75319  0.91453  1.0000
  S   S448      1.0  0.31390  0.80482  0.96814  1.0000
  H   H1851     1.0  0.45456  0.78514  0.51208  1.0000
  H   H1852     1.0  0.26465  0.78458  0.79651  1.0000
  N   N118      1.0  0.27188  0.79474  0.54026  1.0000
  C   C1165     1.0  0.26404  0.79491  0.51697  1.0000
  C   C1166     1.0  0.26982  0.80784  0.55275  1.0000
  C   C1167     1.0  0.28858  0.79636  0.52893  1.0000
  C   C1168     1.0  0.26504  0.77986  0.56241  1.0000
  H   H1853     1.0  0.25152  0.79438  0.52457  1.0000
  C   C1169     1.0  0.47690  0.77230  0.55421  1.0000
  C   C1170     1.0  0.47902  0.85910  0.79349  1.0000
  H   H1854     1.0  0.25728  0.80689  0.56152  1.0000
  H   H1855     1.0  0.26719  0.81921  0.79120  1.0000
  H   H1856     1.0  0.27482  0.81926  0.53661  1.0000
  H   H1857     1.0  0.29412  0.80730  0.51169  1.0000
  H   H1858     1.0  0.33206  0.93548  0.70027  1.0000
  C   C1171     1.0  0.25116  0.79474  0.75551  1.0000
  S   S449      1.0  0.46292  0.78742  0.97242  1.0000
  C   C1172     1.0  0.46574  0.85767  0.84150  1.0000
  C   C1173     1.0  0.41373  0.75838  0.48660  1.0000
  H   H1859     1.0  0.25481  0.83459  0.64914  1.0000
  H   H1860     1.0  0.45852  0.75714  0.94123  1.0000
  H   H1861     1.0  0.28213  0.79999  0.78395  1.0000
  H   H1862     1.0  0.27934  0.95989  0.76825  1.0000
  C   C1174     1.0  0.27476  0.81547  0.73837  1.0000
  H   H1863     1.0  0.25546  0.78827  0.74019  1.0000
  H   H1864     1.0  0.27947  0.80976  0.72207  1.0000
  H   H1865     1.0  0.47223  0.76663  0.85078  1.0000
  H   H1866     1.0  0.45268  0.78443  0.54897  1.0000
  H   H1867     1.0  0.25145  0.82038  0.77494  1.0000
  C   C1175     1.0  0.48282  0.82693  0.90193  1.0000
  H   H1868     1.0  0.24944  0.92624  0.76532  1.0000
  H   H1869     1.0  0.26479  0.78482  0.50776  1.0000
  H   H1870     1.0  0.46902  0.77131  0.57508  1.0000
  C   C1176     1.0  0.47467  0.76985  0.87013  1.0000
  C   C1177     1.0  0.24089  0.95244  0.77132  1.0000
  H   H1871     1.0  0.39392  0.78237  0.94890  1.0000
  H   H1872     1.0  0.25060  0.94910  0.81916  1.0000
  H   H1873     1.0  0.47707  0.94088  0.62019  1.0000
  H   H1874     1.0  0.24267  0.78609  0.77424  1.0000
  H   H1875     1.0  0.48114  0.81720  0.84000  1.0000
  H   H1876     1.0  0.48472  0.76349  0.50566  1.0000
  C   C1178     1.0  0.37055  0.78152  0.94503  1.0000
  Fe  Fe223     1.0  0.31689  0.78208  0.96017  1.0000
  H   H1877     1.0  0.46824  0.85295  0.78913  1.0000
  C   C1179     1.0  0.41042  0.78882  0.48226  1.0000
  Fe  Fe224     1.0  0.50303  0.05744  0.27860  1.0000
  S   S450      1.0  0.51090  0.07099  0.23276  1.0000
  H   H1878     1.0  0.64306  0.17973  0.06493  1.0000
  Fe  Fe225     1.0  0.52019  0.08559  0.29839  1.0000
  S   S451      1.0  0.52875  0.10087  0.25369  1.0000
  S   S452      1.0  0.52623  0.09210  0.33796  1.0000
  Fe  Fe226     1.0  0.50486  0.09094  0.24899  1.0000
  H   H1879     1.0  0.49501  0.10949  0.06395  1.0000
  Fe  Fe227     1.0  0.53396  0.07949  0.24188  1.0000
  S   S453      1.0  0.55644  0.07720  0.21601  1.0000
  S   S454      1.0  0.49581  0.07702  0.29462  1.0000
  S   S455      1.0  0.52654  0.06457  0.28680  1.0000
  Fe  Fe228     1.0  0.57149  0.15863  0.40046  1.0000
  S   S456      1.0  0.55335  0.15314  0.44158  1.0000
  S   S457      1.0  0.56831  0.15257  0.35905  1.0000
  Fe  Fe229     1.0  0.59542  0.18092  0.42048  1.0000
  H   H1880     1.0  0.68227  0.09585  0.01694  1.0000
  S   S458      1.0  0.62129  0.19418  0.40383  1.0000
  H   H1881     1.0  0.65663  0.10126  0.08009  1.0000
  S   S459      1.0  0.66279  0.00918  0.07946  1.0000
  Fe  Fe230     1.0  0.56052  0.17886  0.43815  1.0000
  S   S460      1.0  0.54013  0.18906  0.44944  1.0000
  S   S461      1.0  0.59044  0.15522  0.42225  1.0000
  S   S462      1.0  0.57758  0.18460  0.39585  1.0000
  H   H1882     1.0  0.71446  0.19238  0.23215  1.0000
  H   H1883     1.0  0.62902  0.18399  0.13743  1.0000
  H   H1884     1.0  0.63487  0.16611  0.14378  1.0000
  S   S463      1.0  0.62812  0.02591  0.11631  1.0000
  C   C1180     1.0  0.72379  0.22875  0.36695  1.0000
  Fe  Fe231     1.0  0.67363  0.13423  0.16657  1.0000
  S   S464      1.0  0.68338  0.12939  0.12532  1.0000
  S   S465      1.0  0.68822  0.13909  0.19718  1.0000
  Fe  Fe232     1.0  0.64096  0.12796  0.15816  1.0000
  S   S466      1.0  0.64804  0.12229  0.11620  1.0000
  S   S467      1.0  0.61779  0.13238  0.17542  1.0000
  Fe  Fe233     1.0  0.66261  0.10886  0.13755  1.0000
  S   S468      1.0  0.67042  0.08827  0.12618  1.0000
  Fe  Fe234     1.0  0.66824  0.14300  0.10704  1.0000
  S   S469      1.0  0.67848  0.16068  0.06464  1.0000
  S   S470      1.0  0.65374  0.11265  0.18060  1.0000
  S   S471      1.0  0.66029  0.14980  0.14724  1.0000
  C   C1181     1.0  0.64766  0.17217  0.00558  1.0000
  C   C1182     1.0  0.64234  0.15872  0.02833  1.0000
  C   C1183     1.0  0.65182  0.15490  0.04627  1.0000
  C   C1184     1.0  0.66668  0.16454  0.04152  1.0000
  C   C1185     1.0  0.67215  0.17774  0.01830  1.0000
  H   H1885     1.0  0.54008  0.17863  0.36316  1.0000
  H   H1886     1.0  0.63078  0.15135  0.03218  1.0000
  H   H1887     1.0  0.64754  0.14464  0.06394  1.0000
  H   H1888     1.0  0.68366  0.18522  0.01448  1.0000
  Fe  Fe235     1.0  0.63801  0.00722  0.10112  1.0000
  C   C1186     1.0  0.63988  0.04380  0.11694  1.0000
  C   C1187     1.0  0.65594  0.04779  0.10595  1.0000
  C   C1188     1.0  0.66512  0.06148  0.10902  1.0000
  C   C1189     1.0  0.65829  0.07148  0.12236  1.0000
  C   C1190     1.0  0.64219  0.06784  0.13239  1.0000
  C   C1191     1.0  0.63302  0.05395  0.12985  1.0000
  H   H1889     1.0  0.66129  0.04027  0.09528  1.0000
  H   H1890     1.0  0.67759  0.06434  0.10099  1.0000
  H   H1891     1.0  0.63682  0.07551  0.14263  1.0000
  H   H1892     1.0  0.62057  0.05095  0.13824  1.0000
  H   H1893     1.0  0.60338  0.17284  0.10929  1.0000
  C   C1192     1.0  0.63334  0.20856  0.41535  1.0000
  C   C1193     1.0  0.62727  0.21749  0.43237  1.0000
  C   C1194     1.0  0.73286  0.21565  0.33117  1.0000
  C   C1195     1.0  0.66336  0.01618  0.14578  1.0000
  C   C1196     1.0  0.65961  0.22330  0.41338  1.0000
  C   C1197     1.0  0.64959  0.21157  0.40596  1.0000
  H   H1894     1.0  0.61484  0.21545  0.43968  1.0000
  H   H1895     1.0  0.67204  0.22543  0.40588  1.0000
  H   H1896     1.0  0.65448  0.20481  0.39275  1.0000
  C   C1198     1.0  0.53740  0.20626  0.42924  1.0000
  C   C1199     1.0  0.54849  0.21566  0.40470  1.0000
  C   C1200     1.0  0.54573  0.22919  0.38911  1.0000
  H   H1897     1.0  0.50566  0.17834  0.38461  1.0000
  C   C1201     1.0  0.52075  0.22391  0.42229  1.0000
  C   C1202     1.0  0.52352  0.21042  0.43789  1.0000
  H   H1898     1.0  0.55922  0.21257  0.39789  1.0000
  C   C1203     1.0  0.53186  0.23337  0.39788  1.0000
  H   H1899     1.0  0.51324  0.16907  0.35828  1.0000
  H   H1900     1.0  0.63239  0.23641  0.45201  1.0000
  H   H1901     1.0  0.49982  0.12372  0.08331  1.0000
  C   C1204     1.0  0.61622  0.20464  0.33490  1.0000
  H   H1902     1.0  0.69472  0.16790  0.23823  1.0000
  C   C1205     1.0  0.64249  0.17928  0.08765  1.0000
  H   H1903     1.0  0.69886  0.19993  0.24682  1.0000
  H   H1904     1.0  0.54351  0.17526  0.39790  1.0000
  H   H1905     1.0  0.70582  0.15764  0.29279  1.0000
  C   C1206     1.0  0.53751  0.10934  0.34334  1.0000
  C   C1207     1.0  0.53899  0.10951  0.37093  1.0000
  C   C1208     1.0  0.54819  0.12263  0.37621  1.0000
  C   C1209     1.0  0.55620  0.13578  0.35385  1.0000
  C   C1210     1.0  0.55470  0.13565  0.32626  1.0000
  C   C1211     1.0  0.54537  0.12260  0.32102  1.0000
  H   H1906     1.0  0.53299  0.09935  0.38840  1.0000
  H   H1907     1.0  0.54920  0.12244  0.39757  1.0000
  H   H1908     1.0  0.56074  0.14577  0.30877  1.0000
  H   H1909     1.0  0.54424  0.12282  0.29973  1.0000
  H   H1910     1.0  0.50348  0.15262  0.43655  1.0000
  C   C1212     1.0  0.57329  0.09281  0.20367  1.0000
  C   C1213     1.0  0.57277  0.10798  0.20466  1.0000
  C   C1214     1.0  0.58652  0.12002  0.19593  1.0000
  C   C1215     1.0  0.60083  0.11699  0.18594  1.0000
  C   C1216     1.0  0.60136  0.10186  0.18468  1.0000
  C   C1217     1.0  0.58760  0.08982  0.19348  1.0000
  H   H1911     1.0  0.56176  0.11045  0.21203  1.0000
  H   H1912     1.0  0.58604  0.13173  0.19679  1.0000
  H   H1913     1.0  0.61234  0.09943  0.17693  1.0000
  H   H1914     1.0  0.58806  0.07810  0.19254  1.0000
  S   S472      1.0  0.57862  0.17722  0.46269  1.0000
  H   H1915     1.0  0.66251  0.12736  0.02513  1.0000
  C   C1218     1.0  0.70281  0.15669  0.18795  1.0000
  C   C1219     1.0  0.71438  0.15797  0.20279  1.0000
  C   C1220     1.0  0.72458  0.18547  0.17836  1.0000
  H   H1916     1.0  0.65307  0.01726  0.13759  1.0000
  C   C1221     1.0  0.71332  0.18408  0.16288  1.0000
  C   C1222     1.0  0.70246  0.16974  0.16763  1.0000
  H   H1917     1.0  0.55437  0.23648  0.37024  1.0000
  Fe  Fe236     1.0  0.65215  0.99473  0.05308  1.0000
  H   H1918     1.0  0.69363  0.16885  0.15600  1.0000
  C   C1223     1.0  0.49004  0.11577  0.07901  1.0000
  S   S473      1.0  0.70340  0.23575  0.45062  1.0000
  H   H1919     1.0  0.71481  0.14786  0.21829  1.0000
  C   C1224     1.0  0.53469  0.17717  0.38601  1.0000
  H   H1920     1.0  0.62740  0.20710  0.34103  1.0000
  H   H1921     1.0  0.49454  0.08787  0.19205  1.0000
  H   H1922     1.0  0.53212  0.18837  0.38843  1.0000
  H   H1923     1.0  0.66795  0.12961  0.05702  1.0000
  H   H1924     1.0  0.51164  0.17312  0.43176  1.0000
  N   N119      1.0  0.62680  0.17111  0.10606  1.0000
  C   C1225     1.0  0.67425  0.01431  0.18621  1.0000
  C   C1226     1.0  0.63488  0.99383  0.99413  1.0000
  C   C1227     1.0  0.65353  0.23248  0.42983  1.0000
  C   C1228     1.0  0.62299  0.15463  0.10503  1.0000
  H   H1925     1.0  0.67707  0.00315  0.18400  1.0000
  C   C1229     1.0  0.62640  0.19191  0.30005  1.0000
  H   H1926     1.0  0.67065  0.10745  0.00205  1.0000
  H   H1927     1.0  0.53337  0.14678  0.40338  1.0000
  H   H1928     1.0  0.61787  0.19121  0.09637  1.0000
  S   S474      1.0  0.72888  0.20419  0.30766  1.0000
  H   H1929     1.0  0.61547  0.17841  0.07361  1.0000
  H   H1930     1.0  0.69274  0.01108  0.10927  1.0000
  H   H1931     1.0  0.52274  0.15953  0.43993  1.0000
  H   H1932     1.0  0.61151  0.14796  0.11966  1.0000
  H   H1933     1.0  0.63168  0.14865  0.11164  1.0000
  H   H1934     1.0  0.62260  0.15360  0.08331  1.0000
  C   C1230     1.0  0.65073  0.99538  0.98434  1.0000
  H   H1935     1.0  0.67253  0.01431  0.20898  1.0000
  H   H1936     1.0  0.68472  0.16828  0.31449  1.0000
  S   S475      1.0  0.48961  0.10589  0.23346  1.0000
  H   H1937     1.0  0.60700  0.20370  0.35411  1.0000
  H   H1938     1.0  0.68313  0.15684  0.27283  1.0000
  H   H1939     1.0  0.71648  0.02743  0.11591  1.0000
  H   H1940     1.0  0.71284  0.19420  0.14745  1.0000
  H   H1941     1.0  0.69876  0.18627  0.30957  1.0000
  H   H1942     1.0  0.65138  0.17337  0.09364  1.0000
  C   C1231     1.0  0.64701  0.00282  0.19248  1.0000
  H   H1943     1.0  0.62487  0.18119  0.29223  1.0000
  H   H1944     1.0  0.71520  0.20054  0.26182  1.0000
  C   C1232     1.0  0.61365  0.17692  0.34819  1.0000
  H   H1945     1.0  0.61155  0.16572  0.34197  1.0000
  H   H1946     1.0  0.62474  0.17869  0.35472  1.0000
  H   H1947     1.0  0.60435  0.17547  0.36743  1.0000
  N   N120      1.0  0.67479  0.11107  0.04148  1.0000
  H   H1948     1.0  0.68231  0.13600  0.02398  1.0000
  C   C1233     1.0  0.66050  0.09919  0.05883  1.0000
  C   C1234     1.0  0.68716  0.11092  0.05664  1.0000
  C   C1235     1.0  0.67978  0.10752  0.01392  1.0000
  H   H1949     1.0  0.63033  0.99539  0.01477  1.0000
  H   H1950     1.0  0.65079  0.09918  0.04843  1.0000
  H   H1951     1.0  0.64643  0.03245  0.17201  1.0000
  H   H1952     1.0  0.69827  0.11937  0.04386  1.0000
  H   H1953     1.0  0.49781  0.14495  0.04401  1.0000
  H   H1954     1.0  0.68212  0.18640  0.29567  1.0000
  H   H1955     1.0  0.66233  0.08724  0.06265  1.0000
  S   S476      1.0  0.63496  0.17730  0.98519  1.0000
  H   H1956     1.0  0.68398  0.11417  0.07700  1.0000
  H   H1957     1.0  0.51489  0.20321  0.45688  1.0000
  H   H1958     1.0  0.67333  0.02600  0.13250  1.0000
  H   H1959     1.0  0.64436  0.00225  0.21554  1.0000
  N   N121      1.0  0.57155  0.09012  0.29207  1.0000
  C   C1236     1.0  0.56232  0.07434  0.30900  1.0000
  C   C1237     1.0  0.57668  0.09938  0.31122  1.0000
  C   C1238     1.0  0.56190  0.09786  0.27646  1.0000
  C   C1239     1.0  0.58515  0.08893  0.27149  1.0000
  H   H1960     1.0  0.55851  0.06697  0.29508  1.0000
  H   H1961     1.0  0.55165  0.07483  0.32405  1.0000
  H   H1962     1.0  0.56907  0.06824  0.32169  1.0000
  H   H1963     1.0  0.58339  0.11146  0.29918  1.0000
  H   H1964     1.0  0.56658  0.10031  0.32708  1.0000
  H   H1965     1.0  0.58412  0.09398  0.32325  1.0000
  H   H1966     1.0  0.56843  0.10975  0.26318  1.0000
  H   H1967     1.0  0.55156  0.09900  0.29118  1.0000
  H   H1968     1.0  0.55761  0.09102  0.26225  1.0000
  H   H1969     1.0  0.59213  0.10061  0.25775  1.0000
  H   H1970     1.0  0.58152  0.08183  0.25701  1.0000
  H   H1971     1.0  0.59287  0.08332  0.28239  1.0000
  N   N122      1.0  0.69951  0.17783  0.27214  1.0000
  C   C1240     1.0  0.68867  0.16891  0.25926  1.0000
  C   C1241     1.0  0.69085  0.17976  0.29915  1.0000
  C   C1242     1.0  0.70732  0.19334  0.25238  1.0000
  C   C1243     1.0  0.71124  0.16936  0.27783  1.0000
  C   C1244     1.0  0.61536  0.17874  0.09594  1.0000
  N   N123      1.0  0.61374  0.19020  0.32517  1.0000
  H   H1972     1.0  0.68464  0.02392  0.17378  1.0000
  H   H1973     1.0  0.70890  0.21500  0.34760  1.0000
  C   C1245     1.0  0.62633  0.17177  0.13564  1.0000
  N   N124      1.0  0.52056  0.16409  0.39688  1.0000
  C   C1246     1.0  0.72012  0.00900  0.14690  1.0000
  S   S477      1.0  0.48729  0.03246  0.29583  1.0000
  H   H1974     1.0  0.68926  0.09912  0.06211  1.0000
  H   H1975     1.0  0.71799  0.16765  0.25799  1.0000
  C   C1247     1.0  0.66266  0.18158  0.00037  1.0000
  C   C1248     1.0  0.72070  0.21930  0.34858  1.0000
  Fe  Fe237     1.0  0.57260  0.15181  0.46311  1.0000
  C   C1249     1.0  0.50885  0.16748  0.38153  1.0000
  S   S478      1.0  0.66330  0.99844  0.00643  1.0000
  C   C1250     1.0  0.71210  0.01536  0.12803  1.0000
  H   H1976     1.0  0.59631  0.17627  0.31083  1.0000
  H   H1977     1.0  0.69047  0.11632  0.00021  1.0000
  C   C1251     1.0  0.72525  0.17231  0.19798  1.0000
  H   H1978     1.0  0.51004  0.22703  0.42927  1.0000
  H   H1979     1.0  0.71966  0.17588  0.28739  1.0000
  H   H1980     1.0  0.59836  0.19699  0.30014  1.0000
  H   H1981     1.0  0.51409  0.13940  0.40057  1.0000
  C   C1252     1.0  0.65688  0.03087  0.17950  1.0000
  C   C1253     1.0  0.51428  0.16222  0.42757  1.0000
  H   H1982     1.0  0.63639  0.00378  0.18510  1.0000
  C   C1254     1.0  0.52442  0.14958  0.39239  1.0000
  N   N125      1.0  0.66038  0.01606  0.17607  1.0000
  H   H1983     1.0  0.67934  0.17467  0.25561  1.0000
  H   H1984     1.0  0.58892  0.18601  0.33607  1.0000
  C   C1255     1.0  0.67174  0.12666  0.03659  1.0000
  H   H1985     1.0  0.65463  0.03130  0.20210  1.0000
  H   H1986     1.0  0.64605  0.19154  0.08894  1.0000
  C   C1256     1.0  0.69861  0.00615  0.12433  1.0000
  H   H1987     1.0  0.66663  0.04113  0.16690  1.0000
  C   C1257     1.0  0.63729  0.22943  0.43929  1.0000
  H   H1988     1.0  0.63786  0.19408  0.30516  1.0000
  H   H1989     1.0  0.61629  0.21495  0.31823  1.0000
  H   H1990     1.0  0.62683  0.20185  0.28227  1.0000
  C   C1258     1.0  0.59873  0.18729  0.31761  1.0000
  H   H1991     1.0  0.61474  0.16545  0.15023  1.0000
  H   H1992     1.0  0.71442  0.23177  0.37996  1.0000
  H   H1993     1.0  0.52917  0.15057  0.36944  1.0000
  H   H1994     1.0  0.67016  0.21444  0.46910  1.0000
  H   H1995     1.0  0.48851  0.03374  0.23562  1.0000
  C   C1259     1.0  0.48833  0.13615  0.04074  1.0000
  H   H1996     1.0  0.49804  0.15783  0.38914  1.0000
  H   H1997     1.0  0.49360  0.13065  0.02456  1.0000
  H   H1998     1.0  0.66595  0.00517  0.14244  1.0000
  H   H1999     1.0  0.73417  0.17319  0.20938  1.0000
  H   H2000     1.0  0.66682  0.19200  0.98292  1.0000
  S   S479      1.0  0.62754  0.99459  0.07223  1.0000
  C   C1260     1.0  0.71447  0.99338  0.16232  1.0000
  H   H2001     1.0  0.72388  0.99271  0.10185  1.0000
  H   H2002     1.0  0.72838  0.99334  0.06485  1.0000
  Fe  Fe238     1.0  0.50321  0.02860  0.64987  1.0000
  H   H2003     1.0  0.68357  0.19586  0.78721  1.0000
  S   S480      1.0  0.70453  0.23676  0.52908  1.0000
  Fe  Fe239     1.0  0.53101  0.05337  0.65628  1.0000
  S   S481      1.0  0.51936  0.07280  0.64910  1.0000
  S   S482      1.0  0.55451  0.05591  0.66675  1.0000
  H   H2004     1.0  0.69556  0.18647  0.76694  1.0000
  Fe  Fe240     1.0  0.51254  0.06255  0.61456  1.0000
  S   S483      1.0  0.51450  0.07657  0.57005  1.0000
  S   S484      1.0  0.50996  0.03635  0.68688  1.0000
  S   S485      1.0  0.52561  0.04404  0.61977  1.0000
  C   C1261     1.0  0.64755  0.20370  0.53677  1.0000
  S   S486      1.0  0.50499  0.16883  0.92491  1.0000
  H   H2005     1.0  0.58712  0.09688  0.55001  1.0000
  Fe  Fe241     1.0  0.51531  0.21386  0.89372  1.0000
  S   S487      1.0  0.52225  0.20335  0.93258  1.0000
  C   C1262     1.0  0.65993  0.20796  0.48715  1.0000
  Fe  Fe242     1.0  0.52859  0.18588  0.90948  1.0000
  S   S488      1.0  0.54967  0.17709  0.91443  1.0000
  H   H2006     1.0  0.48682  0.00735  0.60262  1.0000
  S   S489      1.0  0.52380  0.19776  0.86920  1.0000
  S   S490      1.0  0.63429  0.01703  0.78752  1.0000
  H   H2007     1.0  0.50171  0.21226  0.84705  1.0000
  S   S491      1.0  0.66987  0.20155  0.91698  1.0000
  Fe  Fe243     1.0  0.63494  0.21621  0.89838  1.0000
  S   S492      1.0  0.65878  0.22387  0.86863  1.0000
  S   S493      1.0  0.61557  0.22498  0.88356  1.0000
  Fe  Fe244     1.0  0.65894  0.19871  0.88091  1.0000
  S   S494      1.0  0.66731  0.18507  0.85010  1.0000
  Fe  Fe245     1.0  0.66767  0.22633  0.90720  1.0000
  H   H2008     1.0  0.70038  0.00864  0.77076  1.0000
  S   S495      1.0  0.63457  0.19089  0.90795  1.0000
  N   N126      1.0  0.48538  0.22285  0.83035  1.0000
  Fe  Fe246     1.0  0.60819  0.11265  0.73312  1.0000
  S   S496      1.0  0.60211  0.11117  0.78000  1.0000
  S   S497      1.0  0.58955  0.11199  0.70852  1.0000
  Fe  Fe247     1.0  0.64307  0.12039  0.72970  1.0000
  S   S498      1.0  0.63941  0.11900  0.77612  1.0000
  S   S499      1.0  0.66715  0.12658  0.70040  1.0000
  Fe  Fe248     1.0  0.62024  0.09775  0.78165  1.0000
  S   S500      1.0  0.61779  0.07702  0.81789  1.0000
  Fe  Fe249     1.0  0.62191  0.13256  0.77013  1.0000
  S   S501      1.0  0.62048  0.15414  0.78617  1.0000
  S   S502      1.0  0.62526  0.09798  0.73541  1.0000
  S   S503      1.0  0.62662  0.13521  0.72304  1.0000
  C   C1263     1.0  0.65394  0.17618  0.83327  1.0000
  C   C1264     1.0  0.64187  0.18261  0.82756  1.0000
  C   C1265     1.0  0.63189  0.17582  0.81275  1.0000
  C   C1266     1.0  0.63357  0.16231  0.80425  1.0000
  C   C1267     1.0  0.64564  0.15586  0.80999  1.0000
  C   C1268     1.0  0.65590  0.16290  0.82410  1.0000
  H   H2009     1.0  0.64041  0.19299  0.83410  1.0000
  H   H2010     1.0  0.62286  0.18113  0.80775  1.0000
  H   H2011     1.0  0.64709  0.14547  0.80357  1.0000
  H   H2012     1.0  0.66522  0.15786  0.82842  1.0000
  C   C1269     1.0  0.62794  0.03267  0.79728  1.0000
  C   C1270     1.0  0.62483  0.04387  0.77667  1.0000
  C   C1271     1.0  0.62114  0.05724  0.78313  1.0000
  C   C1272     1.0  0.62078  0.05961  0.81011  1.0000
  C   C1273     1.0  0.62346  0.04819  0.83096  1.0000
  C   C1274     1.0  0.62699  0.03473  0.82461  1.0000
  H   H2013     1.0  0.62536  0.04221  0.75562  1.0000
  H   H2014     1.0  0.61858  0.06569  0.76725  1.0000
  H   H2015     1.0  0.62306  0.04989  0.85196  1.0000
  H   H2016     1.0  0.62937  0.02613  0.84063  1.0000
  C   C1275     1.0  0.56753  0.19099  0.90687  1.0000
  C   C1276     1.0  0.57831  0.18808  0.92247  1.0000
  C   C1277     1.0  0.59315  0.19835  0.91530  1.0000
  C   C1278     1.0  0.59728  0.21160  0.89246  1.0000
  C   C1279     1.0  0.58648  0.21454  0.87689  1.0000
  C   C1280     1.0  0.57165  0.20425  0.88403  1.0000
  H   H2017     1.0  0.57518  0.17788  0.94026  1.0000
  H   H2018     1.0  0.67519  0.23523  0.49297  1.0000
  H   H2019     1.0  0.66623  0.23221  0.52974  1.0000
  H   H2020     1.0  0.56352  0.20637  0.87149  1.0000
  Fe  Fe250     1.0  0.49780  0.05519  0.67757  1.0000
  C   C1281     1.0  0.58691  0.08487  0.56158  1.0000
  C   C1282     1.0  0.69388  0.19101  0.78609  1.0000
  C   C1283     1.0  0.66457  0.22881  0.51011  1.0000
  H   H2021     1.0  0.67347  0.19388  0.52487  1.0000
  C   C1284     1.0  0.52943  0.09373  0.55260  1.0000
  H   H2022     1.0  0.56558  0.09648  0.58891  1.0000
  H   H2023     1.0  0.51033  0.22890  0.81749  1.0000
  C   C1285     1.0  0.55156  0.11402  0.55225  1.0000
  C   C1286     1.0  0.53902  0.10107  0.56721  1.0000
  Fe  Fe251     1.0  0.49944  0.18232  0.88649  1.0000
  H   H2024     1.0  0.55908  0.11955  0.56353  1.0000
  H   H2025     1.0  0.53685  0.09667  0.58994  1.0000
  C   C1287     1.0  0.57127  0.06031  0.59355  1.0000
  C   C1288     1.0  0.56434  0.07170  0.67781  1.0000
  C   C1289     1.0  0.56056  0.08604  0.67353  1.0000
  C   C1290     1.0  0.56843  0.09820  0.68303  1.0000
  C   C1291     1.0  0.58017  0.09623  0.69688  1.0000
  C   C1292     1.0  0.58403  0.08192  0.70099  1.0000
  C   C1293     1.0  0.57622  0.06977  0.69131  1.0000
  H   H2026     1.0  0.55163  0.08782  0.66280  1.0000
  H   H2027     1.0  0.56543  0.10926  0.67959  1.0000
  H   H2028     1.0  0.59307  0.08024  0.71154  1.0000
  H   H2029     1.0  0.57930  0.05875  0.69461  1.0000
  C   C1294     1.0  0.68964  0.15836  0.73470  1.0000
  C   C1295     1.0  0.67890  0.14586  0.73127  1.0000
  C   C1296     1.0  0.68104  0.14172  0.70552  1.0000
  C   C1297     1.0  0.69420  0.15001  0.68336  1.0000
  C   C1298     1.0  0.70486  0.16274  0.68663  1.0000
  H   H2030     1.0  0.68784  0.16139  0.75479  1.0000
  H   H2031     1.0  0.66899  0.13945  0.74864  1.0000
  H   H2032     1.0  0.69597  0.14683  0.66338  1.0000
  H   H2033     1.0  0.56391  0.06773  0.54439  1.0000
  H   H2034     1.0  0.52104  0.04067  0.73848  1.0000
  H   H2035     1.0  0.73178  0.20433  0.78448  1.0000
  H   H2036     1.0  0.54884  0.07509  0.74413  1.0000
  C   C1299     1.0  0.71987  0.23297  0.54363  1.0000
  H   H2037     1.0  0.54664  0.11728  0.48554  1.0000
  H   H2038     1.0  0.71390  0.21167  0.74002  1.0000
  H   H2039     1.0  0.60132  0.19613  0.92767  1.0000
  Fe  Fe252     1.0  0.63174  0.99571  0.82277  1.0000
  H   H2040     1.0  0.67057  0.05807  0.75119  1.0000
  H   H2041     1.0  0.71474  0.16936  0.66919  1.0000
  H   H2042     1.0  0.54837  0.06939  0.57124  1.0000
  H   H2043     1.0  0.65838  0.19529  0.48878  1.0000
  H   H2044     1.0  0.70651  0.22834  0.58687  1.0000
  H   H2045     1.0  0.51776  0.06438  0.79089  1.0000
  H   H2046     1.0  0.54675  0.23685  0.89887  1.0000
  H   H2047     1.0  0.51970  0.23864  0.92863  1.0000
  H   H2048     1.0  0.72830  0.22423  0.60807  1.0000
  C   C1300     1.0  0.54449  0.11292  0.50830  1.0000
  S   S504      1.0  0.57148  0.13473  0.50433  1.0000
  H   H2049     1.0  0.72347  0.19097  0.76629  1.0000
  N   N127      1.0  0.66699  0.08111  0.74715  1.0000
  C   C1301     1.0  0.65811  0.07939  0.72570  1.0000
  C   C1302     1.0  0.66023  0.09006  0.76572  1.0000
  C   C1303     1.0  0.68327  0.08956  0.73257  1.0000
  C   C1304     1.0  0.66635  0.06553  0.76454  1.0000
  H   H2050     1.0  0.65825  0.09097  0.71241  1.0000
  H   H2051     1.0  0.64578  0.07305  0.73589  1.0000
  H   H2052     1.0  0.66289  0.07273  0.71123  1.0000
  H   H2053     1.0  0.66624  0.09115  0.78284  1.0000
  H   H2054     1.0  0.66101  0.10204  0.75339  1.0000
  H   H2055     1.0  0.64777  0.08436  0.77627  1.0000
  H   H2056     1.0  0.69028  0.09131  0.74808  1.0000
  H   H2057     1.0  0.68405  0.10132  0.71909  1.0000
  H   H2058     1.0  0.68878  0.08308  0.71850  1.0000
  H   H2059     1.0  0.50388  0.04637  0.75181  1.0000
  H   H2060     1.0  0.59151  0.07899  0.54545  1.0000
  H   H2061     1.0  0.65429  0.05920  0.77687  1.0000
  N   N128      1.0  0.52525  0.06302  0.74785  1.0000
  C   C1305     1.0  0.51591  0.04678  0.75375  1.0000
  H   H2062     1.0  0.58969  0.22470  0.85900  1.0000
  C   C1306     1.0  0.52557  0.07169  0.71905  1.0000
  N   N129      1.0  0.66180  0.21178  0.51394  1.0000
  C   C1307     1.0  0.73428  0.23398  0.52612  1.0000
  H   H2063     1.0  0.52504  0.08291  0.76486  1.0000
  S   S505      1.0  0.48969  0.04655  0.64249  1.0000
  Fe  Fe253     1.0  0.64526  0.19559  0.94328  1.0000
  C   C1308     1.0  0.72100  0.19569  0.78522  1.0000
  H   H2064     1.0  0.50619  0.07084  0.76781  1.0000
  C   C1309     1.0  0.54125  0.06300  0.74959  1.0000
  C   C1310     1.0  0.56546  0.08438  0.59938  1.0000
  H   H2065     1.0  0.50096  0.21047  0.81232  1.0000
  H   H2066     1.0  0.57559  0.05369  0.57857  1.0000
  C   C1311     1.0  0.69979  0.99685  0.78183  1.0000
  H   H2067     1.0  0.68995  0.23397  0.95653  1.0000
  N   N130      1.0  0.65712  0.18215  0.71062  1.0000
  C   C1312     1.0  0.64016  0.17951  0.71517  1.0000
  C   C1313     1.0  0.66481  0.19876  0.69644  1.0000
  C   C1314     1.0  0.66274  0.17237  0.69259  1.0000
  C   C1315     1.0  0.66081  0.17796  0.73834  1.0000
  H   H2068     1.0  0.63405  0.16712  0.72605  1.0000
  H   H2069     1.0  0.63684  0.18241  0.69477  1.0000
  H   H2070     1.0  0.63548  0.18657  0.72896  1.0000
  H   H2071     1.0  0.67765  0.20108  0.69255  1.0000
  H   H2072     1.0  0.66221  0.20234  0.67548  1.0000
  H   H2073     1.0  0.66093  0.20646  0.70960  1.0000
  H   H2074     1.0  0.67553  0.17416  0.68858  1.0000
  H   H2075     1.0  0.66000  0.17502  0.67160  1.0000
  H   H2076     1.0  0.65737  0.15973  0.70280  1.0000
  H   H2077     1.0  0.65588  0.16529  0.74888  1.0000
  H   H2078     1.0  0.65595  0.18443  0.75316  1.0000
  H   H2079     1.0  0.67353  0.18062  0.73589  1.0000
  C   C1316     1.0  0.55447  0.11985  0.52272  1.0000
  H   H2080     1.0  0.55910  0.23301  0.95301  1.0000
  H   H2081     1.0  0.56111  0.08652  0.54595  1.0000
  H   H2082     1.0  0.53280  0.08390  0.71355  1.0000
  C   C1317     1.0  0.53204  0.09988  0.52321  1.0000
  S   S506      1.0  0.49367  0.00202  0.65881  1.0000
  H   H2083     1.0  0.52459  0.09432  0.51182  1.0000
  C   C1318     1.0  0.56068  0.07485  0.55920  1.0000
  H   H2084     1.0  0.57281  0.08511  0.61466  1.0000
  H   H2085     1.0  0.51377  0.07228  0.71707  1.0000
  H   H2086     1.0  0.55947  0.05338  0.60635  1.0000
  H   H2087     1.0  0.69095  0.18087  0.80499  1.0000
  H   H2088     1.0  0.67339  0.06635  0.78025  1.0000
  N   N131      1.0  0.70783  0.20285  0.78549  1.0000
  H   H2089     1.0  0.55340  0.07828  0.61206  1.0000
  S   S507      1.0  0.71436  0.18388  0.71663  1.0000
  H   H2090     1.0  0.64963  0.21116  0.48127  1.0000
  S   S508      1.0  0.64359  0.22049  0.93606  1.0000
  H   H2091     1.0  0.57871  0.06081  0.60873  1.0000
  C   C1319     1.0  0.71767  0.22919  0.57323  1.0000
  H   H2092     1.0  0.64503  0.19082  0.54008  1.0000
  H   H2093     1.0  0.73392  0.01045  0.81886  1.0000
  H   H2094     1.0  0.56444  0.23660  0.87577  1.0000
  H   H2095     1.0  0.71857  0.18585  0.80443  1.0000
  H   H2096     1.0  0.53034  0.06598  0.70281  1.0000
  Fe  Fe254     1.0  0.49837  0.18713  0.94560  1.0000
  H   H2097     1.0  0.68607  0.21257  0.50495  1.0000
  H   H2098     1.0  0.64858  0.20631  0.55730  1.0000
  H   H2099     1.0  0.65485  0.23315  0.50388  1.0000
  H   H2100     1.0  0.70189  0.19927  0.83090  1.0000
  H   H2101     1.0  0.54155  0.05695  0.77126  1.0000
  H   H2102     1.0  0.54663  0.05693  0.73453  1.0000
  H   H2103     1.0  0.55744  0.22341  0.91071  1.0000
  H   H2104     1.0  0.58328  0.23344  0.91943  1.0000
  H   H2105     1.0  0.71500  0.21787  0.81135  1.0000
  H   H2106     1.0  0.51515  0.03992  0.77551  1.0000
  N   N132      1.0  0.58999  0.15657  0.87793  1.0000
  C   C1320     1.0  0.59349  0.14488  0.86260  1.0000
  C   C1321     1.0  0.60300  0.16195  0.89011  1.0000
  C   C1322     1.0  0.57564  0.14945  0.90100  1.0000
  C   C1323     1.0  0.58781  0.17000  0.85799  1.0000
  H   H2107     1.0  0.59506  0.13450  0.87700  1.0000
  H   H2108     1.0  0.60434  0.14979  0.84527  1.0000
  H   H2109     1.0  0.58407  0.14078  0.85262  1.0000
  H   H2110     1.0  0.61400  0.16744  0.87327  1.0000
  H   H2111     1.0  0.60077  0.17080  0.90182  1.0000
  H   H2112     1.0  0.60502  0.15215  0.90524  1.0000
  H   H2113     1.0  0.56554  0.14544  0.89254  1.0000
  H   H2114     1.0  0.57263  0.15794  0.91299  1.0000
  H   H2115     1.0  0.57681  0.13927  0.91649  1.0000
  H   H2116     1.0  0.57778  0.16649  0.84907  1.0000
  H   H2117     1.0  0.59824  0.17540  0.83990  1.0000
  H   H2118     1.0  0.58562  0.17924  0.86865  1.0000
  H   H2119     1.0  0.59503  0.08604  0.57543  1.0000
  H   H2120     1.0  0.72913  0.99829  0.85438  1.0000
  C   C1324     1.0  0.70481  0.20882  0.81102  1.0000
  H   H2121     1.0  0.63730  0.20738  0.53155  1.0000
  C   C1325     1.0  0.70246  0.16706  0.71225  1.0000
  S   S509      1.0  0.49080  0.19920  0.90880  1.0000
  C   C1326     1.0  0.71159  0.21584  0.75964  1.0000
  N   N133      1.0  0.57107  0.07609  0.57841  1.0000
  S   S510      1.0  0.64761  0.99354  0.85186  1.0000
  C   C1327     1.0  0.51825  0.07062  0.76883  1.0000
  H   H2122     1.0  0.69474  0.21406  0.81216  1.0000
  H   H2123     1.0  0.70192  0.22154  0.75915  1.0000
  C   C1328     1.0  0.50026  0.21847  0.82646  1.0000
  H   H2124     1.0  0.72216  0.22494  0.75837  1.0000
  S   S511      1.0  0.48788  0.17564  0.85264  1.0000
  C   C1329     1.0  0.72997  0.22683  0.58528  1.0000
  S   S512      1.0  0.73037  0.00348  0.75417  1.0000
  C   C1330     1.0  0.67512  0.20667  0.52172  1.0000
  H   H2125     1.0  0.67700  0.20958  0.54164  1.0000
  C   C1331     1.0  0.55865  0.23550  0.89830  1.0000
  S   S513      1.0  0.52019  0.23915  0.86971  1.0000
  H   H2126     1.0  0.48615  0.22741  0.87085  1.0000
  C   C1332     1.0  0.65651  0.99359  0.95716  1.0000
  H   H2127     1.0  0.66878  0.99477  0.94945  1.0000
  H   H2128     1.0  0.70675  0.39882  0.08433  1.0000
  S   S514      1.0  0.56841  0.42787  0.34973  1.0000
  Fe  Fe255     1.0  0.50614  0.25695  0.39099  1.0000
  S   S515      1.0  0.50102  0.27498  0.35847  1.0000
  C   C1333     1.0  0.73123  0.37167  0.46048  1.0000
  S   S516      1.0  0.57864  0.39612  0.39860  1.0000
  S   S517      1.0  0.49210  0.44020  0.23955  1.0000
  S   S518      1.0  0.50379  0.31320  0.38300  1.0000
  S   S519      1.0  0.50158  0.26948  0.42495  1.0000
  Fe  Fe256     1.0  0.51420  0.44712  0.25285  1.0000
  S   S520      1.0  0.52776  0.43607  0.22367  1.0000
  S   S521      1.0  0.51218  0.44150  0.30021  1.0000
  C   C1334     1.0  0.49791  0.39367  0.27459  1.0000
  S   S522      1.0  0.51374  0.45321  0.17398  1.0000
  Fe  Fe257     1.0  0.50619  0.43073  0.20810  1.0000
  H   H2129     1.0  0.63651  0.45239  0.33588  1.0000
  Fe  Fe258     1.0  0.53408  0.45950  0.19221  1.0000
  S   S523      1.0  0.55756  0.47090  0.16077  1.0000
  S   S524      1.0  0.52211  0.47109  0.22257  1.0000
  H   H2130     1.0  0.55777  0.48068  0.10179  1.0000
  Fe  Fe259     1.0  0.69146  0.25453  0.43860  1.0000
  S   S525      1.0  0.71263  0.27068  0.40542  1.0000
  C   C1335     1.0  0.64814  0.43973  0.44945  1.0000
  Fe  Fe260     1.0  0.71968  0.28097  0.44022  1.0000
  N   N134      1.0  0.57257  0.47106  0.07472  1.0000
  C   C1336     1.0  0.61629  0.43743  0.45716  1.0000
  H   H2131     1.0  0.48578  0.38646  0.27952  1.0000
  H   H2132     1.0  0.49780  0.40151  0.33850  1.0000
  H   H2133     1.0  0.49643  0.40419  0.05751  1.0000
  S   S526      1.0  0.61673  0.47311  0.02824  1.0000
  S   S527      1.0  0.62122  0.43394  0.00841  1.0000
  S   S528      1.0  0.73266  0.26331  0.45290  1.0000
  H   H2134     1.0  0.56566  0.44690  0.07491  1.0000
  H   H2135     1.0  0.57251  0.48895  0.03882  1.0000
  H   H2136     1.0  0.61789  0.42718  0.36365  1.0000
  H   H2137     1.0  0.59414  0.46800  0.08298  1.0000
  H   H2138     1.0  0.63266  0.37302  0.00536  1.0000
  H   H2139     1.0  0.64383  0.47452  0.15834  1.0000
  C   C1337     1.0  0.50289  0.37763  0.31532  1.0000
  C   C1338     1.0  0.63864  0.38073  0.98374  1.0000
  H   H2140     1.0  0.60191  0.47171  0.18464  1.0000
  C   C1339     1.0  0.73406  0.40783  0.04528  1.0000
  C   C1340     1.0  0.62082  0.39689  0.98790  1.0000
  H   H2141     1.0  0.56381  0.46035  0.04444  1.0000
  C   C1341     1.0  0.64529  0.48166  0.04005  1.0000
  H   H2142     1.0  0.59707  0.46969  0.15228  1.0000
  S   S529      1.0  0.49858  0.32403  0.01046  1.0000
  H   H2143     1.0  0.59833  0.42680  0.37893  1.0000
  H   H2144     1.0  0.70783  0.38477  0.06382  1.0000
  C   C1342     1.0  0.63048  0.48403  0.04198  1.0000
  S   S530      1.0  0.54960  0.35367  0.43840  1.0000
  H   H2145     1.0  0.63724  0.47183  0.11342  1.0000
  H   H2146     1.0  0.62683  0.44711  0.38807  1.0000
  C   C1343     1.0  0.55256  0.43116  0.33619  1.0000
  C   C1344     1.0  0.53763  0.42755  0.35399  1.0000
  C   C1345     1.0  0.52538  0.43091  0.34270  1.0000
  C   C1346     1.0  0.52792  0.43768  0.31355  1.0000
  C   C1347     1.0  0.54278  0.44098  0.29564  1.0000
  C   C1348     1.0  0.55508  0.43784  0.30699  1.0000
  H   H2147     1.0  0.53558  0.42244  0.37651  1.0000
  H   H2148     1.0  0.51390  0.42833  0.35666  1.0000
  H   H2149     1.0  0.54485  0.44623  0.27315  1.0000
  H   H2150     1.0  0.56661  0.44068  0.29311  1.0000
  C   C1349     1.0  0.70646  0.39675  0.06314  1.0000
  C   C1350     1.0  0.52006  0.31749  0.42387  1.0000
  C   C1351     1.0  0.51585  0.32436  0.39968  1.0000
  C   C1352     1.0  0.52158  0.34058  0.38792  1.0000
  C   C1353     1.0  0.53158  0.34980  0.39988  1.0000
  S   S531      1.0  0.57245  0.42480  0.42743  1.0000
  C   C1354     1.0  0.59985  0.45645  0.35405  1.0000
  H   H2151     1.0  0.51836  0.34604  0.36931  1.0000
  H   H2152     1.0  0.64815  0.38997  0.98600  1.0000
  Fe  Fe261     1.0  0.71036  0.49000  0.42909  1.0000
  N   N135      1.0  0.71876  0.40853  0.04028  1.0000
  C   C1355     1.0  0.62486  0.46703  0.12558  1.0000
  H   H2153     1.0  0.61407  0.38952  0.00940  1.0000
  S   S532      1.0  0.52891  0.25057  0.37809  1.0000
  S   S533      1.0  0.49859  0.40616  0.20293  1.0000
  H   H2154     1.0  0.70667  0.40588  0.00796  1.0000
  H   H2155     1.0  0.49047  0.37529  0.06608  1.0000
  H   H2156     1.0  0.67125  0.45452  0.99405  1.0000
  H   H2157     1.0  0.49278  0.41198  0.30852  1.0000
  S   S534      1.0  0.72403  0.48662  0.46181  1.0000
  S   S535      1.0  0.56613  0.38883  0.46661  1.0000
  H   H2158     1.0  0.66696  0.48791  0.05137  1.0000
  H   H2159     1.0  0.66039  0.44050  0.44641  1.0000
  S   S536      1.0  0.66552  0.24770  0.43956  1.0000
  C   C1356     1.0  0.57106  0.45858  0.05972  1.0000
  H   H2160     1.0  0.62901  0.47439  0.18830  1.0000
  H   H2161     1.0  0.57714  0.45697  0.11093  1.0000
  C   C1357     1.0  0.62569  0.44861  0.46669  1.0000
  S   S537      1.0  0.48761  0.47974  0.18948  1.0000
  S   S538      1.0  0.72547  0.27404  0.98267  1.0000
  Fe  Fe262     1.0  0.49483  0.28656  0.39341  1.0000
  H   H2162     1.0  0.51553  0.30511  0.43351  1.0000
  C   C1358     1.0  0.63131  0.46955  0.16948  1.0000
  H   H2163     1.0  0.52747  0.39895  0.27830  1.0000
  H   H2164     1.0  0.56237  0.47293  0.21609  1.0000
  H   H2165     1.0  0.53602  0.36221  0.39040  1.0000
  H   H2166     1.0  0.60276  0.46918  0.35233  1.0000
  H   H2167     1.0  0.64879  0.47334  0.02905  1.0000
  H   H2168     1.0  0.72253  0.37246  0.47900  1.0000
  S   S539      1.0  0.69728  0.26683  0.47180  1.0000
  C   C1359     1.0  0.53606  0.34288  0.42372  1.0000
  Fe  Fe263     1.0  0.56433  0.41351  0.39487  1.0000
  H   H2169     1.0  0.69653  0.46864  0.99866  1.0000
  N   N136      1.0  0.61294  0.44969  0.35805  1.0000
  H   H2170     1.0  0.58390  0.47752  0.10595  1.0000
  C   C1360     1.0  0.62645  0.45726  0.33346  1.0000
  C   C1361     1.0  0.57105  0.48397  0.17127  1.0000
  H   H2171     1.0  0.49091  0.36991  0.32150  1.0000
  H   H2172     1.0  0.70529  0.24425  0.98776  1.0000
  H   H2173     1.0  0.59638  0.45468  0.33448  1.0000
  H   H2174     1.0  0.54912  0.47266  0.07689  1.0000
  H   H2175     1.0  0.62928  0.45671  0.17738  1.0000
  H   H2176     1.0  0.62987  0.40629  0.99080  1.0000
  H   H2177     1.0  0.72572  0.43337  0.02301  1.0000
  H   H2178     1.0  0.62055  0.46479  0.38348  1.0000
  C   C1362     1.0  0.58241  0.46826  0.09448  1.0000
  C   C1363     1.0  0.62274  0.42718  0.44405  1.0000
  H   H2179     1.0  0.60484  0.43033  0.34132  1.0000
  H   H2180     1.0  0.60203  0.45397  0.17401  1.0000
  H   H2181     1.0  0.52032  0.41563  0.28143  1.0000
  N   N137      1.0  0.55014  0.29236  0.39013  1.0000
  C   C1364     1.0  0.56168  0.28567  0.37484  1.0000
  C   C1365     1.0  0.53853  0.29451  0.37381  1.0000
  C   C1366     1.0  0.55801  0.30760  0.39336  1.0000
  C   C1367     1.0  0.54233  0.28162  0.41849  1.0000
  H   H2182     1.0  0.57064  0.28390  0.38652  1.0000
  H   H2183     1.0  0.56764  0.29334  0.35319  1.0000
  H   H2184     1.0  0.55609  0.27409  0.37228  1.0000
  H   H2185     1.0  0.52937  0.29907  0.38513  1.0000
  H   H2186     1.0  0.54386  0.30285  0.35257  1.0000
  H   H2187     1.0  0.53264  0.28330  0.37038  1.0000
  H   H2188     1.0  0.56403  0.31600  0.37237  1.0000
  H   H2189     1.0  0.56673  0.30644  0.40586  1.0000
  H   H2190     1.0  0.53351  0.28628  0.43063  1.0000
  H   H2191     1.0  0.55071  0.27964  0.43141  1.0000
  H   H2192     1.0  0.53623  0.27000  0.41677  1.0000
  C   C1368     1.0  0.65558  0.48994  0.05272  1.0000
  S   S540      1.0  0.69742  0.46461  0.43994  1.0000
  H   H2193     1.0  0.58937  0.45082  0.37206  1.0000
  S   S541      1.0  0.65291  0.46398  0.47588  1.0000
  Fe  Fe264     1.0  0.55244  0.40652  0.45887  1.0000
  H   H2194     1.0  0.62371  0.45552  0.31334  1.0000
  Fe  Fe265     1.0  0.67936  0.47136  0.46943  1.0000
  C   C1369     1.0  0.60490  0.46688  0.16599  1.0000
  C   C1370     1.0  0.63870  0.42844  0.44020  1.0000
  H   H2195     1.0  0.71720  0.42720  0.06047  1.0000
  C   C1371     1.0  0.53016  0.32669  0.43568  1.0000
  C   C1372     1.0  0.71802  0.40534  0.01257  1.0000
  Fe  Fe266     1.0  0.50118  0.46327  0.20665  1.0000
  S   S542      1.0  0.54287  0.39693  0.42573  1.0000
  C   C1373     1.0  0.51954  0.40345  0.29268  1.0000
  S   S543      1.0  0.72644  0.46289  0.99000  1.0000
  H   H2196     1.0  0.53342  0.32123  0.45426  1.0000
  N   N138      1.0  0.62138  0.47347  0.15042  1.0000
  C   C1374     1.0  0.57124  0.48200  0.19981  1.0000
  H   H2197     1.0  0.52407  0.40401  0.31174  1.0000
  H   H2198     1.0  0.72515  0.36962  0.44380  1.0000
  H   H2199     1.0  0.60410  0.43681  0.45987  1.0000
  H   H2200     1.0  0.70523  0.42538  0.03605  1.0000
  C   C1375     1.0  0.60838  0.43278  0.36044  1.0000
  H   H2201     1.0  0.63020  0.47005  0.33102  1.0000
  H   H2202     1.0  0.55152  0.46000  0.10779  1.0000
  H   H2203     1.0  0.50528  0.38908  0.25937  1.0000
  H   H2204     1.0  0.64385  0.42062  0.43003  1.0000
  H   H2205     1.0  0.55783  0.39170  0.98983  1.0000
  H   H2206     1.0  0.71972  0.39360  0.01191  1.0000
  C   C1376     1.0  0.61705  0.45218  0.38432  1.0000
  S   S544      1.0  0.58631  0.41452  0.98146  1.0000
  H   H2207     1.0  0.58261  0.45825  0.04740  1.0000
  C   C1377     1.0  0.71658  0.42425  0.04004  1.0000
  Fe  Fe267     1.0  0.58566  0.40658  0.43287  1.0000
  Fe  Fe268     1.0  0.55770  0.38015  0.43160  1.0000
  C   C1378     1.0  0.68132  0.45012  0.98881  1.0000
  H   H2208     1.0  0.61777  0.47005  0.11050  1.0000
  C   C1379     1.0  0.64168  0.44985  0.46291  1.0000
  S   S545      1.0  0.61146  0.41271  0.43184  1.0000
  H   H2209     1.0  0.54960  0.31302  0.40457  1.0000
  C   C1380     1.0  0.70893  0.45262  0.98487  1.0000
  H   H2210     1.0  0.60711  0.44647  0.40330  1.0000
  C   C1381     1.0  0.69568  0.45811  0.99145  1.0000
  H   H2211     1.0  0.69476  0.39701  0.05997  1.0000
  Fe  Fe269     1.0  0.72476  0.25246  0.41981  1.0000
  H   H2212     1.0  0.48886  0.35095  0.98422  1.0000
  H   H2213     1.0  0.62255  0.45411  0.13205  1.0000
  Fe  Fe270     1.0  0.70959  0.46186  0.47511  1.0000
  H   H2214     1.0  0.62060  0.45645  0.47691  1.0000
  N   N139      1.0  0.50342  0.39372  0.30056  1.0000
  Fe  Fe271     1.0  0.62391  0.45983  0.99575  1.0000
  C   C1382     1.0  0.62456  0.49057  0.14062  1.0000
  C   C1383     1.0  0.55707  0.47108  0.09089  1.0000
  H   H2215     1.0  0.51040  0.37241  0.30156  1.0000
  H   H2216     1.0  0.49813  0.40568  0.26306  1.0000
  H   H2217     1.0  0.50694  0.37731  0.33506  1.0000
  S   S546      1.0  0.73277  0.30697  0.42951  1.0000
  H   H2218     1.0  0.60871  0.36718  0.98838  1.0000
  H   H2219     1.0  0.72720  0.41405  0.99491  1.0000
  H   H2220     1.0  0.58351  0.48964  0.22934  1.0000
  H   H2221     1.0  0.49054  0.38718  0.10673  1.0000
  C   C1384     1.0  0.49337  0.40020  0.31961  1.0000
  H   H2222     1.0  0.59135  0.48663  0.04079  1.0000
  C   C1385     1.0  0.57976  0.48633  0.05378  1.0000
  C   C1386     1.0  0.58323  0.49146  0.20727  1.0000
  H   H2223     1.0  0.72998  0.40148  0.45850  1.0000
  H   H2224     1.0  0.73233  0.39842  0.42345  1.0000
  Fe  Fe272     1.0  0.53089  0.45379  0.67827  1.0000
  Fe  Fe273     1.0  0.51329  0.42260  0.67193  1.0000
  S   S547      1.0  0.51017  0.43352  0.62947  1.0000
  H   H2225     1.0  0.52546  0.37822  0.75416  1.0000
  Fe  Fe274     1.0  0.53486  0.44732  0.61965  1.0000
  S   S548      1.0  0.55307  0.45219  0.57824  1.0000
  H   H2226     1.0  0.60628  0.40654  0.50419  1.0000
  S   S549      1.0  0.53854  0.43503  0.66053  1.0000
  S   S550      1.0  0.50569  0.44042  0.69288  1.0000
  H   H2227     1.0  0.54839  0.49165  0.66968  1.0000
  S   S551      1.0  0.69050  0.46666  0.50563  1.0000
  H   H2228     1.0  0.61048  0.44845  0.84322  1.0000
  C   C1387     1.0  0.59654  0.48291  0.60543  1.0000
  S   S552      1.0  0.66182  0.42575  0.97785  1.0000
  C   C1388     1.0  0.71378  0.26764  0.96048  1.0000
  H   H2229     1.0  0.51343  0.37036  0.73360  1.0000
  H   H2230     1.0  0.51574  0.46598  0.50257  1.0000
  H   H2231     1.0  0.56580  0.47529  0.61029  1.0000
  C   C1389     1.0  0.63630  0.39794  0.94173  1.0000
  H   H2232     1.0  0.49938  0.48233  0.66672  1.0000
  Fe  Fe275     1.0  0.60911  0.43276  0.97336  1.0000
  C   C1390     1.0  0.59362  0.40188  0.50697  1.0000
  Fe  Fe276     1.0  0.50456  0.45256  0.64922  1.0000
  H   H2233     1.0  0.56005  0.47105  0.64833  1.0000
  H   H2234     1.0  0.57394  0.26522  0.87081  1.0000
  C   C1391     1.0  0.55958  0.24479  0.94010  1.0000
  C   C1392     1.0  0.60222  0.44375  0.89979  1.0000
  C   C1393     1.0  0.58108  0.45442  0.89033  1.0000
  S   S553      1.0  0.54441  0.46133  0.70888  1.0000
  H   H2235     1.0  0.64187  0.39141  0.92785  1.0000
  C   C1394     1.0  0.56602  0.48228  0.72251  1.0000
  Fe  Fe277     1.0  0.51042  0.33690  0.90239  1.0000
  S   S554      1.0  0.53541  0.33680  0.88680  1.0000
  H   H2236     1.0  0.51497  0.37487  0.80547  1.0000
  C   C1395     1.0  0.49021  0.48672  0.65983  1.0000
  S   S555      1.0  0.53666  0.33000  0.95369  1.0000
  Fe  Fe278     1.0  0.54032  0.35110  0.91788  1.0000
  S   S556      1.0  0.56231  0.37130  0.90476  1.0000
  Fe  Fe279     1.0  0.52993  0.31577  0.92403  1.0000
  S   S557      1.0  0.53751  0.29328  0.92856  1.0000
  S   S558      1.0  0.51568  0.35283  0.93058  1.0000
  S   S559      1.0  0.50474  0.31490  0.93724  1.0000
  S   S560      1.0  0.52915  0.46730  0.63614  1.0000
  H   H2237     1.0  0.52056  0.47482  0.55699  1.0000
  H   H2238     1.0  0.59355  0.48079  0.58568  1.0000
  H   H2239     1.0  0.56429  0.40402  0.51437  1.0000
  N   N140      1.0  0.50630  0.45556  0.54736  1.0000
  Fe  Fe280     1.0  0.63286  0.46149  0.93271  1.0000
  H   H2240     1.0  0.62846  0.40333  0.93077  1.0000
  S   S561      1.0  0.63097  0.43584  0.94051  1.0000
  C   C1396     1.0  0.69632  0.25581  0.92470  1.0000
  N   N141      1.0  0.56741  0.24717  0.90989  1.0000
  S   S562      1.0  0.50780  0.39658  0.69123  1.0000
  H   H2241     1.0  0.60688  0.38009  0.95743  1.0000
  C   C1397     1.0  0.71344  0.27746  0.93501  1.0000
  C   C1398     1.0  0.70485  0.27153  0.91719  1.0000
  H   H2242     1.0  0.58068  0.42596  0.54469  1.0000
  S   S563      1.0  0.60999  0.45830  0.96321  1.0000
  H   H2243     1.0  0.70477  0.27918  0.89743  1.0000
  H   H2244     1.0  0.57604  0.42331  0.90059  1.0000
  C   C1399     1.0  0.58822  0.39865  0.55766  1.0000
  C   C1400     1.0  0.58848  0.47685  0.65668  1.0000
  H   H2245     1.0  0.49469  0.24400  0.84115  1.0000
  H   H2246     1.0  0.48802  0.29811  0.83228  1.0000
  C   C1401     1.0  0.50668  0.43967  0.54490  1.0000
  H   H2247     1.0  0.62013  0.36803  0.95384  1.0000
  C   C1402     1.0  0.52049  0.46286  0.55469  1.0000
  S   S564      1.0  0.64101  0.47464  0.88642  1.0000
  C   C1403     1.0  0.56913  0.38253  0.92715  1.0000
  H   H2248     1.0  0.49208  0.46636  0.57306  1.0000
  H   H2249     1.0  0.60007  0.42801  0.52431  1.0000
  H   H2250     1.0  0.57435  0.27216  0.90209  1.0000
  C   C1404     1.0  0.58981  0.40217  0.93442  1.0000
  C   C1405     1.0  0.58422  0.39251  0.91787  1.0000
  H   H2251     1.0  0.50943  0.35407  0.81095  1.0000
  H   H2252     1.0  0.60142  0.40975  0.92703  1.0000
  H   H2253     1.0  0.59157  0.39277  0.89768  1.0000
  C   C1406     1.0  0.52259  0.25401  0.88758  1.0000
  C   C1407     1.0  0.52234  0.25063  0.91642  1.0000
  C   C1408     1.0  0.52607  0.26284  0.92926  1.0000
  C   C1409     1.0  0.52971  0.27846  0.91357  1.0000
  C   C1410     1.0  0.52917  0.28182  0.88512  1.0000
  C   C1411     1.0  0.52572  0.26962  0.87213  1.0000
  C   C1412     1.0  0.55606  0.48024  0.70465  1.0000
  H   H2254     1.0  0.71073  0.45356  0.54195  1.0000
  H   H2255     1.0  0.53216  0.29383  0.87278  1.0000
  H   H2256     1.0  0.52590  0.27232  0.84982  1.0000
  C   C1413     1.0  0.70513  0.25197  0.96812  1.0000
  Fe  Fe281     1.0  0.51176  0.33068  0.96422  1.0000
  C   C1414     1.0  0.48939  0.35347  0.77821  1.0000
  H   H2257     1.0  0.49291  0.38295  0.75080  1.0000
  H   H2258     1.0  0.49679  0.36343  0.70386  1.0000
  N   N142      1.0  0.58426  0.40558  0.53136  1.0000
  H   H2259     1.0  0.61086  0.43740  0.89266  1.0000
  H   H2260     1.0  0.58722  0.46615  0.89136  1.0000
  H   H2261     1.0  0.57364  0.44811  0.91202  1.0000
  H   H2262     1.0  0.58131  0.40119  0.57649  1.0000
  C   C1415     1.0  0.58352  0.43023  0.87923  1.0000
  H   H2263     1.0  0.60888  0.45520  0.90105  1.0000
  H   H2264     1.0  0.71792  0.43493  0.96963  1.0000
  C   C1416     1.0  0.58026  0.40208  0.96032  1.0000
  H   H2265     1.0  0.58589  0.38574  0.56168  1.0000
  C   C1417     1.0  0.58757  0.42270  0.52672  1.0000
  H   H2266     1.0  0.58462  0.42825  0.50708  1.0000
  C   C1418     1.0  0.54909  0.43982  0.55610  1.0000
  C   C1419     1.0  0.53689  0.42632  0.56614  1.0000
  C   C1420     1.0  0.53322  0.41707  0.54785  1.0000
  C   C1421     1.0  0.54188  0.42107  0.51950  1.0000
  C   C1422     1.0  0.55443  0.43432  0.50958  1.0000
  C   C1423     1.0  0.55799  0.44371  0.52786  1.0000
  H   H2267     1.0  0.53018  0.42300  0.58799  1.0000
  H   H2268     1.0  0.52358  0.40676  0.55570  1.0000
  H   H2269     1.0  0.59462  0.45620  0.83594  1.0000
  H   H2270     1.0  0.56746  0.45415  0.51994  1.0000
  H   H2271     1.0  0.64618  0.49143  0.82871  1.0000
  C   C1424     1.0  0.48929  0.38454  0.69483  1.0000
  H   H2272     1.0  0.56462  0.38623  0.53751  1.0000
  H   H2273     1.0  0.49970  0.31433  0.86093  1.0000
  H   H2274     1.0  0.54744  0.24576  0.94270  1.0000
  C   C1425     1.0  0.58207  0.45681  0.63260  1.0000
  H   H2275     1.0  0.69232  0.42028  0.96619  1.0000
  C   C1426     1.0  0.63048  0.48636  0.87009  1.0000
  S   S565      1.0  0.68662  0.24879  0.90037  1.0000
  H   H2276     1.0  0.51983  0.35746  0.75869  1.0000
  H   H2277     1.0  0.53114  0.46366  0.53831  1.0000
  C   C1427     1.0  0.56762  0.39913  0.53399  1.0000
  H   H2278     1.0  0.49532  0.36401  0.82260  1.0000
  H   H2279     1.0  0.52151  0.45600  0.57517  1.0000
  H   H2280     1.0  0.59977  0.47438  0.65825  1.0000
  H   H2281     1.0  0.71978  0.28959  0.92903  1.0000
  H   H2282     1.0  0.56012  0.40187  0.55191  1.0000
  N   N143      1.0  0.58419  0.47360  0.63098  1.0000
  H   H2283     1.0  0.50716  0.43215  0.56530  1.0000
  H   H2284     1.0  0.59096  0.40706  0.48680  1.0000
  H   H2285     1.0  0.64566  0.40760  0.94318  1.0000
  H   H2286     1.0  0.59028  0.25388  0.91620  1.0000
  H   H2287     1.0  0.60834  0.46633  0.85134  1.0000
  C   C1428     1.0  0.49253  0.45465  0.56985  1.0000
  H   H2288     1.0  0.52642  0.26021  0.95131  1.0000
  H   H2289     1.0  0.49494  0.45987  0.51372  1.0000
  H   H2290     1.0  0.60071  0.40330  0.55634  1.0000
  H   H2291     1.0  0.57335  0.45621  0.87594  1.0000
  H   H2292     1.0  0.50583  0.39197  0.76887  1.0000
  N   N144      1.0  0.73044  0.46714  0.55124  1.0000
  N   N145      1.0  0.62777  0.38766  0.97016  1.0000
  C   C1429     1.0  0.60180  0.45452  0.85141  1.0000
  C   C1430     1.0  0.55976  0.38218  0.95336  1.0000
  H   H2293     1.0  0.51701  0.43987  0.52831  1.0000
  N   N146      1.0  0.59215  0.44573  0.88017  1.0000
  S   S566      1.0  0.53619  0.40948  0.49719  1.0000
  S   S567      1.0  0.64701  0.46509  0.96412  1.0000
  N   N147      1.0  0.50181  0.36702  0.77738  1.0000
  C   C1431     1.0  0.71352  0.46110  0.55618  1.0000
  C   C1432     1.0  0.69323  0.43081  0.97338  1.0000
  H   H2294     1.0  0.57837  0.45387  0.61389  1.0000
  C   C1433     1.0  0.48703  0.36831  0.70236  1.0000
  H   H2295     1.0  0.59132  0.38908  0.50936  1.0000
  H   H2296     1.0  0.70803  0.45405  0.57842  1.0000
  H   H2297     1.0  0.57964  0.46954  0.67637  1.0000
  H   H2298     1.0  0.50515  0.47711  0.52115  1.0000
  C   C1434     1.0  0.51576  0.36828  0.75502  1.0000
  H   H2299     1.0  0.60778  0.48000  0.60591  1.0000
  C   C1435     1.0  0.49650  0.38140  0.77108  1.0000
  H   H2300     1.0  0.56109  0.43754  0.48767  1.0000
  H   H2301     1.0  0.56564  0.25362  0.94943  1.0000
  H   H2302     1.0  0.57296  0.44952  0.65196  1.0000
  C   C1436     1.0  0.61681  0.48853  0.88547  1.0000
  C   C1437     1.0  0.56804  0.26302  0.89368  1.0000
  H   H2303     1.0  0.59151  0.42326  0.87193  1.0000
  H   H2304     1.0  0.56593  0.47246  0.73921  1.0000
  C   C1438     1.0  0.50558  0.36494  0.80524  1.0000
  H   H2305     1.0  0.57585  0.43123  0.86451  1.0000
  H   H2306     1.0  0.64414  0.37366  0.97098  1.0000
  H   H2307     1.0  0.59534  0.43718  0.92174  1.0000
  C   C1439     1.0  0.69640  0.24609  0.95045  1.0000
  H   H2308     1.0  0.49258  0.44726  0.59069  1.0000
  C   C1440     1.0  0.61536  0.37518  0.96732  1.0000
  H   H2309     1.0  0.54815  0.37455  0.96080  1.0000
  Fe  Fe282     1.0  0.64341  0.43907  0.97440  1.0000
  H   H2310     1.0  0.55622  0.26476  0.89480  1.0000
  C   C1441     1.0  0.48997  0.31678  0.85314  1.0000
  C   C1442     1.0  0.58332  0.24532  0.90756  1.0000
  H   H2311     1.0  0.70778  0.47074  0.55207  1.0000
  C   C1443     1.0  0.56954  0.47779  0.62921  1.0000
  H   H2312     1.0  0.72856  0.47061  0.59314  1.0000
  H   H2313     1.0  0.58941  0.48926  0.65694  1.0000
  H   H2314     1.0  0.49263  0.34228  0.78441  1.0000
  C   C1444     1.0  0.50549  0.46506  0.51997  1.0000
  H   H2315     1.0  0.49621  0.43382  0.53919  1.0000
  H   H2316     1.0  0.59295  0.45322  0.63347  1.0000
  H   H2317     1.0  0.48674  0.35420  0.75722  1.0000
  S   S568      1.0  0.71850  0.44152  0.49455  1.0000
  H   H2318     1.0  0.58965  0.24699  0.88508  1.0000
  H   H2319     1.0  0.61291  0.48357  0.90820  1.0000
  H   H2320     1.0  0.61275  0.40251  0.97810  1.0000
  H   H2321     1.0  0.72788  0.30817  0.48933  1.0000
  C   C1445     1.0  0.70771  0.43902  0.97545  1.0000
  H   H2322     1.0  0.73334  0.26738  0.51554  1.0000
  C   C1446     1.0  0.67999  0.43638  0.97994  1.0000
  Fe  Fe283     1.0  0.71001  0.24859  0.48221  1.0000
  H   H2323     1.0  0.72827  0.48724  0.56655  1.0000
  H   H2324     1.0  0.73203  0.48645  0.51652  1.0000
  C   C1447     1.0  0.56529  0.39194  0.96976  1.0000
  S   S569      1.0  0.49299  0.34200  0.87692  1.0000
  H   H2325     1.0  0.57064  0.49039  0.62784  1.0000
  C   C1448     1.0  0.73352  0.47717  0.57045  1.0000
  H   H2326     1.0  0.73269  0.44658  0.57893  1.0000
  H   H2327     1.0  0.49348  0.24187  0.79265  1.0000
  H   H2328     1.0  0.48636  0.38113  0.78807  1.0000
  Fe  Fe284     1.0  0.70448  0.49173  0.49087  1.0000
  H   H2329     1.0  0.73433  0.28557  0.52486  1.0000
  H   H2330     1.0  0.58142  0.49598  0.06443  1.0000
  H   H2331     1.0  0.50535  0.74174  0.33185  1.0000
  C   C1449     1.0  0.50373  0.54870  0.20949  1.0000
  H   H2332     1.0  0.69277  0.59318  0.26115  1.0000
  Fe  Fe285     1.0  0.66723  0.54190  0.15605  1.0000
  S   S570      1.0  0.64618  0.55133  0.16372  1.0000
  S   S571      1.0  0.68530  0.54100  0.18168  1.0000
  Fe  Fe286     1.0  0.65667  0.52609  0.11136  1.0000
  S   S572      1.0  0.63503  0.53438  0.11531  1.0000
  S   S573      1.0  0.66403  0.51017  0.08449  1.0000
  Fe  Fe287     1.0  0.65030  0.55718  0.11605  1.0000
  S   S574      1.0  0.64806  0.57886  0.08687  1.0000
  Fe  Fe288     1.0  0.63261  0.52786  0.16229  1.0000
  N   N148      1.0  0.71416  0.53539  0.11166  1.0000
  S   S575      1.0  0.67232  0.54935  0.10835  1.0000
  S   S576      1.0  0.65328  0.51795  0.15838  1.0000
  Fe  Fe289     1.0  0.51553  0.68007  0.09675  1.0000
  S   S577      1.0  0.51964  0.65676  0.11342  1.0000
  C   C1450     1.0  0.50555  0.66062  0.24375  1.0000
  Fe  Fe290     1.0  0.52675  0.69337  0.14351  1.0000
  S   S578      1.0  0.53162  0.67092  0.16345  1.0000
  S   S579      1.0  0.52622  0.71281  0.16608  1.0000
  Fe  Fe291     1.0  0.54195  0.67061  0.11859  1.0000
  S   S580      1.0  0.56305  0.66145  0.10709  1.0000
  Fe  Fe292     1.0  0.50901  0.65911  0.15656  1.0000
  S   S581      1.0  0.53870  0.69401  0.09875  1.0000
  S   S582      1.0  0.50329  0.68153  0.13948  1.0000
  Fe  Fe293     1.0  0.66396  0.66584  0.07976  1.0000
  S   S583      1.0  0.66296  0.68847  0.09074  1.0000
  S   S584      1.0  0.65941  0.64439  0.11581  1.0000
  Fe  Fe294     1.0  0.67242  0.68032  0.01637  1.0000
  S   S585      1.0  0.67203  0.70412  0.02180  1.0000
  H   H2333     1.0  0.50876  0.55108  0.22724  1.0000
  Fe  Fe295     1.0  0.68466  0.69920  0.05578  1.0000
  S   S586      1.0  0.70401  0.71963  0.05554  1.0000
  Fe  Fe296     1.0  0.65039  0.69197  0.05657  1.0000
  S   S587      1.0  0.63166  0.70438  0.06603  1.0000
  S   S588      1.0  0.68690  0.67620  0.04753  1.0000
  S   S589      1.0  0.64949  0.66833  0.04835  1.0000
  C   C1451     1.0  0.70937  0.72434  0.08565  1.0000
  S   S590      1.0  0.73319  0.57417  0.33256  1.0000
  H   H2334     1.0  0.73299  0.70900  0.16817  1.0000
  C   C1452     1.0  0.72942  0.52811  0.33956  1.0000
  C   C1453     1.0  0.70601  0.71979  0.13667  1.0000
  C   C1454     1.0  0.70189  0.71522  0.11325  1.0000
  H   H2335     1.0  0.49446  0.68324  0.00912  1.0000
  H   H2336     1.0  0.67155  0.60614  0.99729  1.0000
  H   H2337     1.0  0.69292  0.70467  0.11656  1.0000
  H   H2338     1.0  0.69238  0.58927  0.31235  1.0000
  C   C1455     1.0  0.58159  0.67443  0.09283  1.0000
  C   C1456     1.0  0.58500  0.68923  0.09776  1.0000
  C   C1457     1.0  0.60036  0.69856  0.08879  1.0000
  C   C1458     1.0  0.61233  0.69311  0.07493  1.0000
  C   C1459     1.0  0.60881  0.67854  0.06919  1.0000
  C   C1460     1.0  0.59349  0.66924  0.07812  1.0000
  H   H2339     1.0  0.57587  0.69332  0.10906  1.0000
  H   H2340     1.0  0.60298  0.70989  0.09307  1.0000
  H   H2341     1.0  0.61789  0.67446  0.05782  1.0000
  H   H2342     1.0  0.59083  0.65791  0.07384  1.0000
  H   H2343     1.0  0.60813  0.62813  0.11276  1.0000
  H   H2344     1.0  0.67126  0.72203  0.06201  1.0000
  H   H2345     1.0  0.73151  0.52065  0.32561  1.0000
  H   H2346     1.0  0.49385  0.65254  0.24809  1.0000
  C   C1461     1.0  0.58258  0.49581  0.15039  1.0000
  C   C1462     1.0  0.65042  0.59660  0.09665  1.0000
  C   C1463     1.0  0.65607  0.59862  0.12010  1.0000
  C   C1464     1.0  0.65864  0.61331  0.12603  1.0000
  C   C1465     1.0  0.65592  0.62606  0.10819  1.0000
  C   C1466     1.0  0.65006  0.62395  0.08500  1.0000
  C   C1467     1.0  0.64709  0.60919  0.07958  1.0000
  H   H2347     1.0  0.65861  0.58894  0.13346  1.0000
  H   H2348     1.0  0.66308  0.61485  0.14414  1.0000
  H   H2349     1.0  0.64775  0.63365  0.07133  1.0000
  H   H2350     1.0  0.64223  0.60745  0.06204  1.0000
  N   N149      1.0  0.50474  0.67701  0.23997  1.0000
  H   H2351     1.0  0.59322  0.64747  0.16769  1.0000
  C   C1468     1.0  0.56552  0.74166  0.19403  1.0000
  H   H2352     1.0  0.67722  0.63362  0.04237  1.0000
  H   H2353     1.0  0.61221  0.64821  0.09371  1.0000
  H   H2354     1.0  0.52806  0.68648  0.21362  1.0000
  C   C1469     1.0  0.72381  0.54729  0.37553  1.0000
  H   H2355     1.0  0.65456  0.62816  0.02186  1.0000
  H   H2356     1.0  0.62755  0.64034  0.10288  1.0000
  C   C1470     1.0  0.68462  0.63798  0.02021  1.0000
  C   C1471     1.0  0.48647  0.67457  0.02731  1.0000
  C   C1472     1.0  0.71764  0.73347  0.13277  1.0000
  H   H2357     1.0  0.48671  0.55430  0.17175  1.0000
  H   H2358     1.0  0.69925  0.51224  0.12104  1.0000
  C   C1473     1.0  0.54164  0.72362  0.17662  1.0000
  C   C1474     1.0  0.55676  0.72196  0.16957  1.0000
  H   H2359     1.0  0.51038  0.55801  0.18991  1.0000
  C   C1475     1.0  0.65121  0.50075  0.06715  1.0000
  H   H2360     1.0  0.48947  0.56621  0.23781  1.0000
  H   H2361     1.0  0.55935  0.71389  0.15719  1.0000
  H   H2362     1.0  0.71704  0.52620  0.40972  1.0000
  H   H2363     1.0  0.72606  0.52133  0.09005  1.0000
  C   C1476     1.0  0.72957  0.55388  0.34616  1.0000
  H   H2364     1.0  0.66295  0.73375  0.03885  1.0000
  N   N150      1.0  0.67808  0.62969  0.00093  1.0000
  H   H2365     1.0  0.60322  0.51448  0.14168  1.0000
  C   C1477     1.0  0.72410  0.52156  0.36902  1.0000
  H   H2366     1.0  0.72827  0.56402  0.21819  1.0000
  C   C1478     1.0  0.72114  0.58185  0.19212  1.0000
  C   C1479     1.0  0.71084  0.58477  0.17532  1.0000
  C   C1480     1.0  0.69974  0.57242  0.17196  1.0000
  C   C1481     1.0  0.69886  0.55701  0.18542  1.0000
  C   C1482     1.0  0.70920  0.55408  0.20214  1.0000
  C   C1483     1.0  0.72030  0.56643  0.20548  1.0000
  H   H2367     1.0  0.71140  0.59668  0.16493  1.0000
  H   H2368     1.0  0.69186  0.57485  0.15905  1.0000
  H   H2369     1.0  0.70866  0.54218  0.21250  1.0000
  S   S591      1.0  0.48532  0.73508  0.38700  1.0000
  C   C1484     1.0  0.61620  0.63324  0.15950  1.0000
  H   H2370     1.0  0.52032  0.69981  0.23032  1.0000
  H   H2371     1.0  0.71263  0.59000  0.30313  1.0000
  N   N151      1.0  0.61233  0.64453  0.13774  1.0000
  C   C1485     1.0  0.63651  0.50334  0.06854  1.0000
  H   H2372     1.0  0.71261  0.53314  0.15609  1.0000
  C   C1486     1.0  0.52052  0.68734  0.23356  1.0000
  H   H2373     1.0  0.70013  0.71268  0.15796  1.0000
  H   H2374     1.0  0.61719  0.49408  0.12648  1.0000
  S   S592      1.0  0.69173  0.49706  0.45692  1.0000
  H   H2375     1.0  0.70484  0.55348  0.12461  1.0000
  H   H2376     1.0  0.68323  0.73985  0.03795  1.0000
  N   N152      1.0  0.48705  0.54813  0.21575  1.0000
  C   C1487     1.0  0.59504  0.50296  0.18629  1.0000
  H   H2377     1.0  0.48764  0.60141  0.13957  1.0000
  S   S593      1.0  0.50618  0.68559  0.05782  1.0000
  H   H2378     1.0  0.69949  0.57370  0.32961  1.0000
  C   C1488     1.0  0.72475  0.53347  0.08664  1.0000
  C   C1489     1.0  0.70075  0.58209  0.30892  1.0000
  H   H2379     1.0  0.69361  0.52699  0.09842  1.0000
  H   H2380     1.0  0.58801  0.63282  0.14939  1.0000
  H   H2381     1.0  0.61976  0.66913  0.11729  1.0000
  H   H2382     1.0  0.70828  0.55806  0.26682  1.0000
  C   C1490     1.0  0.56864  0.73100  0.17812  1.0000
  H   H2383     1.0  0.62240  0.49586  0.15880  1.0000
  H   H2384     1.0  0.72171  0.57178  0.27728  1.0000
  H   H2385     1.0  0.62855  0.63297  0.15302  1.0000
  C   C1491     1.0  0.59584  0.64443  0.14702  1.0000
  C   C1492     1.0  0.49773  0.68136  0.21618  1.0000
  H   H2386     1.0  0.71283  0.59317  0.25211  1.0000
  C   C1493     1.0  0.66264  0.63228  0.00037  1.0000
  H   H2387     1.0  0.70827  0.55560  0.30369  1.0000
  H   H2388     1.0  0.63312  0.51187  0.07900  1.0000
  H   H2389     1.0  0.50574  0.53742  0.20617  1.0000
  H   H2390     1.0  0.49892  0.62704  0.14687  1.0000
  H   H2391     1.0  0.66332  0.64486  0.99256  1.0000
  C   C1494     1.0  0.70963  0.56438  0.28344  1.0000
  C   C1495     1.0  0.68249  0.56370  0.29501  1.0000
  H   H2392     1.0  0.72698  0.71515  0.21461  1.0000
  S   S594      1.0  0.49100  0.64121  0.19330  1.0000
  H   H2393     1.0  0.72423  0.56010  0.10249  1.0000
  C   C1496     1.0  0.50562  0.74071  0.37536  1.0000
  H   H2394     1.0  0.48881  0.70608  0.03345  1.0000
  C   C1497     1.0  0.48990  0.67253  0.05390  1.0000
  N   N153      1.0  0.69841  0.57393  0.28670  1.0000
  H   H2395     1.0  0.61479  0.49695  0.05770  1.0000
  C   C1498     1.0  0.49512  0.67874  0.26626  1.0000
  H   H2396     1.0  0.68569  0.65072  0.01339  1.0000
  H   H2397     1.0  0.51269  0.65892  0.22421  1.0000
  C   C1499     1.0  0.53852  0.73419  0.19267  1.0000
  H   H2398     1.0  0.69042  0.52572  0.13572  1.0000
  H   H2399     1.0  0.52625  0.68443  0.25095  1.0000
  C   C1500     1.0  0.71282  0.55165  0.10621  1.0000
  C   C1501     1.0  0.73220  0.54424  0.32815  1.0000
  H   H2400     1.0  0.69889  0.57975  0.24228  1.0000
  C   C1502     1.0  0.59445  0.50535  0.15789  1.0000
  C   C1503     1.0  0.67662  0.61281  0.01109  1.0000
  C   C1504     1.0  0.72116  0.53117  0.38698  1.0000
  C   C1505     1.0  0.62221  0.66033  0.13383  1.0000
  H   H2401     1.0  0.72034  0.53599  0.06731  1.0000
  C   C1506     1.0  0.72036  0.53183  0.13683  1.0000
  H   H2402     1.0  0.59260  0.65305  0.13140  1.0000
  H   H2403     1.0  0.49075  0.57297  0.20053  1.0000
  H   H2404     1.0  0.68034  0.55481  0.31550  1.0000
  H   H2405     1.0  0.63684  0.49592  0.12864  1.0000
  H   H2406     1.0  0.60899  0.62119  0.16296  1.0000
  H   H2407     1.0  0.69637  0.63649  0.02080  1.0000
  H   H2408     1.0  0.62034  0.66414  0.15381  1.0000
  H   H2409     1.0  0.58032  0.72977  0.17227  1.0000
  H   H2410     1.0  0.61438  0.63628  0.18025  1.0000
  H   H2411     1.0  0.67370  0.57052  0.29759  1.0000
  C   C1507     1.0  0.70079  0.58551  0.25943  1.0000
  H   H2412     1.0  0.73196  0.53982  0.13370  1.0000
  C   C1508     1.0  0.61516  0.64009  0.11058  1.0000
  S   S595      1.0  0.61086  0.51338  0.19599  1.0000
  H   H2413     1.0  0.63473  0.66074  0.12704  1.0000
  H   H2414     1.0  0.68042  0.55734  0.27866  1.0000
  H   H2415     1.0  0.51072  0.65682  0.26158  1.0000
  H   H2416     1.0  0.72155  0.51966  0.14162  1.0000
  C   C1509     1.0  0.48912  0.61900  0.16278  1.0000
  H   H2417     1.0  0.50482  0.68029  0.19612  1.0000
  H   H2418     1.0  0.49076  0.71916  0.07134  1.0000
  C   C1510     1.0  0.72103  0.73799  0.08174  1.0000
  H   H2419     1.0  0.65047  0.72203  0.10195  1.0000
  C   C1511     1.0  0.69870  0.52462  0.11693  1.0000
  H   H2420     1.0  0.64294  0.73476  0.07920  1.0000
  C   C1512     1.0  0.67140  0.73423  0.05220  1.0000
  S   S596      1.0  0.72204  0.50153  0.38254  1.0000
  H   H2421     1.0  0.68806  0.61042  0.01161  1.0000
  H   H2422     1.0  0.72908  0.68847  0.21258  1.0000
  H   H2423     1.0  0.52688  0.73559  0.19823  1.0000
  H   H2424     1.0  0.49699  0.69369  0.21244  1.0000
  H   H2425     1.0  0.70821  0.55479  0.08732  1.0000
  H   H2426     1.0  0.72165  0.55470  0.38955  1.0000
  C   C1513     1.0  0.65163  0.73456  0.09207  1.0000
  C   C1514     1.0  0.62614  0.49489  0.05632  1.0000
  H   H2427     1.0  0.50008  0.67557  0.28469  1.0000
  H   H2428     1.0  0.58228  0.49775  0.12837  1.0000
  H   H2429     1.0  0.66899  0.60785  0.03305  1.0000
  H   H2430     1.0  0.48591  0.67367  0.21990  1.0000
  H   H2431     1.0  0.49427  0.69099  0.26400  1.0000
  H   H2432     1.0  0.65730  0.62611  0.98619  1.0000
  S   S597      1.0  0.73445  0.59784  0.19650  1.0000
  H   H2433     1.0  0.50964  0.74057  0.41658  1.0000
  S   S598      1.0  0.72222  0.73861  0.16313  1.0000
  H   H2434     1.0  0.67806  0.72969  0.10297  1.0000
  H   H2435     1.0  0.64830  0.74015  0.10942  1.0000
  S   S599      1.0  0.72318  0.58519  0.65270  1.0000
  H   H2436     1.0  0.69250  0.53061  0.68503  1.0000
  C   C1515     1.0  0.68846  0.63575  0.97193  1.0000
  H   H2437     1.0  0.54387  0.73962  0.62996  1.0000
  S   S600      1.0  0.48610  0.73126  0.53124  1.0000
  Fe  Fe297     1.0  0.63875  0.53659  0.72447  1.0000
  S   S601      1.0  0.62711  0.55267  0.70095  1.0000
  S   S602      1.0  0.66110  0.53140  0.70481  1.0000
  Fe  Fe298     1.0  0.61248  0.52617  0.77804  1.0000
  S   S603      1.0  0.59864  0.54099  0.75834  1.0000
  H   H2438     1.0  0.54652  0.70351  0.58782  1.0000
  Fe  Fe299     1.0  0.60564  0.53273  0.71944  1.0000
  S   S604      1.0  0.58962  0.52801  0.69089  1.0000
  Fe  Fe300     1.0  0.62106  0.55954  0.74195  1.0000
  S   S605      1.0  0.61789  0.58285  0.74833  1.0000
  S   S606      1.0  0.61762  0.51615  0.74055  1.0000
  S   S607      1.0  0.63463  0.54517  0.76396  1.0000
  Fe  Fe301     1.0  0.52811  0.66417  0.70042  1.0000
  S   S608      1.0  0.53428  0.64110  0.70715  1.0000
  S   S609      1.0  0.53371  0.68268  0.65897  1.0000
  Fe  Fe302     1.0  0.50895  0.65724  0.76050  1.0000
  S   S610      1.0  0.51324  0.63362  0.77292  1.0000
  H   H2439     1.0  0.63450  0.58174  0.81840  1.0000
  Fe  Fe303     1.0  0.53793  0.64526  0.74856  1.0000
  S   S611      1.0  0.55549  0.63585  0.76846  1.0000
  Fe  Fe304     1.0  0.50929  0.63071  0.73105  1.0000
  C   C1516     1.0  0.73029  0.53000  0.50673  1.0000
  S   S612      1.0  0.53402  0.66927  0.73978  1.0000
  S   S613      1.0  0.50273  0.65332  0.72072  1.0000
  Fe  Fe305     1.0  0.65879  0.65077  0.79837  1.0000
  S   S614      1.0  0.66082  0.67028  0.76088  1.0000
  S   S615      1.0  0.66523  0.62911  0.78950  1.0000
  Fe  Fe306     1.0  0.64861  0.66871  0.84037  1.0000
  S   S616      1.0  0.64938  0.68949  0.80591  1.0000
  S   S617      1.0  0.63987  0.66987  0.88575  1.0000
  Fe  Fe307     1.0  0.63808  0.67218  0.78525  1.0000
  S   S618      1.0  0.62174  0.67858  0.75871  1.0000
  Fe  Fe308     1.0  0.67203  0.68618  0.78405  1.0000
  S   S619      1.0  0.69058  0.70775  0.75668  1.0000
  S   S620      1.0  0.63518  0.65149  0.82150  1.0000
  S   S621      1.0  0.67217  0.66649  0.81989  1.0000
  C   C1517     1.0  0.65139  0.67089  0.91024  1.0000
  C   C1518     1.0  0.64515  0.67349  0.93652  1.0000
  H   H2440     1.0  0.52137  0.69440  0.75650  1.0000
  C   C1519     1.0  0.66952  0.67416  0.94945  1.0000
  C   C1520     1.0  0.67574  0.67144  0.92326  1.0000
  C   C1521     1.0  0.66671  0.66977  0.90373  1.0000
  H   H2441     1.0  0.63330  0.67436  0.94170  1.0000
  C   C1522     1.0  0.67788  0.70220  0.84301  1.0000
  H   H2442     1.0  0.68761  0.67064  0.91804  1.0000
  H   H2443     1.0  0.67159  0.66761  0.88369  1.0000
  C   C1523     1.0  0.70609  0.71815  0.76707  1.0000
  C   C1524     1.0  0.71116  0.71141  0.79023  1.0000
  S   S622      1.0  0.68120  0.67593  0.97347  1.0000
  H   H2444     1.0  0.70582  0.69936  0.80174  1.0000
  H   H2445     1.0  0.73447  0.53388  0.58143  1.0000
  H   H2446     1.0  0.71704  0.55145  0.66481  1.0000
  S   S623      1.0  0.60189  0.51383  0.82450  1.0000
  C   C1525     1.0  0.72328  0.72027  0.79828  1.0000
  C   C1526     1.0  0.57339  0.64831  0.76702  1.0000
  C   C1527     1.0  0.58252  0.64301  0.78459  1.0000
  C   C1528     1.0  0.59713  0.65243  0.78315  1.0000
  C   C1529     1.0  0.60283  0.66707  0.76360  1.0000
  C   C1530     1.0  0.59369  0.67235  0.74605  1.0000
  C   C1531     1.0  0.57896  0.66306  0.74788  1.0000
  H   H2447     1.0  0.57823  0.63163  0.79953  1.0000
  H   H2448     1.0  0.60405  0.64829  0.79686  1.0000
  H   H2449     1.0  0.59804  0.68367  0.73089  1.0000
  H   H2450     1.0  0.57202  0.66722  0.73421  1.0000
  H   H2451     1.0  0.53012  0.71371  0.52538  1.0000
  C   C1532     1.0  0.57625  0.49688  0.71872  1.0000
  H   H2452     1.0  0.68816  0.69897  0.84888  1.0000
  C   C1533     1.0  0.52637  0.70458  0.73759  1.0000
  H   H2453     1.0  0.52113  0.74085  0.71680  1.0000
  H   H2454     1.0  0.63093  0.50665  0.80379  1.0000
  C   C1534     1.0  0.63108  0.59488  0.76104  1.0000
  C   C1535     1.0  0.62595  0.60561  0.77478  1.0000
  C   C1536     1.0  0.63631  0.61611  0.78370  1.0000
  C   C1537     1.0  0.65187  0.61582  0.77922  1.0000
  C   C1538     1.0  0.65693  0.60480  0.76614  1.0000
  C   C1539     1.0  0.64658  0.59440  0.75691  1.0000
  H   H2455     1.0  0.61390  0.60583  0.77847  1.0000
  H   H2456     1.0  0.63226  0.62440  0.79410  1.0000
  H   H2457     1.0  0.66895  0.60450  0.76270  1.0000
  H   H2458     1.0  0.65064  0.58619  0.74625  1.0000
  C   C1540     1.0  0.55679  0.73234  0.65965  1.0000
  C   C1541     1.0  0.66136  0.71973  0.84393  1.0000
  H   H2459     1.0  0.71479  0.54570  0.61293  1.0000
  C   C1542     1.0  0.53823  0.70523  0.57449  1.0000
  N   N154      1.0  0.51905  0.71744  0.74052  1.0000
  C   C1543     1.0  0.63024  0.64208  0.68526  1.0000
  C   C1544     1.0  0.49053  0.64692  0.83527  1.0000
  H   H2460     1.0  0.67138  0.72376  0.89028  1.0000
  C   C1545     1.0  0.64779  0.64118  0.71562  1.0000
  S   S624      1.0  0.49755  0.60593  0.73221  1.0000
  H   H2461     1.0  0.65826  0.64564  0.69742  1.0000
  H   H2462     1.0  0.61721  0.62884  0.74044  1.0000
  C   C1546     1.0  0.71356  0.73360  0.75151  1.0000
  C   C1547     1.0  0.56648  0.50762  0.67936  1.0000
  C   C1548     1.0  0.57657  0.50960  0.69704  1.0000
  C   C1549     1.0  0.52116  0.72206  0.76655  1.0000
  H   H2463     1.0  0.59876  0.54927  0.83491  1.0000
  N   N155      1.0  0.63476  0.64743  0.70922  1.0000
  H   H2464     1.0  0.56658  0.51746  0.66271  1.0000
  H   H2465     1.0  0.55743  0.71309  0.52199  1.0000
  C   C1550     1.0  0.63952  0.66466  0.70160  1.0000
  H   H2466     1.0  0.66245  0.70361  0.89443  1.0000
  H   H2467     1.0  0.62452  0.64533  0.75314  1.0000
  H   H2468     1.0  0.49650  0.70195  0.76126  1.0000
  C   C1551     1.0  0.54652  0.72979  0.64268  1.0000
  C   C1552     1.0  0.53935  0.71448  0.64288  1.0000
  C   C1553     1.0  0.54253  0.70170  0.65975  1.0000
  C   C1554     1.0  0.55278  0.70427  0.67672  1.0000
  C   C1555     1.0  0.55982  0.71955  0.67678  1.0000
  C   C1556     1.0  0.72297  0.51979  0.55775  1.0000
  H   H2469     1.0  0.53106  0.71251  0.63047  1.0000
  H   H2470     1.0  0.55547  0.69449  0.68952  1.0000
  H   H2471     1.0  0.56774  0.72149  0.68998  1.0000
  C   C1557     1.0  0.72135  0.51826  0.53082  1.0000
  H   H2472     1.0  0.48719  0.62921  0.87392  1.0000
  H   H2473     1.0  0.71611  0.51079  0.57655  1.0000
  C   C1558     1.0  0.55620  0.49301  0.68322  1.0000
  C   C1559     1.0  0.70615  0.57008  0.66882  1.0000
  C   C1560     1.0  0.69215  0.57383  0.67821  1.0000
  C   C1561     1.0  0.67825  0.56203  0.68986  1.0000
  C   C1562     1.0  0.67834  0.54643  0.69212  1.0000
  C   C1563     1.0  0.69238  0.54269  0.68308  1.0000
  C   C1564     1.0  0.70627  0.55447  0.67155  1.0000
  H   H2474     1.0  0.69199  0.58589  0.67624  1.0000
  H   H2475     1.0  0.66745  0.56498  0.69679  1.0000
  C   C1565     1.0  0.52636  0.73089  0.71549  1.0000
  N   N156      1.0  0.70134  0.55715  0.58878  1.0000
  C   C1566     1.0  0.71553  0.55723  0.59880  1.0000
  C   C1567     1.0  0.69928  0.54548  0.57215  1.0000
  C   C1568     1.0  0.70286  0.57278  0.57063  1.0000
  C   C1569     1.0  0.68780  0.55316  0.61350  1.0000
  H   H2476     1.0  0.65091  0.70976  0.85433  1.0000
  H   H2477     1.0  0.71761  0.56612  0.61093  1.0000
  H   H2478     1.0  0.55407  0.73193  0.58182  1.0000
  H   H2479     1.0  0.70920  0.54829  0.55306  1.0000
  H   H2480     1.0  0.69847  0.53359  0.58501  1.0000
  H   H2481     1.0  0.68855  0.54489  0.56458  1.0000
  H   H2482     1.0  0.69241  0.57320  0.56250  1.0000
  H   H2483     1.0  0.71310  0.57615  0.55195  1.0000
  H   H2484     1.0  0.70446  0.58184  0.58262  1.0000
  H   H2485     1.0  0.68897  0.56177  0.62646  1.0000
  H   H2486     1.0  0.68641  0.54150  0.62786  1.0000
  H   H2487     1.0  0.72916  0.52905  0.48589  1.0000
  H   H2488     1.0  0.66773  0.69204  0.85321  1.0000
  H   H2489     1.0  0.68379  0.62993  0.95669  1.0000
  H   H2490     1.0  0.70022  0.63398  0.97141  1.0000
  H   H2491     1.0  0.61345  0.57420  0.86219  1.0000
  H   H2492     1.0  0.50038  0.70828  0.72337  1.0000
  H   H2493     1.0  0.56750  0.72071  0.54577  1.0000
  H   H2494     1.0  0.58393  0.49830  0.73250  1.0000
  H   H2495     1.0  0.59749  0.49862  0.88314  1.0000
  H   H2496     1.0  0.62412  0.56258  0.88001  1.0000
  H   H2497     1.0  0.66275  0.72197  0.82055  1.0000
  H   H2498     1.0  0.70979  0.73882  0.73338  1.0000
  H   H2499     1.0  0.64925  0.67718  0.97623  1.0000
  N   N157      1.0  0.67530  0.71622  0.85179  1.0000
  H   H2500     1.0  0.73195  0.61220  0.67616  1.0000
  C   C1570     1.0  0.65417  0.67512  0.95609  1.0000
  C   C1571     1.0  0.48723  0.50046  0.66584  1.0000
  H   H2501     1.0  0.62653  0.62910  0.69044  1.0000
  H   H2502     1.0  0.49415  0.50658  0.67738  1.0000
  C   C1572     1.0  0.50233  0.71210  0.74252  1.0000
  C   C1573     1.0  0.63559  0.49304  0.84068  1.0000
  H   H2503     1.0  0.64073  0.56708  0.80316  1.0000
  H   H2504     1.0  0.52462  0.70044  0.71862  1.0000
  H   H2505     1.0  0.64528  0.56997  0.83543  1.0000
  C   C1574     1.0  0.62142  0.64175  0.73446  1.0000
  C   C1575     1.0  0.62696  0.50164  0.82654  1.0000
  H   H2506     1.0  0.52028  0.72156  0.55175  1.0000
  H   H2507     1.0  0.68296  0.70993  0.88980  1.0000
  C   C1576     1.0  0.61313  0.50350  0.84178  1.0000
  H   H2508     1.0  0.52676  0.70368  0.58925  1.0000
  S   S625      1.0  0.70753  0.50183  0.52875  1.0000
  H   H2509     1.0  0.61151  0.64654  0.73061  1.0000
  H   H2510     1.0  0.62041  0.64658  0.67998  1.0000
  H   H2511     1.0  0.67968  0.70402  0.81965  1.0000
  N   N158      1.0  0.54727  0.59632  0.73983  1.0000
  C   C1577     1.0  0.55229  0.59286  0.76639  1.0000
  C   C1578     1.0  0.55941  0.60899  0.71822  1.0000
  C   C1579     1.0  0.53275  0.60129  0.74545  1.0000
  C   C1580     1.0  0.54459  0.58220  0.72920  1.0000
  H   H2512     1.0  0.54332  0.58348  0.78326  1.0000
  H   H2513     1.0  0.55445  0.60333  0.77487  1.0000
  H   H2514     1.0  0.56322  0.58904  0.76296  1.0000
  H   H2515     1.0  0.55594  0.61198  0.69798  1.0000
  H   H2516     1.0  0.56166  0.61983  0.72558  1.0000
  H   H2517     1.0  0.57056  0.60568  0.71346  1.0000
  H   H2518     1.0  0.52886  0.60438  0.72568  1.0000
  H   H2519     1.0  0.53421  0.61171  0.75411  1.0000
  H   H2520     1.0  0.52312  0.59195  0.76108  1.0000
  H   H2521     1.0  0.53549  0.57241  0.74502  1.0000
  H   H2522     1.0  0.55533  0.57813  0.72456  1.0000
  H   H2523     1.0  0.54066  0.58441  0.70929  1.0000
  C   C1581     1.0  0.67295  0.71329  0.88291  1.0000
  H   H2524     1.0  0.53900  0.73521  0.71338  1.0000
  H   H2525     1.0  0.65889  0.73017  0.85041  1.0000
  H   H2526     1.0  0.64004  0.64614  0.66582  1.0000
  H   H2527     1.0  0.49994  0.64337  0.82362  1.0000
  H   H2528     1.0  0.53908  0.70822  0.73527  1.0000
  H   H2529     1.0  0.62979  0.66976  0.69765  1.0000
  H   H2530     1.0  0.65113  0.64448  0.73432  1.0000
  H   H2531     1.0  0.61393  0.55517  0.80301  1.0000
  H   H2532     1.0  0.59840  0.49563  0.60376  1.0000
  H   H2533     1.0  0.64940  0.66949  0.68235  1.0000
  H   H2534     1.0  0.64319  0.66905  0.71910  1.0000
  S   S626      1.0  0.49371  0.66893  0.78584  1.0000
  H   H2535     1.0  0.60457  0.55394  0.87973  1.0000
  C   C1582     1.0  0.53179  0.72265  0.53754  1.0000
  C   C1583     1.0  0.60812  0.49705  0.87128  1.0000
  H   H2536     1.0  0.60742  0.56973  0.81767  1.0000
  H   H2537     1.0  0.64471  0.62821  0.72070  1.0000
  H   H2538     1.0  0.67683  0.55292  0.60685  1.0000
  H   H2539     1.0  0.53368  0.72602  0.76573  1.0000
  N   N159      1.0  0.62150  0.55820  0.84020  1.0000
  C   C1584     1.0  0.62432  0.54254  0.84719  1.0000
  C   C1585     1.0  0.63614  0.56974  0.82360  1.0000
  C   C1586     1.0  0.61565  0.56241  0.86674  1.0000
  C   C1587     1.0  0.60987  0.55811  0.82333  1.0000
  H   H2540     1.0  0.61351  0.53352  0.85978  1.0000
  H   H2541     1.0  0.63312  0.54214  0.85970  1.0000
  H   H2542     1.0  0.62857  0.53889  0.82764  1.0000
  H   H2543     1.0  0.51582  0.73178  0.76947  1.0000
  H   H2544     1.0  0.52514  0.72773  0.69546  1.0000
  H   H2545     1.0  0.51577  0.71210  0.78582  1.0000
  H   H2546     1.0  0.53699  0.69566  0.56364  1.0000
  H   H2547     1.0  0.72709  0.71504  0.81636  1.0000
  H   H2548     1.0  0.69110  0.73190  0.81366  1.0000
  H   H2549     1.0  0.69967  0.72721  0.84265  1.0000
  H   H2550     1.0  0.49638  0.72151  0.74457  1.0000
  H   H2551     1.0  0.56269  0.73375  0.51841  1.0000
  N   N160      1.0  0.54345  0.72074  0.55385  1.0000
  H   H2552     1.0  0.72595  0.56004  0.58071  1.0000
  C   C1588     1.0  0.73330  0.53293  0.56062  1.0000
  C   C1589     1.0  0.55844  0.72211  0.53412  1.0000
  C   C1590     1.0  0.68894  0.72952  0.83721  1.0000
  H   H2553     1.0  0.49803  0.73925  0.57683  1.0000
  H   H2554     1.0  0.53430  0.73259  0.58393  1.0000
  H   H2555     1.0  0.68990  0.64850  0.96378  1.0000
  H   H2556     1.0  0.53525  0.73432  0.52205  1.0000
  C   C1591     1.0  0.54541  0.73304  0.56916  1.0000
  C   C1592     1.0  0.73052  0.73582  0.78305  1.0000
  H   H2557     1.0  0.68741  0.74038  0.84312  1.0000
  C   C1593     1.0  0.48557  0.65945  0.82207  1.0000
  Fe  Fe309     1.0  0.59625  0.79404  0.25392  1.0000
  S   S627      1.0  0.57533  0.79703  0.28268  1.0000
  S   S628      1.0  0.62181  0.80676  0.24571  1.0000
  H   H2558     1.0  0.65147  0.82719  0.24075  1.0000
  S   S629      1.0  0.55411  0.76970  0.26072  1.0000
  Fe  Fe310     1.0  0.56381  0.79576  0.24697  1.0000
  S   S630      1.0  0.54758  0.81127  0.24077  1.0000
  H   H2559     1.0  0.50491  0.92328  0.18545  1.0000
  S   S631      1.0  0.58537  0.79504  0.21681  1.0000
  Fe  Fe311     1.0  0.53659  0.86657  0.10669  1.0000
  S   S632      1.0  0.54496  0.88051  0.06109  1.0000
  S   S633      1.0  0.55004  0.84856  0.11628  1.0000
  Fe  Fe312     1.0  0.50969  0.88150  0.11745  1.0000
  S   S634      1.0  0.51621  0.89641  0.07252  1.0000
  N   N161      1.0  0.68035  0.80186  0.31011  1.0000
  Fe  Fe313     1.0  0.52000  0.87479  0.06002  1.0000
  S   S635      1.0  0.51407  0.86707  0.02188  1.0000
  Fe  Fe314     1.0  0.54065  0.90080  0.07768  1.0000
  S   S636      1.0  0.55754  0.92480  0.05755  1.0000
  S   S637      1.0  0.51191  0.85957  0.10447  1.0000
  S   S638      1.0  0.53386  0.88728  0.12379  1.0000
  H   H2560     1.0  0.53787  0.81885  0.32656  1.0000
  C   C1594     1.0  0.73269  0.87811  0.24485  1.0000
  C   C1595     1.0  0.67864  0.74192  0.09216  1.0000
  C   C1596     1.0  0.61687  0.95239  0.01701  1.0000
  C   C1597     1.0  0.49571  0.84587  0.00226  1.0000
  H   H2561     1.0  0.52429  0.77632  0.36077  1.0000
  Fe  Fe315     1.0  0.62705  0.97263  0.10335  1.0000
  S   S639      1.0  0.60787  0.95013  0.12039  1.0000
  C   C1598     1.0  0.62156  0.76958  0.21784  1.0000
  S   S640      1.0  0.65099  0.97183  0.08234  1.0000
  H   H2562     1.0  0.60515  0.94410  0.02428  1.0000
  Fe  Fe316     1.0  0.67597  0.84876  0.33244  1.0000
  S   S641      1.0  0.69030  0.83760  0.35813  1.0000
  S   S642      1.0  0.65180  0.83347  0.33720  1.0000
  Fe  Fe317     1.0  0.70105  0.88000  0.31236  1.0000
  S   S643      1.0  0.71675  0.87076  0.33737  1.0000
  S   S644      1.0  0.70745  0.90306  0.27828  1.0000
  Fe  Fe318     1.0  0.71055  0.84969  0.32057  1.0000
  C   C1599     1.0  0.62935  0.76844  0.16924  1.0000
  Fe  Fe319     1.0  0.69506  0.85954  0.37306  1.0000
  S   S645      1.0  0.69058  0.85425  0.42173  1.0000
  S   S646      1.0  0.69598  0.85933  0.29385  1.0000
  S   S647      1.0  0.67958  0.87017  0.34910  1.0000
  C   C1600     1.0  0.52450  0.78636  0.30570  1.0000
  H   H2563     1.0  0.69081  0.74727  0.07919  1.0000
  H   H2564     1.0  0.66449  0.85992  0.45774  1.0000
  C   C1601     1.0  0.64532  0.84232  0.43584  1.0000
  C   C1602     1.0  0.69293  0.99052  0.13981  1.0000
  H   H2565     1.0  0.63949  0.85128  0.42757  1.0000
  C   C1603     1.0  0.51480  0.97957  0.21275  1.0000
  C   C1604     1.0  0.69797  0.86389  0.44595  1.0000
  H   H2566     1.0  0.70370  0.79951  0.30007  1.0000
  C   C1605     1.0  0.70811  0.87883  0.43717  1.0000
  H   H2567     1.0  0.71199  0.88484  0.41482  1.0000
  H   H2568     1.0  0.61782  0.79751  0.19383  1.0000
  C   C1606     1.0  0.65253  0.82871  0.47620  1.0000
  H   H2569     1.0  0.67656  0.82444  0.30946  1.0000
  H   H2570     1.0  0.63439  0.77512  0.14664  1.0000
  H   H2571     1.0  0.54819  0.81047  0.30156  1.0000
  H   H2572     1.0  0.69634  0.82388  0.30428  1.0000
  H   H2573     1.0  0.64731  0.96120  0.99219  1.0000
  H   H2574     1.0  0.69655  0.97211  0.17086  1.0000
  H   H2575     1.0  0.63656  0.76035  0.17490  1.0000
  H   H2576     1.0  0.63330  0.93341  0.06438  1.0000
  H   H2577     1.0  0.73039  0.86629  0.25935  1.0000
  H   H2578     1.0  0.60968  0.76230  0.22043  1.0000
  N   N162      1.0  0.64455  0.84061  0.46636  1.0000
  H   H2579     1.0  0.48674  0.98008  0.20360  1.0000
  C   C1607     1.0  0.72125  0.83171  0.25658  1.0000
  H   H2580     1.0  0.52377  0.98128  0.22483  1.0000
  H   H2581     1.0  0.48961  0.84743  0.07118  1.0000
  C   C1608     1.0  0.57107  0.93200  0.07577  1.0000
  C   C1609     1.0  0.57306  0.92249  0.10001  1.0000
  C   C1610     1.0  0.58418  0.92833  0.11367  1.0000
  C   C1611     1.0  0.59348  0.94372  0.10322  1.0000
  C   C1612     1.0  0.59147  0.95330  0.07903  1.0000
  C   C1613     1.0  0.58030  0.94745  0.06536  1.0000
  H   H2582     1.0  0.56609  0.91057  0.10821  1.0000
  H   H2583     1.0  0.58566  0.92084  0.13236  1.0000
  H   H2584     1.0  0.59843  0.96523  0.07101  1.0000
  H   H2585     1.0  0.57875  0.95493  0.04675  1.0000
  H   H2586     1.0  0.53216  0.81758  0.29433  1.0000
  H   H2587     1.0  0.65332  0.95117  0.02158  1.0000
  H   H2588     1.0  0.64364  0.79653  0.20006  1.0000
  H   H2589     1.0  0.49118  0.96212  0.19885  1.0000
  C   C1614     1.0  0.69223  0.79512  0.29597  1.0000
  C   C1615     1.0  0.73013  0.92362  0.29228  1.0000
  C   C1616     1.0  0.54834  0.82161  0.20608  1.0000
  C   C1617     1.0  0.53909  0.83211  0.20232  1.0000
  C   C1618     1.0  0.53951  0.84053  0.17490  1.0000
  C   C1619     1.0  0.54917  0.83843  0.15112  1.0000
  C   C1620     1.0  0.55829  0.82782  0.15488  1.0000
  C   C1621     1.0  0.55791  0.81945  0.18226  1.0000
  H   H2590     1.0  0.53167  0.83383  0.22067  1.0000
  H   H2591     1.0  0.53245  0.84869  0.17218  1.0000
  H   H2592     1.0  0.56578  0.82616  0.13655  1.0000
  H   H2593     1.0  0.56502  0.81136  0.18492  1.0000
  C   C1622     1.0  0.62979  0.81461  0.27113  1.0000
  C   C1623     1.0  0.62150  0.81110  0.29956  1.0000
  C   C1624     1.0  0.62837  0.81713  0.31932  1.0000
  C   C1625     1.0  0.64353  0.82688  0.31093  1.0000
  C   C1626     1.0  0.65180  0.83050  0.28242  1.0000
  C   C1627     1.0  0.64500  0.82429  0.26273  1.0000
  H   H2594     1.0  0.60981  0.80365  0.30641  1.0000
  H   H2595     1.0  0.62185  0.81424  0.34128  1.0000
  H   H2596     1.0  0.66338  0.83817  0.27547  1.0000
  H   H2597     1.0  0.66612  0.79948  0.28083  1.0000
  H   H2598     1.0  0.62858  0.76157  0.22483  1.0000
  N   N163      1.0  0.62872  0.94490  0.02563  1.0000
  H   H2599     1.0  0.63223  0.93551  0.98933  1.0000
  S   S648      1.0  0.67598  0.97846  0.13618  1.0000
  H   H2600     1.0  0.51907  0.84219  0.06010  1.0000
  H   H2601     1.0  0.65185  0.78109  0.19197  1.0000
  H   H2602     1.0  0.62065  0.77715  0.23274  1.0000
  H   H2603     1.0  0.53383  0.79487  0.36449  1.0000
  C   C1628     1.0  0.62926  0.93161  0.01297  1.0000
  S   S649      1.0  0.58089  0.75311  0.20379  1.0000
  H   H2604     1.0  0.50351  0.85174  0.98157  1.0000
  H   H2605     1.0  0.53835  0.74970  0.39811  1.0000
  H   H2606     1.0  0.50337  0.82558  0.10712  1.0000
  H   H2607     1.0  0.72259  0.88287  0.25136  1.0000
  N   N164      1.0  0.49952  0.97056  0.23179  1.0000
  H   H2608     1.0  0.53386  0.75090  0.31352  1.0000
  H   H2609     1.0  0.50908  0.80888  0.12382  1.0000
  H   H2610     1.0  0.51926  0.81063  0.04657  1.0000
  C   C1629     1.0  0.70090  0.98420  0.15880  1.0000
  H   H2611     1.0  0.50900  0.95597  0.25983  1.0000
  C   C1630     1.0  0.72103  0.92114  0.27334  1.0000
  H   H2612     1.0  0.66142  0.78297  0.31115  1.0000
  H   H2613     1.0  0.65755  0.84600  0.42275  1.0000
  H   H2614     1.0  0.73416  0.75309  0.10185  1.0000
  H   H2615     1.0  0.61615  0.96246  0.02629  1.0000
  C   C1631     1.0  0.72299  0.93323  0.24902  1.0000
  H   H2616     1.0  0.54777  0.75129  0.21355  1.0000
  C   C1632     1.0  0.65220  0.85571  0.47046  1.0000
  H   H2617     1.0  0.62348  0.79661  0.15771  1.0000
  H   H2618     1.0  0.64968  0.79587  0.16378  1.0000
  H   H2619     1.0  0.61756  0.76116  0.17087  1.0000
  C   C1633     1.0  0.48798  0.84343  0.05273  1.0000
  H   H2620     1.0  0.50842  0.90535  0.15455  1.0000
  H   H2621     1.0  0.69396  0.79826  0.27247  1.0000
  C   C1634     1.0  0.53801  0.75113  0.35445  1.0000
  H   H2622     1.0  0.63970  0.83117  0.43184  1.0000
  C   C1635     1.0  0.68526  0.81899  0.29940  1.0000
  H   H2623     1.0  0.50536  0.80328  0.32279  1.0000
  H   H2624     1.0  0.60673  0.78255  0.18176  1.0000
  C   C1636     1.0  0.71323  0.88605  0.45743  1.0000
  H   H2625     1.0  0.64634  0.86492  0.46370  1.0000
  C   C1637     1.0  0.73385  0.94769  0.24370  1.0000
  Fe  Fe320     1.0  0.57658  0.76891  0.23318  1.0000
  H   H2626     1.0  0.68900  0.78218  0.30352  1.0000
  N   N165      1.0  0.66752  0.74241  0.07430  1.0000
  H   H2627     1.0  0.51633  0.77467  0.31582  1.0000
  H   H2628     1.0  0.67474  0.78473  0.35018  1.0000
  H   H2629     1.0  0.68684  0.82277  0.27602  1.0000
  H   H2630     1.0  0.71599  0.93144  0.23424  1.0000
  N   N166      1.0  0.52268  0.82060  0.08115  1.0000
  C   C1638     1.0  0.52865  0.83667  0.06270  1.0000
  C   C1639     1.0  0.53585  0.81394  0.08500  1.0000
  C   C1640     1.0  0.51271  0.81106  0.06772  1.0000
  C   C1641     1.0  0.51351  0.82078  0.10915  1.0000
  H   H2631     1.0  0.50440  0.94841  0.23105  1.0000
  H   H2632     1.0  0.53526  0.83703  0.04110  1.0000
  H   H2633     1.0  0.57483  0.94412  0.98819  1.0000
  H   H2634     1.0  0.53181  0.80179  0.09877  1.0000
  H   H2635     1.0  0.54317  0.81382  0.06431  1.0000
  H   H2636     1.0  0.54347  0.82091  0.09532  1.0000
  H   H2637     1.0  0.50782  0.79887  0.08113  1.0000
  H   H2638     1.0  0.71443  0.84011  0.25757  1.0000
  H   H2639     1.0  0.50279  0.81599  0.06424  1.0000
  H   H2640     1.0  0.71486  0.82605  0.21977  1.0000
  C   C1642     1.0  0.73056  0.81299  0.23306  1.0000
  H   H2641     1.0  0.52062  0.82813  0.11967  1.0000
  S   S650      1.0  0.55815  0.75898  0.34139  1.0000
  H   H2642     1.0  0.66982  0.80276  0.35227  1.0000
  C   C1643     1.0  0.62474  0.93929  0.05693  1.0000
  H   H2643     1.0  0.67637  0.74821  0.10887  1.0000
  H   H2644     1.0  0.48916  0.94780  0.26052  1.0000
  S   S651      1.0  0.58873  0.76789  0.26846  1.0000
  C   C1644     1.0  0.72157  0.82379  0.23507  1.0000
  H   H2645     1.0  0.50223  0.78583  0.35047  1.0000
  H   H2646     1.0  0.73308  0.87670  0.22306  1.0000
  Fe  Fe321     1.0  0.56701  0.77093  0.29454  1.0000
  H   H2647     1.0  0.53650  0.84420  0.07171  1.0000
  N   N167      1.0  0.52590  0.79580  0.32638  1.0000
  C   C1645     1.0  0.53219  0.78794  0.34885  1.0000
  C   C1646     1.0  0.51044  0.79744  0.33926  1.0000
  C   C1647     1.0  0.53646  0.81137  0.31169  1.0000
  C   C1648     1.0  0.69304  0.85634  0.47521  1.0000
  H   H2648     1.0  0.54365  0.78601  0.33977  1.0000
  H   H2649     1.0  0.64399  0.96640  0.02529  1.0000
  C   C1649     1.0  0.64401  0.95637  0.01568  1.0000
  S   S652      1.0  0.72913  0.83791  0.30488  1.0000
  H   H2650     1.0  0.52031  0.79218  0.28783  1.0000
  C   C1650     1.0  0.48801  0.96863  0.21487  1.0000
  C   C1651     1.0  0.52867  0.74877  0.33590  1.0000
  C   C1652     1.0  0.51493  0.74282  0.39412  1.0000
  H   H2651     1.0  0.61308  0.93091  0.06547  1.0000
  H   H2652     1.0  0.65610  0.80053  0.31497  1.0000
  C   C1653     1.0  0.66845  0.75878  0.06062  1.0000
  H   H2653     1.0  0.68969  0.80198  0.34646  1.0000
  H   H2654     1.0  0.72109  0.89758  0.45036  1.0000
  H   H2655     1.0  0.66031  0.75947  0.04673  1.0000
  C   C1654     1.0  0.50060  0.95504  0.24649  1.0000
  C   C1655     1.0  0.67856  0.79759  0.34115  1.0000
  H   H2656     1.0  0.53590  0.78456  0.29616  1.0000
  Fe  Fe322     1.0  0.65962  0.98617  0.11045  1.0000
  C   C1656     1.0  0.61870  0.78936  0.17999  1.0000
  N   N168      1.0  0.62847  0.77897  0.18819  1.0000
  C   C1657     1.0  0.72973  0.82873  0.27666  1.0000
  C   C1658     1.0  0.64414  0.78851  0.18582  1.0000
  C   C1659     1.0  0.49814  0.85110  0.02609  1.0000
  C   C1660     1.0  0.66536  0.79591  0.30398  1.0000
  H   H2657     1.0  0.61786  0.92276  0.02020  1.0000
  H   H2658     1.0  0.68035  0.76494  0.04707  1.0000
  H   H2659     1.0  0.49399  0.99087  0.24257  1.0000
  H   H2660     1.0  0.51104  0.80447  0.35505  1.0000
  C   C1661     1.0  0.49716  0.90391  0.16850  1.0000
  S   S653      1.0  0.72989  0.80292  0.20626  1.0000
  C   C1662     1.0  0.51253  0.74353  0.34634  1.0000
  H   H2661     1.0  0.62455  0.94914  0.06697  1.0000
  S   S654      1.0  0.63552  0.98513  0.13401  1.0000
  H   H2662     1.0  0.66485  0.83189  0.46373  1.0000
  H   H2663     1.0  0.72871  0.91447  0.31114  1.0000
  H   H2664     1.0  0.51883  0.97350  0.19648  1.0000
  C   C1663     1.0  0.49514  0.91406  0.18598  1.0000
  H   H2665     1.0  0.66553  0.76532  0.07667  1.0000
  H   H2666     1.0  0.63810  0.92569  0.01905  1.0000
  H   H2667     1.0  0.50280  0.98040  0.26667  1.0000
  C   C1664     1.0  0.49461  0.97899  0.25301  1.0000
  S   S655      1.0  0.48644  0.87931  0.14691  1.0000
  H   H2668     1.0  0.72054  0.98836  0.17694  1.0000
  H   H2669     1.0  0.61955  0.95690  0.99349  1.0000
  H   H2670     1.0  0.61257  0.98913  0.98492  1.0000
  C   C1665     1.0  0.53114  0.74792  0.38366  1.0000
  C   C1666     1.0  0.55035  0.74312  0.20141  1.0000
  H   H2671     1.0  0.62173  0.84437  0.47614  1.0000
  C   C1667     1.0  0.73145  0.98921  0.08515  1.0000
  H   H2672     1.0  0.72829  0.97623  0.09086  1.0000
  H   H2673     1.0  0.64692  0.81711  0.47381  1.0000
  H   H2674     1.0  0.51435  0.99133  0.20125  1.0000
  H   H2675     1.0  0.64925  0.99149  0.18995  1.0000
  H   H2676     1.0  0.72689  0.74512  0.06044  1.0000
  C   C1668     1.0  0.72518  0.74255  0.10517  1.0000
  H   H2677     1.0  0.62203  0.82429  0.48057  1.0000
  Fe  Fe323     1.0  0.58607  0.80151  0.58562  1.0000
  S   S656      1.0  0.57365  0.79583  0.63169  1.0000
  S   S657      1.0  0.61056  0.81759  0.56558  1.0000
  Fe  Fe324     1.0  0.55726  0.78294  0.57085  1.0000
  S   S658      1.0  0.54288  0.77609  0.61600  1.0000
  S   S659      1.0  0.54917  0.77682  0.53291  1.0000
  Fe  Fe325     1.0  0.55321  0.80081  0.61639  1.0000
  S   S660      1.0  0.53879  0.81646  0.63137  1.0000
  Fe  Fe326     1.0  0.56455  0.77166  0.62725  1.0000
  S   S661      1.0  0.56611  0.80811  0.57034  1.0000
  S   S662      1.0  0.57846  0.77683  0.58205  1.0000
  Fe  Fe327     1.0  0.52386  0.88688  0.74972  1.0000
  S   S663      1.0  0.51952  0.86120  0.76962  1.0000
  S   S664      1.0  0.50466  0.89783  0.74025  1.0000
  Fe  Fe328     1.0  0.55601  0.89501  0.76017  1.0000
  S   S665      1.0  0.55413  0.87015  0.78092  1.0000
  S   S666      1.0  0.57850  0.91262  0.75538  1.0000
  Fe  Fe329     1.0  0.54416  0.86438  0.74554  1.0000
  S   S667      1.0  0.55423  0.84596  0.73007  1.0000
  Fe  Fe330     1.0  0.52991  0.86889  0.80317  1.0000
  S   S668      1.0  0.52120  0.85917  0.85074  1.0000
  S   S669      1.0  0.54780  0.88957  0.72269  1.0000
  S   S670      1.0  0.53253  0.89433  0.78533  1.0000
  H   H2678     1.0  0.50547  0.83832  0.82259  1.0000
  H   H2679     1.0  0.65246  0.82733  0.49899  1.0000
  H   H2680     1.0  0.58864  0.93277  0.95212  1.0000
  Fe  Fe331     1.0  0.61170  0.96224  0.84853  1.0000
  S   S671      1.0  0.63233  0.97310  0.81103  1.0000
  S   S672      1.0  0.58885  0.94479  0.85409  1.0000
  Fe  Fe332     1.0  0.64670  0.97016  0.84260  1.0000
  S   S673      1.0  0.66715  0.95957  0.83629  1.0000
  H   H2681     1.0  0.51592  0.96322  0.62103  1.0000
  S   S674      1.0  0.62607  0.95728  0.87925  1.0000
  S   S675      1.0  0.60997  0.98509  0.85764  1.0000
  Fe  Fe333     1.0  0.68116  0.86355  0.61296  1.0000
  S   S676      1.0  0.69166  0.88842  0.58697  1.0000
  S   S677      1.0  0.65577  0.84990  0.63161  1.0000
  Fe  Fe334     1.0  0.71260  0.85740  0.61281  1.0000
  Fe  Fe335     1.0  0.70876  0.89008  0.61440  1.0000
  H   H2682     1.0  0.59167  0.83366  0.60431  1.0000
  Fe  Fe336     1.0  0.70799  0.87854  0.55989  1.0000
  S   S678      1.0  0.71504  0.88809  0.51144  1.0000
  S   S679      1.0  0.69661  0.86597  0.64300  1.0000
  S   S680      1.0  0.69654  0.85377  0.58438  1.0000
  H   H2683     1.0  0.55128  0.94306  0.95222  1.0000
  H   H2684     1.0  0.58694  0.96321  0.96875  1.0000
  H   H2685     1.0  0.69863  0.80576  0.63882  1.0000
  H   H2686     1.0  0.67747  0.79281  0.68276  1.0000
  H   H2687     1.0  0.69420  0.85757  0.51779  1.0000
  H   H2688     1.0  0.70849  0.97959  0.69625  1.0000
  H   H2689     1.0  0.48630  0.78325  0.54887  1.0000
  C   C1669     1.0  0.69809  0.86358  0.49544  1.0000
  C   C1670     1.0  0.66436  0.81309  0.63130  1.0000
  C   C1671     1.0  0.58464  0.83663  0.62250  1.0000
  S   S681      1.0  0.72569  0.88145  0.58563  1.0000
  N   N169      1.0  0.67593  0.80988  0.64714  1.0000
  C   C1672     1.0  0.50327  0.95755  0.62753  1.0000
  H   H2690     1.0  0.49702  0.86810  0.82631  1.0000
  C   C1673     1.0  0.68478  0.97200  0.81424  1.0000
  C   C1674     1.0  0.49910  0.83535  0.84457  1.0000
  H   H2691     1.0  0.57615  0.86054  0.59409  1.0000
  C   C1675     1.0  0.71218  0.97592  0.79209  1.0000
  C   C1676     1.0  0.69809  0.96639  0.81044  1.0000
  H   H2692     1.0  0.53610  0.77079  0.48721  1.0000
  C   C1677     1.0  0.58939  0.94346  0.93567  1.0000
  H   H2693     1.0  0.69742  0.95458  0.82154  1.0000
  C   C1678     1.0  0.73464  0.84473  0.66855  1.0000
  H   H2694     1.0  0.72230  0.97143  0.78913  1.0000
  S   S682      1.0  0.71598  0.91377  0.62547  1.0000
  C   C1679     1.0  0.72959  0.93835  0.64503  1.0000
  H   H2695     1.0  0.58133  0.84930  0.66700  1.0000
  C   C1680     1.0  0.58100  0.92274  0.78151  1.0000
  C   C1681     1.0  0.59602  0.93045  0.78146  1.0000
  C   C1682     1.0  0.59853  0.93768  0.80314  1.0000
  C   C1683     1.0  0.58601  0.93724  0.82505  1.0000
  C   C1684     1.0  0.57095  0.92988  0.82471  1.0000
  C   C1685     1.0  0.56843  0.92268  0.80298  1.0000
  H   H2696     1.0  0.60579  0.93063  0.76481  1.0000
  H   H2697     1.0  0.61019  0.94334  0.80316  1.0000
  H   H2698     1.0  0.56120  0.92976  0.84133  1.0000
  H   H2699     1.0  0.55679  0.91705  0.80286  1.0000
  H   H2700     1.0  0.66510  0.78528  0.66214  1.0000
  S   S683      1.0  0.61724  0.98257  0.93085  1.0000
  H   H2701     1.0  0.56763  0.96936  0.92534  1.0000
  H   H2702     1.0  0.72224  0.91574  0.56539  1.0000
  C   C1686     1.0  0.58845  0.86301  0.59535  1.0000
  C   C1687     1.0  0.68086  0.82309  0.65918  1.0000
  H   H2703     1.0  0.61090  0.86920  0.62250  1.0000
  C   C1688     1.0  0.53090  0.76523  0.53295  1.0000
  C   C1689     1.0  0.52770  0.76408  0.50684  1.0000
  H   H2704     1.0  0.56132  0.93491  0.92639  1.0000
  H   H2705     1.0  0.59240  0.87564  0.59404  1.0000
  C   C1690     1.0  0.56154  0.93841  0.94652  1.0000
  C   C1691     1.0  0.54186  0.82367  0.66057  1.0000
  C   C1692     1.0  0.53536  0.83571  0.66673  1.0000
  C   C1693     1.0  0.53860  0.84239  0.68870  1.0000
  C   C1694     1.0  0.54835  0.83699  0.70454  1.0000
  C   C1695     1.0  0.55449  0.82468  0.69885  1.0000
  C   C1696     1.0  0.55124  0.81801  0.67699  1.0000
  H   H2706     1.0  0.52803  0.84008  0.65415  1.0000
  H   H2707     1.0  0.53383  0.85190  0.69296  1.0000
  H   H2708     1.0  0.56198  0.82041  0.71118  1.0000
  H   H2709     1.0  0.55605  0.80855  0.67280  1.0000
  C   C1697     1.0  0.62324  0.82590  0.58448  1.0000
  C   C1698     1.0  0.61916  0.82284  0.61413  1.0000
  C   C1699     1.0  0.62928  0.83022  0.62818  1.0000
  C   C1700     1.0  0.64365  0.84063  0.61285  1.0000
  C   C1701     1.0  0.64791  0.84341  0.58326  1.0000
  C   C1702     1.0  0.63772  0.83614  0.56919  1.0000
  H   H2710     1.0  0.60818  0.81483  0.62626  1.0000
  H   H2711     1.0  0.62593  0.82788  0.65110  1.0000
  H   H2712     1.0  0.65895  0.85135  0.57118  1.0000
  H   H2713     1.0  0.64106  0.83855  0.54630  1.0000
  H   H2714     1.0  0.58830  0.97329  0.91791  1.0000
  H   H2715     1.0  0.65401  0.81480  0.64530  1.0000
  H   H2716     1.0  0.65873  0.79666  0.68553  1.0000
  C   C1703     1.0  0.71303  0.99118  0.77766  1.0000
  C   C1704     1.0  0.60645  0.85678  0.62277  1.0000
  H   H2717     1.0  0.66031  0.80341  0.62185  1.0000
  C   C1705     1.0  0.58052  0.85652  0.64658  1.0000
  H   H2718     1.0  0.61399  0.85450  0.60432  1.0000
  H   H2719     1.0  0.49796  0.88486  0.79910  1.0000
  H   H2720     1.0  0.69509  0.96396  0.68987  1.0000
  Fe  Fe337     1.0  0.62575  0.98084  0.88599  1.0000
  H   H2721     1.0  0.51872  0.94613  0.58797  1.0000
  H   H2722     1.0  0.68085  0.95611  0.74072  1.0000
  H   H2723     1.0  0.58421  0.86895  0.64687  1.0000
  H   H2724     1.0  0.56806  0.85396  0.64652  1.0000
  H   H2725     1.0  0.60802  0.84949  0.64241  1.0000
  H   H2726     1.0  0.68970  0.82120  0.67115  1.0000
  H   H2727     1.0  0.59541  0.86072  0.57626  1.0000
  C   C1706     1.0  0.68953  0.80792  0.62766  1.0000
  H   H2728     1.0  0.51129  0.88203  0.69557  1.0000
  N   N170      1.0  0.56487  0.88069  0.85756  1.0000
  C   C1707     1.0  0.55178  0.88777  0.85555  1.0000
  C   C1708     1.0  0.56962  0.88236  0.88369  1.0000
  C   C1709     1.0  0.57807  0.88866  0.83253  1.0000
  C   C1710     1.0  0.55995  0.86396  0.85857  1.0000
  H   H2729     1.0  0.54840  0.88744  0.83535  1.0000
  H   H2730     1.0  0.55474  0.90013  0.85633  1.0000
  H   H2731     1.0  0.54132  0.88147  0.87325  1.0000
  H   H2732     1.0  0.57346  0.89489  0.88345  1.0000
  H   H2733     1.0  0.55988  0.87659  0.90298  1.0000
  H   H2734     1.0  0.57945  0.87711  0.88596  1.0000
  H   H2735     1.0  0.58792  0.88320  0.83260  1.0000
  H   H2736     1.0  0.58252  0.90115  0.83184  1.0000
  H   H2737     1.0  0.57472  0.88838  0.81226  1.0000
  H   H2738     1.0  0.54986  0.85763  0.87701  1.0000
  H   H2739     1.0  0.56948  0.85816  0.86007  1.0000
  H   H2740     1.0  0.55619  0.86233  0.83923  1.0000
  H   H2741     1.0  0.68625  0.83403  0.64211  1.0000
  H   H2742     1.0  0.66923  0.82395  0.61366  1.0000
  H   H2743     1.0  0.67090  0.82519  0.67357  1.0000
  H   H2744     1.0  0.58998  0.94037  0.91501  1.0000
  H   H2745     1.0  0.57236  0.83362  0.62126  1.0000
  H   H2746     1.0  0.58532  0.82885  0.64245  1.0000
  N   N171      1.0  0.57612  0.95011  0.94334  1.0000
  C   C1711     1.0  0.70825  0.87850  0.48669  1.0000
  N   N172      1.0  0.59003  0.85324  0.62181  1.0000
  H   H2747     1.0  0.72537  0.94543  0.62957  1.0000
  C   C1712     1.0  0.50625  0.74626  0.55719  1.0000
  N   N173      1.0  0.70494  0.95713  0.72481  1.0000
  C   C1713     1.0  0.70190  0.94058  0.72415  1.0000
  C   C1714     1.0  0.71971  0.96171  0.73255  1.0000
  C   C1715     1.0  0.69217  0.95927  0.74601  1.0000
  C   C1716     1.0  0.70605  0.96701  0.69645  1.0000
  H   H2748     1.0  0.68632  0.79803  0.61821  1.0000
  C   C1717     1.0  0.50147  0.88674  0.69353  1.0000
  C   C1718     1.0  0.62817  0.83571  0.48297  1.0000
  C   C1719     1.0  0.66899  0.79550  0.67043  1.0000
  H   H2749     1.0  0.49880  0.95814  0.64972  1.0000
  C   C1720     1.0  0.64641  0.98994  0.94015  1.0000
  H   H2750     1.0  0.52224  0.75725  0.57839  1.0000
  C   C1721     1.0  0.49594  0.89484  0.71268  1.0000
  H   H2751     1.0  0.73024  0.90081  0.67048  1.0000
  H   H2752     1.0  0.48833  0.88305  0.83519  1.0000
  C   C1722     1.0  0.50459  0.84338  0.86315  1.0000
  C   C1723     1.0  0.68567  0.98727  0.79995  1.0000
  N   N174      1.0  0.49998  0.94127  0.62520  1.0000
  C   C1724     1.0  0.63053  0.98822  0.95024  1.0000
  H   H2753     1.0  0.71140  0.93853  0.70857  1.0000
  H   H2754     1.0  0.49769  0.96477  0.61385  1.0000
  H   H2755     1.0  0.72239  0.97414  0.73329  1.0000
  H   H2756     1.0  0.69420  0.97161  0.74736  1.0000
  H   H2757     1.0  0.72957  0.96033  0.71687  1.0000
  C   C1725     1.0  0.50745  0.93208  0.64383  1.0000
  H   H2758     1.0  0.69506  0.81861  0.60986  1.0000
  H   H2759     1.0  0.71942  0.95443  0.75371  1.0000
  H   H2760     1.0  0.52021  0.93709  0.63821  1.0000
  H   H2761     1.0  0.51169  0.75314  0.48561  1.0000
  H   H2762     1.0  0.50072  0.84522  0.90639  1.0000
  H   H2763     1.0  0.71556  0.96564  0.67997  1.0000
  H   H2764     1.0  0.48908  0.78433  0.49851  1.0000
  H   H2765     1.0  0.57804  0.96134  0.89969  1.0000
  H   H2766     1.0  0.73129  0.75440  0.74754  1.0000
  C   C1726     1.0  0.72670  0.92214  0.64773  1.0000
  C   C1727     1.0  0.57754  0.96412  0.92061  1.0000
  H   H2767     1.0  0.60056  0.95195  0.93332  1.0000
  C   C1728     1.0  0.51385  0.75408  0.50587  1.0000
  H   H2768     1.0  0.73088  0.85532  0.66383  1.0000
  C   C1729     1.0  0.50598  0.94104  0.59543  1.0000
  H   H2769     1.0  0.69092  0.95191  0.76766  1.0000
  H   H2770     1.0  0.50045  0.94782  0.58093  1.0000
  C   C1730     1.0  0.49650  0.83907  0.89189  1.0000
  S   S684      1.0  0.56504  0.75125  0.66158  1.0000
  C   C1731     1.0  0.51997  0.75644  0.55816  1.0000
  H   H2771     1.0  0.68535  0.84475  0.48238  1.0000
  H   H2772     1.0  0.69091  0.93672  0.71811  1.0000
  H   H2773     1.0  0.54954  0.74488  0.55419  1.0000
  H   H2774     1.0  0.73223  0.90992  0.53606  1.0000
  H   H2775     1.0  0.48667  0.86673  0.77278  1.0000
  C   C1732     1.0  0.57603  0.95444  0.97045  1.0000
  H   H2776     1.0  0.70102  0.93282  0.74524  1.0000
  H   H2777     1.0  0.72572  0.92735  0.52980  1.0000
  C   C1733     1.0  0.50315  0.74494  0.53108  1.0000
  H   H2778     1.0  0.50349  0.92889  0.59302  1.0000
  C   C1734     1.0  0.73168  0.83362  0.65328  1.0000
  S   S685      1.0  0.72176  0.83629  0.62621  1.0000
  C   C1735     1.0  0.49037  0.87641  0.81896  1.0000
  H   H2779     1.0  0.50534  0.91979  0.64223  1.0000
  H   H2780     1.0  0.62720  0.83431  0.50610  1.0000
  H   H2781     1.0  0.50286  0.93166  0.66658  1.0000
  C   C1736     1.0  0.49437  0.88490  0.67141  1.0000
  C   C1737     1.0  0.73230  0.91326  0.66793  1.0000
  H   H2782     1.0  0.65226  0.85480  0.49309  1.0000
  H   H2783     1.0  0.48673  0.76933  0.87034  1.0000
  H   H2784     1.0  0.49879  0.87878  0.65641  1.0000
  C   C1738     1.0  0.73087  0.92019  0.54437  1.0000
  H   H2785     1.0  0.56624  0.95963  0.97677  1.0000
  H   H2786     1.0  0.65088  0.98835  0.91938  1.0000
  C   C1739     1.0  0.72574  0.74244  0.75947  1.0000
  H   H2787     1.0  0.56006  0.92770  0.96359  1.0000
  C   C1740     1.0  0.62483  0.99032  0.97711  1.0000
  H   H2788     1.0  0.67545  0.99167  0.80273  1.0000
  H   H2789     1.0  0.73443  0.81129  0.64790  1.0000
  C   C1741     1.0  0.48539  0.82329  0.85453  1.0000
  Fe  Fe338     1.0  0.74800  0.20924  0.26770  1.0000
  H   H2790     1.0  0.90932  0.22520  0.25078  1.0000
  H   H2791     1.0  0.78575  0.01349  0.26372  1.0000
  Fe  Fe339     1.0  0.77744  0.20524  0.23318  1.0000
  S   S686      1.0  0.77568  0.22045  0.19253  1.0000
  S   S687      1.0  0.79899  0.19634  0.22960  1.0000
  H   H2792     1.0  0.74539  0.00314  0.30871  1.0000
  C   C1742     1.0  0.86084  0.06785  0.99363  1.0000
  Fe  Fe340     1.0  0.75057  0.20760  0.20630  1.0000
  S   S688      1.0  0.77905  0.04232  0.23730  1.0000
  S   S689      1.0  0.77295  0.22231  0.25903  1.0000
  S   S690      1.0  0.75262  0.19098  0.24488  1.0000
  C   C1743     1.0  0.91320  0.15376  0.47351  1.0000
  C   C1744     1.0  0.85962  0.12501  0.46672  1.0000
  S   S691      1.0  0.96476  0.19801  0.16023  1.0000
  Fe  Fe341     1.0  0.96968  0.19053  0.20273  1.0000
  S   S692      1.0  0.95230  0.17382  0.24207  1.0000
  Fe  Fe342     1.0  0.86036  0.13357  0.28818  1.0000
  S   S693      1.0  0.85952  0.10928  0.31238  1.0000
  S   S694      1.0  0.87991  0.15149  0.25335  1.0000
  Fe  Fe343     1.0  0.82542  0.12855  0.31042  1.0000
  S   S695      1.0  0.82235  0.10405  0.33533  1.0000
  S   S696      1.0  0.80308  0.13601  0.31571  1.0000
  Fe  Fe344     1.0  0.84356  0.11423  0.34902  1.0000
  S   S697      1.0  0.83905  0.10730  0.39777  1.0000
  Fe  Fe345     1.0  0.83816  0.10139  0.29691  1.0000
  S   S698      1.0  0.83501  0.08143  0.27485  1.0000
  S   S699      1.0  0.84574  0.13894  0.32551  1.0000
  S   S700      1.0  0.83990  0.12538  0.27112  1.0000
  S   S701      1.0  0.98017  0.21483  0.20531  1.0000
  H   H2793     1.0  0.95529  0.23947  0.08647  1.0000
  S   S702      1.0  0.95715  0.14506  0.03828  1.0000
  H   H2794     1.0  0.81281  0.04566  0.22261  1.0000
  H   H2795     1.0  0.93978  0.09059  0.07181  1.0000
  H   H2796     1.0  0.91159  0.07805  0.08620  1.0000
  H   H2797     1.0  0.94694  0.11027  0.05011  1.0000
  H   H2798     1.0  0.93902  0.09485  0.03533  1.0000
  H   H2799     1.0  0.75833  0.01473  0.27550  1.0000
  N   N175      1.0  0.97182  0.22797  0.06874  1.0000
  H   H2800     1.0  0.75402  0.23955  0.11134  1.0000
  C   C1745     1.0  0.81923  0.07056  0.26492  1.0000
  C   C1746     1.0  0.80385  0.07073  0.27548  1.0000
  C   C1747     1.0  0.79178  0.06209  0.26668  1.0000
  H   H2801     1.0  0.82412  0.18262  0.23519  1.0000
  C   C1748     1.0  0.82226  0.06132  0.24598  1.0000
  H   H2802     1.0  0.80128  0.07740  0.29065  1.0000
  H   H2803     1.0  0.77996  0.06238  0.27495  1.0000
  H   H2804     1.0  0.83409  0.06097  0.23783  1.0000
  H   H2805     1.0  0.92979  0.11909  0.08473  1.0000
  C   C1749     1.0  0.96103  0.15977  0.08085  1.0000
  H   H2806     1.0  0.76384  0.01827  0.07461  1.0000
  H   H2807     1.0  0.96352  0.17063  0.11518  1.0000
  H   H2808     1.0  0.94884  0.15422  0.09019  1.0000
  C   C1750     1.0  0.90011  0.15599  0.25043  1.0000
  C   C1751     1.0  0.91029  0.16407  0.22378  1.0000
  C   C1752     1.0  0.92633  0.16922  0.22075  1.0000
  C   C1753     1.0  0.93238  0.16639  0.24444  1.0000
  C   C1754     1.0  0.92225  0.15803  0.27101  1.0000
  C   C1755     1.0  0.90619  0.15281  0.27402  1.0000
  H   H2809     1.0  0.90568  0.16647  0.20540  1.0000
  H   H2810     1.0  0.93399  0.17544  0.20012  1.0000
  H   H2811     1.0  0.92683  0.15572  0.28944  1.0000
  H   H2812     1.0  0.89849  0.14662  0.29466  1.0000
  H   H2813     1.0  0.90792  0.05885  0.00137  1.0000
  C   C1756     1.0  0.83940  0.10857  0.45258  1.0000
  C   C1757     1.0  0.84734  0.11454  0.42362  1.0000
  C   C1758     1.0  0.86136  0.12601  0.41631  1.0000
  C   C1759     1.0  0.86751  0.13108  0.43773  1.0000
  C   C1760     1.0  0.81020  0.05259  0.23730  1.0000
  H   H2814     1.0  0.86765  0.13072  0.39421  1.0000
  H   H2815     1.0  0.87853  0.13968  0.43178  1.0000
  H   H2816     1.0  0.90829  0.11592  0.04504  1.0000
  H   H2817     1.0  0.92216  0.14716  0.47047  1.0000
  H   H2818     1.0  0.93376  0.22214  0.18365  1.0000
  C   C1761     1.0  0.80952  0.01172  0.03606  1.0000
  H   H2819     1.0  0.93959  0.23580  0.20312  1.0000
  H   H2820     1.0  0.89832  0.08872  0.07512  1.0000
  H   H2821     1.0  0.91101  0.08255  0.04957  1.0000
  S   S703      1.0  0.80689  0.00649  0.13098  1.0000
  H   H2822     1.0  0.82903  0.00178  0.03561  1.0000
  C   C1762     1.0  0.74805  0.22114  0.33272  1.0000
  C   C1763     1.0  0.96935  0.16913  0.09511  1.0000
  H   H2823     1.0  0.75743  0.21803  0.31997  1.0000
  C   C1764     1.0  0.79486  0.05299  0.24746  1.0000
  S   S704      1.0  0.77747  0.02972  0.16270  1.0000
  H   H2824     1.0  0.90930  0.11013  0.09558  1.0000
  H   H2825     1.0  0.92871  0.12496  0.03473  1.0000
  H   H2826     1.0  0.82857  0.09966  0.45859  1.0000
  H   H2827     1.0  0.74428  0.01707  0.09182  1.0000
  C   C1765     1.0  0.96832  0.15739  0.05484  1.0000
  H   H2828     1.0  0.92254  0.09945  0.10680  1.0000
  C   C1766     1.0  0.79994  0.17975  0.25424  1.0000
  C   C1767     1.0  0.78697  0.17059  0.27581  1.0000
  C   C1768     1.0  0.78811  0.15726  0.29474  1.0000
  C   C1769     1.0  0.80222  0.15308  0.29228  1.0000
  C   C1770     1.0  0.81522  0.16230  0.27087  1.0000
  C   C1771     1.0  0.81404  0.17554  0.25183  1.0000
  H   H2829     1.0  0.77607  0.17376  0.27781  1.0000
  H   H2830     1.0  0.77802  0.15017  0.31128  1.0000
  H   H2831     1.0  0.82617  0.15921  0.26888  1.0000
  N   N176      1.0  0.81113  0.13933  0.39755  1.0000
  C   C1772     1.0  0.79875  0.13945  0.42172  1.0000
  C   C1773     1.0  0.80768  0.12404  0.39095  1.0000
  C   C1774     1.0  0.82614  0.14200  0.40514  1.0000
  C   C1775     1.0  0.81193  0.15177  0.37240  1.0000
  H   H2832     1.0  0.80102  0.15081  0.42736  1.0000
  H   H2833     1.0  0.79783  0.13014  0.44098  1.0000
  H   H2834     1.0  0.78726  0.13746  0.41667  1.0000
  H   H2835     1.0  0.81687  0.12357  0.37300  1.0000
  H   H2836     1.0  0.80710  0.11433  0.40932  1.0000
  H   H2837     1.0  0.79656  0.12165  0.38467  1.0000
  H   H2838     1.0  0.83568  0.14143  0.38776  1.0000
  H   H2839     1.0  0.82580  0.13294  0.42435  1.0000
  H   H2840     1.0  0.82937  0.15356  0.40966  1.0000
  H   H2841     1.0  0.82108  0.15192  0.35370  1.0000
  H   H2842     1.0  0.81453  0.16351  0.37647  1.0000
  H   H2843     1.0  0.80082  0.15002  0.36592  1.0000
  N   N177      1.0  0.92445  0.21374  0.22893  1.0000
  H   H2844     1.0  0.94690  0.22057  0.08212  1.0000
  H   H2845     1.0  0.77958  0.99258  0.27087  1.0000
  S   S705      1.0  0.81010  0.01392  0.99964  1.0000
  S   S706      1.0  0.74399  0.22459  0.23005  1.0000
  H   H2846     1.0  0.91511  0.21057  0.27356  1.0000
  H   H2847     1.0  0.75566  0.99514  0.03940  1.0000
  Fe  Fe346     1.0  0.76925  0.23626  0.21925  1.0000
  Fe  Fe347     1.0  0.97690  0.22200  0.16135  1.0000
  H   H2848     1.0  0.92862  0.22915  0.25559  1.0000
  S   S707      1.0  0.96694  0.11513  0.99303  1.0000
  C   C1776     1.0  0.93747  0.20695  0.23321  1.0000
  H   H2849     1.0  0.93398  0.19722  0.25292  1.0000
  H   H2850     1.0  0.83140  0.06452  0.02198  1.0000
  H   H2851     1.0  0.90130  0.20609  0.22438  1.0000
  C   C1777     1.0  0.85215  0.04002  0.00084  1.0000
  H   H2852     1.0  0.77657  0.02661  0.30005  1.0000
  N   N178      1.0  0.79964  0.11684  0.24127  1.0000
  C   C1778     1.0  0.79438  0.11018  0.27239  1.0000
  C   C1779     1.0  0.80708  0.13369  0.23497  1.0000
  C   C1780     1.0  0.78617  0.11462  0.22889  1.0000
  C   C1781     1.0  0.81087  0.10885  0.22885  1.0000
  H   H2853     1.0  0.78640  0.11637  0.28263  1.0000
  H   H2854     1.0  0.80431  0.11118  0.28236  1.0000
  H   H2855     1.0  0.78819  0.09761  0.27798  1.0000
  H   H2856     1.0  0.81144  0.13914  0.21172  1.0000
  H   H2857     1.0  0.79885  0.14008  0.24376  1.0000
  H   H2858     1.0  0.81709  0.13585  0.24451  1.0000
  H   H2859     1.0  0.78973  0.11957  0.20543  1.0000
  H   H2860     1.0  0.77745  0.12046  0.23789  1.0000
  H   H2861     1.0  0.78027  0.10202  0.23318  1.0000
  H   H2862     1.0  0.82080  0.10948  0.23880  1.0000
  H   H2863     1.0  0.81570  0.11408  0.20561  1.0000
  H   H2864     1.0  0.80540  0.09626  0.23197  1.0000
  N   N179      1.0  0.92213  0.10198  0.06302  1.0000
  C   C1782     1.0  0.91990  0.11362  0.03965  1.0000
  C   C1783     1.0  0.93765  0.09930  0.05471  1.0000
  C   C1784     1.0  0.91021  0.08716  0.06881  1.0000
  C   C1785     1.0  0.92084  0.10789  0.08872  1.0000
  H   H2865     1.0  0.92095  0.10960  0.01981  1.0000
  H   H2866     1.0  0.98313  0.23509  0.02410  1.0000
  Fe  Fe348     1.0  0.77602  0.02488  0.20969  1.0000
  S   S708      1.0  0.73717  0.20391  0.17364  1.0000
  C   C1786     1.0  0.79700  0.01485  0.08217  1.0000
  C   C1787     1.0  0.79805  0.01651  0.05301  1.0000
  H   H2867     1.0  0.78821  0.01866  0.09503  1.0000
  H   H2868     1.0  0.79002  0.02163  0.04342  1.0000
  H   H2869     1.0  0.84223  0.02994  0.00343  1.0000
  H   H2870     1.0  0.75230  0.99393  0.28185  1.0000
  C   C1788     1.0  0.82018  0.00556  0.04837  1.0000
  C   C1789     1.0  0.80759  0.00857  0.09455  1.0000
  N   N180      1.0  0.74803  0.99574  0.08293  1.0000
  H   H2871     1.0  0.74938  0.01775  0.05474  1.0000
  H   H2872     1.0  0.94179  0.20212  0.21524  1.0000
  H   H2873     1.0  0.96252  0.22727  0.03247  1.0000
  C   C1790     1.0  0.81925  0.00409  0.07745  1.0000
  H   H2874     1.0  0.92022  0.23199  0.19850  1.0000
  Fe  Fe349     1.0  0.75393  0.01272  0.17456  1.0000
  C   C1791     1.0  0.78239  0.00240  0.28077  1.0000
  C   C1792     1.0  0.97385  0.21198  0.07239  1.0000
  H   H2875     1.0  0.83970  0.05139  0.04285  1.0000
  S   S709      1.0  0.78669  0.00467  0.20933  1.0000
  C   C1793     1.0  0.92968  0.22648  0.20245  1.0000
  S   S710      1.0  0.75159  0.00952  0.22137  1.0000
  C   C1794     1.0  0.75155  0.01295  0.07561  1.0000
  N   N181      1.0  0.76912  0.00205  0.30372  1.0000
  Fe  Fe350     1.0  0.78623  0.00827  0.16332  1.0000
  H   H2876     1.0  0.76546  0.23339  0.13461  1.0000
  C   C1795     1.0  0.91914  0.21996  0.25330  1.0000
  C   C1796     1.0  0.75111  0.23033  0.35142  1.0000
  C   C1797     1.0  0.75569  0.00352  0.29197  1.0000
  C   C1798     1.0  0.97196  0.23451  0.03887  1.0000
  C   C1799     1.0  0.83532  0.05363  0.02345  1.0000
  H   H2877     1.0  0.77023  0.99517  0.05880  1.0000
  S   S711      1.0  0.73753  0.02081  0.14933  1.0000
  S   S712      1.0  0.92896  0.08965  0.98279  1.0000
  C   C1800     1.0  0.91154  0.20155  0.22676  1.0000
  H   H2878     1.0  0.85753  0.07908  0.99196  1.0000
  H   H2879     1.0  0.90765  0.19145  0.24598  1.0000
  Fe  Fe351     1.0  0.96264  0.13854  0.99547  1.0000
  C   C1801     1.0  0.95688  0.22752  0.08763  1.0000
  H   H2880     1.0  0.86648  0.06603  0.01146  1.0000
  H   H2881     1.0  0.82492  0.04388  0.02675  1.0000
  H   H2882     1.0  0.94743  0.21578  0.23496  1.0000
  C   C1802     1.0  0.98413  0.16468  0.04322  1.0000
  H   H2883     1.0  0.91503  0.19691  0.20811  1.0000
  H   H2884     1.0  0.76288  0.23437  0.35282  1.0000
  H   H2885     1.0  0.95623  0.22217  0.11025  1.0000
  H   H2886     1.0  0.78360  0.01456  0.32520  1.0000
  N   N182      1.0  0.84729  0.05470  0.99767  1.0000
  H   H2887     1.0  0.79279  0.00143  0.28877  1.0000
  H   H2888     1.0  0.96447  0.20411  0.06692  1.0000
  C   C1803     1.0  0.77341  0.01520  0.31632  1.0000
  H   H2889     1.0  0.82751  0.99926  0.08687  1.0000
  H   H2890     1.0  0.90265  0.14709  0.46895  1.0000
  C   C1804     1.0  0.84541  0.11383  0.47395  1.0000
  H   H2891     1.0  0.85695  0.03756  0.01966  1.0000
  H   H2892     1.0  0.91743  0.16518  0.45728  1.0000
  H   H2893     1.0  0.76367  0.01538  0.33367  1.0000
  C   C1805     1.0  0.73904  0.23433  0.36829  1.0000
  S   S713      1.0  0.96511  0.24087  0.14811  1.0000
  H   H2894     1.0  0.97375  0.20668  0.09472  1.0000
  C   C1806     1.0  0.98459  0.23789  0.07616  1.0000
  H   H2895     1.0  0.86124  0.04045  0.98184  1.0000
  H   H2896     1.0  0.74458  0.99385  0.12763  1.0000
  H   H2897     1.0  0.76392  0.99462  0.10945  1.0000
  H   H2898     1.0  0.98452  0.23353  0.09878  1.0000
  Fe  Fe352     1.0  0.75761  0.21692  0.62858  1.0000
  H   H2899     1.0  0.96345  0.19330  0.79938  1.0000
  C   C1807     1.0  0.80853  0.11577  0.65527  1.0000
  Fe  Fe353     1.0  0.77197  0.19718  0.66728  1.0000
  S   S714      1.0  0.75735  0.20060  0.70637  1.0000
  S   S715      1.0  0.79041  0.18457  0.67473  1.0000
  S   S716      1.0  0.98083  0.15162  0.95509  1.0000
  H   H2900     1.0  0.92819  0.22574  0.69588  1.0000
  Fe  Fe354     1.0  0.76282  0.22567  0.68263  1.0000
  C   C1808     1.0  0.80023  0.10232  0.62173  1.0000
  S   S717      1.0  0.75177  0.19099  0.64850  1.0000
  S   S718      1.0  0.77889  0.22267  0.64483  1.0000
  S   S719      1.0  0.79478  0.02194  0.65363  1.0000
  Fe  Fe355     1.0  0.83696  0.14040  0.58255  1.0000
  S   S720      1.0  0.85997  0.15192  0.55129  1.0000
  S   S721      1.0  0.81549  0.14941  0.58458  1.0000
  Fe  Fe356     1.0  0.84637  0.11120  0.60424  1.0000
  S   S722      1.0  0.87038  0.12021  0.57450  1.0000
  S   S723      1.0  0.83669  0.08979  0.64212  1.0000
  Fe  Fe357     1.0  0.87084  0.14301  0.58627  1.0000
  S   S724      1.0  0.89402  0.15907  0.58665  1.0000
  Fe  Fe358     1.0  0.85859  0.12884  0.54058  1.0000
  H   H2901     1.0  0.81327  0.21118  0.68190  1.0000
  S   S725      1.0  0.84768  0.13346  0.61839  1.0000
  S   S726      1.0  0.83470  0.11790  0.56953  1.0000
  Fe  Fe359     1.0  0.94641  0.19207  0.69120  1.0000
  S   S727      1.0  0.92384  0.17751  0.68570  1.0000
  S   S728      1.0  0.94506  0.19656  0.73463  1.0000
  C   C1809     1.0  0.81681  0.01439  0.81519  1.0000
  C   C1810     1.0  0.89762  0.16447  0.50564  1.0000
  Fe  Fe360     1.0  0.86237  0.02909  0.93123  1.0000
  S   S729      1.0  0.83859  0.03136  0.92784  1.0000
  S   S730      1.0  0.88093  0.05217  0.92526  1.0000
  Fe  Fe361     1.0  0.83765  0.01393  0.90143  1.0000
  S   S731      1.0  0.83021  0.01826  0.85930  1.0000
  S   S732      1.0  0.86231  0.01337  0.90126  1.0000
  C   C1811     1.0  0.91455  0.08569  0.93873  1.0000
  C   C1812     1.0  0.90391  0.07718  0.92673  1.0000
  C   C1813     1.0  0.89471  0.06199  0.94130  1.0000
  H   H2902     1.0  0.92148  0.09729  0.92701  1.0000
  H   H2903     1.0  0.90283  0.08243  0.90585  1.0000
  C   C1814     1.0  0.90398  0.14032  0.52326  1.0000
  H   H2904     1.0  0.81376  0.23064  0.68515  1.0000
  S   S733      1.0  0.77448  0.00797  0.73724  1.0000
  C   C1815     1.0  0.80750  0.00618  0.80072  1.0000
  H   H2905     1.0  0.80716  0.01177  0.77949  1.0000
  C   C1816     1.0  0.90208  0.16396  0.61463  1.0000
  C   C1817     1.0  0.91704  0.17413  0.60764  1.0000
  C   C1818     1.0  0.92396  0.17831  0.62893  1.0000
  C   C1819     1.0  0.91599  0.17239  0.65765  1.0000
  C   C1820     1.0  0.90099  0.16235  0.66462  1.0000
  C   C1821     1.0  0.89409  0.15813  0.64335  1.0000
  H   H2906     1.0  0.92336  0.17874  0.58556  1.0000
  H   H2907     1.0  0.93548  0.18603  0.62309  1.0000
  H   H2908     1.0  0.89468  0.15764  0.68671  1.0000
  H   H2909     1.0  0.88262  0.15029  0.64921  1.0000
  S   S734      1.0  0.96635  0.12375  0.92599  1.0000
  H   H2910     1.0  0.80276  0.18883  0.72381  1.0000
  C   C1822     1.0  0.74656  0.23160  0.53815  1.0000
  H   H2911     1.0  0.86977  0.06923  0.97372  1.0000
  C   C1823     1.0  0.96886  0.15671  0.84904  1.0000
  C   C1824     1.0  0.80591  0.04095  0.65103  1.0000
  C   C1825     1.0  0.80935  0.04542  0.67478  1.0000
  C   C1826     1.0  0.81878  0.06041  0.67159  1.0000
  C   C1827     1.0  0.82475  0.07115  0.64473  1.0000
  C   C1828     1.0  0.82101  0.06684  0.62106  1.0000
  C   C1829     1.0  0.81173  0.05178  0.62421  1.0000
  H   H2912     1.0  0.80505  0.03720  0.69549  1.0000
  H   H2913     1.0  0.82165  0.06361  0.69002  1.0000
  H   H2914     1.0  0.82555  0.07495  0.60025  1.0000
  H   H2915     1.0  0.80918  0.04841  0.60570  1.0000
  H   H2916     1.0  0.92122  0.16621  0.53025  1.0000
  C   C1830     1.0  0.73875  0.00690  0.83739  1.0000
  C   C1831     1.0  0.74450  0.22820  0.56771  1.0000
  C   C1832     1.0  0.97243  0.15879  0.81934  1.0000
  C   C1833     1.0  0.91612  0.07924  0.96582  1.0000
  H   H2917     1.0  0.79571  0.21718  0.68822  1.0000
  H   H2918     1.0  0.77438  0.00725  0.79966  1.0000
  H   H2919     1.0  0.76196  0.00522  0.86321  1.0000
  H   H2920     1.0  0.81552  0.16986  0.66892  1.0000
  H   H2921     1.0  0.82352  0.02626  0.80481  1.0000
  C   C1834     1.0  0.79750  0.17505  0.64931  1.0000
  C   C1835     1.0  0.79065  0.17355  0.62699  1.0000
  C   C1836     1.0  0.79635  0.16570  0.60729  1.0000
  C   C1837     1.0  0.80906  0.15948  0.60951  1.0000
  C   C1838     1.0  0.81601  0.16105  0.63175  1.0000
  C   C1839     1.0  0.81016  0.16873  0.65170  1.0000
  H   H2922     1.0  0.78091  0.17839  0.62492  1.0000
  H   H2923     1.0  0.79094  0.16454  0.59012  1.0000
  H   H2924     1.0  0.82585  0.15636  0.63358  1.0000
  H   H2925     1.0  0.90110  0.14140  0.54549  1.0000
  H   H2926     1.0  0.77840  0.11491  0.67156  1.0000
  C   C1840     1.0  0.84083  0.05720  0.97263  1.0000
  H   H2927     1.0  0.82696  0.22729  0.72368  1.0000
  H   H2928     1.0  0.77229  0.10500  0.64632  1.0000
  H   H2929     1.0  0.83061  0.04743  0.97489  1.0000
  H   H2930     1.0  0.81032  0.09712  0.62028  1.0000
  C   C1841     1.0  0.90684  0.06409  0.98052  1.0000
  H   H2931     1.0  0.97007  0.14636  0.86280  1.0000
  H   H2932     1.0  0.93305  0.15836  0.50642  1.0000
  H   H2933     1.0  0.81912  0.21080  0.75416  1.0000
  S   S735      1.0  0.76065  0.22705  0.58159  1.0000
  H   H2934     1.0  0.90030  0.19346  0.68340  1.0000
  H   H2935     1.0  0.76025  0.01650  0.78816  1.0000
  H   H2936     1.0  0.78701  0.09189  0.69363  1.0000
  H   H2937     1.0  0.80524  0.11857  0.67602  1.0000
  C   C1842     1.0  0.91768  0.21611  0.69924  1.0000
  C   C1843     1.0  0.97047  0.17196  0.80119  1.0000
  Fe  Fe362     1.0  0.82950  0.01076  0.96610  1.0000
  H   H2938     1.0  0.92647  0.20745  0.65146  1.0000
  H   H2939     1.0  0.82729  0.20803  0.72008  1.0000
  H   H2940     1.0  0.81272  0.12698  0.63846  1.0000
  H   H2941     1.0  0.78579  0.12395  0.63417  1.0000
  C   C1844     1.0  0.89717  0.20482  0.67983  1.0000
  H   H2942     1.0  0.73596  0.23654  0.50333  1.0000
  H   H2943     1.0  0.79377  0.21795  0.76273  1.0000
  C   C1845     1.0  0.79068  0.09022  0.67201  1.0000
  S   S736      1.0  0.95879  0.21701  0.66815  1.0000
  H   H2944     1.0  0.86128  0.00238  0.84120  1.0000
  H   H2945     1.0  0.80044  0.08453  0.67184  1.0000
  H   H2946     1.0  0.76911  0.02232  0.81475  1.0000
  Fe  Fe363     1.0  0.73766  0.19666  0.68583  1.0000
  H   H2947     1.0  0.88683  0.15821  0.50144  1.0000
  N   N183      1.0  0.75198  0.00023  0.82940  1.0000
  H   H2948     1.0  0.75775  0.23250  0.52452  1.0000
  C   C1846     1.0  0.79641  0.19614  0.73458  1.0000
  Fe  Fe364     1.0  0.96822  0.19111  0.73172  1.0000
  H   H2949     1.0  0.91767  0.21941  0.62987  1.0000
  C   C1847     1.0  0.76447  0.01212  0.80703  1.0000
  Fe  Fe365     1.0  0.98409  0.12816  0.95134  1.0000
  S   S737      1.0  0.82678  0.99339  0.93954  1.0000
  H   H2950     1.0  0.95768  0.18995  0.85163  1.0000
  C   C1848     1.0  0.92374  0.16459  0.50828  1.0000
  H   H2951     1.0  0.88813  0.20421  0.69903  1.0000
  C   C1849     1.0  0.78235  0.11254  0.65059  1.0000
  H   H2952     1.0  0.80238  0.23458  0.73289  1.0000
  H   H2953     1.0  0.78092  0.08185  0.66851  1.0000
  S   S738      1.0  0.96866  0.18489  0.68999  1.0000
  H   H2954     1.0  0.83703  0.06818  0.96943  1.0000
  S   S739      1.0  0.97579  0.17441  0.76385  1.0000
  H   H2955     1.0  0.83923  0.10894  0.49608  1.0000
  H   H2956     1.0  0.81849  0.11048  0.65557  1.0000
  H   H2957     1.0  0.89447  0.16603  0.52749  1.0000
  H   H2958     1.0  0.80361  0.11336  0.60452  1.0000
  S   S740      1.0  0.94359  0.13545  0.97263  1.0000
  N   N184      1.0  0.80494  0.21279  0.72462  1.0000
  H   H2959     1.0  0.84960  0.05797  0.95282  1.0000
  C   C1850     1.0  0.80706  0.21823  0.69363  1.0000
  C   C1851     1.0  0.82027  0.21480  0.73094  1.0000
  C   C1852     1.0  0.79604  0.22202  0.73925  1.0000
  Fe  Fe366     1.0  0.98102  0.21022  0.67012  1.0000
  C   C1853     1.0  0.89633  0.05550  0.96836  1.0000
  S   S741      1.0  0.74203  0.22214  0.66461  1.0000
  H   H2960     1.0  0.79449  0.19157  0.75788  1.0000
  Fe  Fe367     1.0  0.78132  0.00331  0.69449  1.0000
  C   C1854     1.0  0.81767  0.00739  0.84272  1.0000
  Fe  Fe368     1.0  0.96230  0.14659  0.93194  1.0000
  S   S742      1.0  0.86838  0.13134  0.49287  1.0000
  Fe  Fe369     1.0  0.95901  0.22101  0.71120  1.0000
  H   H2961     1.0  0.78462  0.22126  0.73405  1.0000
  S   S743      1.0  0.96021  0.16658  0.89784  1.0000
  C   C1855     1.0  0.96172  0.18117  0.84270  1.0000
  H   H2962     1.0  0.89188  0.20568  0.66146  1.0000
  C   C1856     1.0  0.96365  0.16799  0.86085  1.0000
  H   H2963     1.0  0.90932  0.21594  0.71902  1.0000
  H   H2964     1.0  0.93294  0.22824  0.64399  1.0000
  C   C1857     1.0  0.96498  0.18310  0.81305  1.0000
  Fe  Fe370     1.0  0.75074  0.99405  0.73911  1.0000
  N   N185      1.0  0.79542  0.10520  0.64994  1.0000
  Fe  Fe371     1.0  0.94864  0.11265  0.96810  1.0000
  H   H2965     1.0  0.79076  0.09410  0.61720  1.0000
  H   H2966     1.0  0.89335  0.13334  0.51965  1.0000
  H   H2967     1.0  0.92117  0.20497  0.70327  1.0000
  N   N186      1.0  0.91088  0.21801  0.67455  1.0000
  H   H2968     1.0  0.78486  0.19423  0.72973  1.0000
  H   H2969     1.0  0.74223  0.01738  0.84523  1.0000
  S   S744      1.0  0.85320  0.00892  0.97039  1.0000
  H   H2970     1.0  0.91274  0.13344  0.52167  1.0000
  H   H2971     1.0  0.88957  0.04383  0.97992  1.0000
  H   H2972     1.0  0.90152  0.17625  0.49055  1.0000
  S   S745      1.0  0.98215  0.21600  0.71143  1.0000
  H   H2973     1.0  0.92835  0.17638  0.49322  1.0000
  N   N187      1.0  0.90965  0.15580  0.50263  1.0000
  C   C1858     1.0  0.75789  0.99525  0.85444  1.0000
  H   H2974     1.0  0.97653  0.15004  0.81041  1.0000
  H   H2975     1.0  0.89741  0.23297  0.68929  1.0000
  H   H2976     1.0  0.90111  0.23469  0.65173  1.0000
  Fe  Fe372     1.0  0.85139  0.99334  0.94037  1.0000
  C   C1859     1.0  0.92249  0.21834  0.64882  1.0000
  H   H2977     1.0  0.97475  0.23767  0.75116  1.0000
  C   C1860     1.0  0.90620  0.23282  0.67031  1.0000
  C   C1861     1.0  0.80888  0.99201  0.85570  1.0000
  Fe  Fe373     1.0  0.90187  0.45451  0.27809  1.0000
  S   S746      1.0  0.89495  0.44840  0.24015  1.0000
  S   S747      1.0  0.88480  0.45622  0.31650  1.0000
  Fe  Fe374     1.0  0.93650  0.45898  0.25314  1.0000
  S   S748      1.0  0.93249  0.45266  0.21321  1.0000
  S   S749      1.0  0.95926  0.46248  0.26683  1.0000
  Fe  Fe375     1.0  0.91575  0.46782  0.21466  1.0000
  N   N188      1.0  0.93129  0.48335  0.32781  1.0000
  Fe  Fe376     1.0  0.91190  0.43367  0.24121  1.0000
  S   S750      1.0  0.90538  0.40848  0.23881  1.0000
  S   S751      1.0  0.92123  0.47552  0.25242  1.0000
  S   S752      1.0  0.91730  0.43840  0.28130  1.0000
  Fe  Fe377     1.0  0.79334  0.41068  0.45659  1.0000
  C   C1862     1.0  0.80278  0.26846  0.21371  1.0000
  S   S753      1.0  0.78245  0.42944  0.43793  1.0000
  Fe  Fe378     1.0  0.81941  0.39590  0.43827  1.0000
  H   H2978     1.0  0.78390  0.25303  0.14795  1.0000
  S   S754      1.0  0.84048  0.39491  0.40610  1.0000
  C   C1863     1.0  0.93318  0.46795  0.32472  1.0000
  H   H2979     1.0  0.79291  0.26278  0.11115  1.0000
  H   H2980     1.0  0.86442  0.33427  0.99455  1.0000
  S   S755      1.0  0.79495  0.39183  0.43373  1.0000
  S   S756      1.0  0.81856  0.41621  0.45710  1.0000
  H   H2981     1.0  0.93106  0.46595  0.30440  1.0000
  C   C1864     1.0  0.76445  0.39605  0.00278  1.0000
  H   H2982     1.0  0.88826  0.41903  0.47309  1.0000
  H   H2983     1.0  0.84528  0.35818  0.98980  1.0000
  S   S757      1.0  0.75898  0.45024  0.02140  1.0000
  S   S758      1.0  0.74368  0.24687  0.38971  1.0000
  H   H2984     1.0  0.94516  0.46692  0.32455  1.0000
  S   S759      1.0  0.95291  0.34578  0.10380  1.0000
  Fe  Fe379     1.0  0.84538  0.32904  0.16401  1.0000
  S   S760      1.0  0.84623  0.32686  0.11968  1.0000
  S   S761      1.0  0.83755  0.30721  0.19999  1.0000
  Fe  Fe380     1.0  0.85842  0.36412  0.14650  1.0000
  S   S762      1.0  0.85994  0.36476  0.10070  1.0000
  S   S763      1.0  0.86680  0.38820  0.15335  1.0000
  Fe  Fe381     1.0  0.83652  0.34774  0.11505  1.0000
  S   S764      1.0  0.81992  0.35249  0.08779  1.0000
  Fe  Fe382     1.0  0.86952  0.34396  0.10824  1.0000
  S   S765      1.0  0.88895  0.34399  0.07191  1.0000
  S   S766      1.0  0.83391  0.34886  0.16056  1.0000
  S   S767      1.0  0.86973  0.34435  0.15315  1.0000
  S   S768      1.0  0.78133  0.30288  0.03772  1.0000
  H   H2985     1.0  0.86998  0.40083  0.42328  1.0000
  C   C1865     1.0  0.80864  0.33829  0.07543  1.0000
  C   C1866     1.0  0.80020  0.34317  0.05613  1.0000
  C   C1867     1.0  0.79178  0.33245  0.04446  1.0000
  C   C1868     1.0  0.79168  0.31670  0.05210  1.0000
  C   C1869     1.0  0.80002  0.31177  0.07160  1.0000
  C   C1870     1.0  0.80846  0.32250  0.08327  1.0000
  H   H2986     1.0  0.80021  0.35534  0.05007  1.0000
  H   H2987     1.0  0.78529  0.33636  0.02971  1.0000
  H   H2988     1.0  0.79999  0.29960  0.07767  1.0000
  H   H2989     1.0  0.81478  0.31856  0.09834  1.0000
  C   C1871     1.0  0.93519  0.34401  0.09432  1.0000
  C   C1872     1.0  0.93463  0.34747  0.06586  1.0000
  C   C1873     1.0  0.92034  0.34709  0.05907  1.0000
  C   C1874     1.0  0.90659  0.34319  0.08069  1.0000
  C   C1875     1.0  0.90714  0.33927  0.10907  1.0000
  C   C1876     1.0  0.92141  0.33978  0.11586  1.0000
  H   H2990     1.0  0.94524  0.35074  0.04914  1.0000
  H   H2991     1.0  0.91998  0.35008  0.03706  1.0000
  H   H2992     1.0  0.89658  0.33581  0.12583  1.0000
  H   H2993     1.0  0.92178  0.33686  0.13789  1.0000
  Fe  Fe383     1.0  0.78002  0.47046  0.00124  1.0000
  C   C1877     1.0  0.77290  0.28463  0.26233  1.0000
  H   H2994     1.0  0.83530  0.47703  0.16468  1.0000
  C   C1878     1.0  0.87537  0.41604  0.47860  1.0000
  Fe  Fe384     1.0  0.76879  0.31048  0.00414  1.0000
  C   C1879     1.0  0.79638  0.28990  0.18459  1.0000
  H   H2995     1.0  0.85970  0.33234  0.05721  1.0000
  H   H2996     1.0  0.77599  0.25584  0.26126  1.0000
  C   C1880     1.0  0.87408  0.38976  0.47457  1.0000
  C   C1881     1.0  0.76516  0.43330  0.45485  1.0000
  C   C1882     1.0  0.75562  0.33171  0.43155  1.0000
  C   C1883     1.0  0.86020  0.36167  0.03070  1.0000
  C   C1884     1.0  0.75927  0.44450  0.43947  1.0000
  C   C1885     1.0  0.78326  0.26200  0.12950  1.0000
  N   N189      1.0  0.74420  0.38592  0.44978  1.0000
  N   N190      1.0  0.86894  0.40396  0.46521  1.0000
  H   H2997     1.0  0.79998  0.25628  0.22498  1.0000
  S   S769      1.0  0.97480  0.32746  0.04667  1.0000
  C   C1886     1.0  0.97275  0.47995  0.26554  1.0000
  H   H2998     1.0  0.77176  0.28205  0.24183  1.0000
  H   H2999     1.0  0.84059  0.48421  0.08630  1.0000
  C   C1887     1.0  0.89480  0.40296  0.21482  1.0000
  C   C1888     1.0  0.89162  0.41407  0.19433  1.0000
  C   C1889     1.0  0.88285  0.40929  0.17597  1.0000
  C   C1890     1.0  0.87724  0.39339  0.17779  1.0000
  C   C1891     1.0  0.88035  0.38226  0.19838  1.0000
  C   C1892     1.0  0.88915  0.38704  0.21674  1.0000
  H   H3000     1.0  0.89596  0.42636  0.19256  1.0000
  H   H3001     1.0  0.88052  0.41799  0.16006  1.0000
  H   H3002     1.0  0.87597  0.36997  0.20015  1.0000
  H   H3003     1.0  0.89152  0.37837  0.23262  1.0000
  C   C1893     1.0  0.83745  0.48543  0.10840  1.0000
  H   H3004     1.0  0.85065  0.36362  0.04635  1.0000
  C   C1894     1.0  0.97699  0.25936  0.12797  1.0000
  H   H3005     1.0  0.83719  0.33743  0.00349  1.0000
  C   C1895     1.0  0.85270  0.41211  0.38155  1.0000
  C   C1896     1.0  0.86615  0.41123  0.36308  1.0000
  C   C1897     1.0  0.87609  0.42467  0.34301  1.0000
  C   C1898     1.0  0.87268  0.43911  0.34147  1.0000
  C   C1899     1.0  0.85941  0.44004  0.36036  1.0000
  C   C1900     1.0  0.84940  0.42657  0.38025  1.0000
  H   H3006     1.0  0.86888  0.40009  0.36428  1.0000
  H   H3007     1.0  0.88640  0.42387  0.32883  1.0000
  H   H3008     1.0  0.85672  0.45119  0.35934  1.0000
  H   H3009     1.0  0.83907  0.42740  0.39438  1.0000
  C   C1901     1.0  0.82044  0.29446  0.19901  1.0000
  H   H3010     1.0  0.82444  0.27435  0.22522  1.0000
  H   H3011     1.0  0.81326  0.31216  0.17262  1.0000
  C   C1902     1.0  0.76815  0.27436  0.31306  1.0000
  H   H3012     1.0  0.77703  0.27123  0.07899  1.0000
  H   H3013     1.0  0.88893  0.48362  0.21700  1.0000
  C   C1903     1.0  0.75185  0.38809  0.47265  1.0000
  C   C1904     1.0  0.84566  0.48638  0.15139  1.0000
  H   H3014     1.0  0.86997  0.36112  0.04087  1.0000
  H   H3015     1.0  0.84544  0.32268  0.04200  1.0000
  H   H3016     1.0  0.88693  0.39214  0.46831  1.0000
  H   H3017     1.0  0.82672  0.47616  0.12029  1.0000
  H   H3018     1.0  0.74621  0.25207  0.30546  1.0000
  C   C1905     1.0  0.97940  0.28586  0.10098  1.0000
  C   C1906     1.0  0.84186  0.34835  0.00926  1.0000
  H   H3019     1.0  0.77314  0.24862  0.29874  1.0000
  H   H3020     1.0  0.74354  0.41659  0.02834  1.0000
  H   H3021     1.0  0.81758  0.48056  0.01394  1.0000
  H   H3022     1.0  0.75539  0.24828  0.16658  1.0000
  C   C1907     1.0  0.75898  0.33997  0.47406  1.0000
  H   H3023     1.0  0.78027  0.28006  0.31255  1.0000
  N   N191      1.0  0.85500  0.34723  0.02210  1.0000
  C   C1908     1.0  0.75408  0.39701  0.98565  1.0000
  C   C1909     1.0  0.87437  0.40984  0.43394  1.0000
  H   H3024     1.0  0.88723  0.41324  0.42660  1.0000
  H   H3025     1.0  0.84756  0.41064  0.46748  1.0000
  H   H3026     1.0  0.78540  0.29019  0.25952  1.0000
  C   C1910     1.0  0.73804  0.31730  0.47686  1.0000
  H   H3027     1.0  0.85519  0.48610  0.16227  1.0000
  C   C1911     1.0  0.74286  0.31916  0.44752  1.0000
  H   H3028     1.0  0.75746  0.26877  0.15386  1.0000
  S   S770      1.0  0.78742  0.48794  0.02608  1.0000
  N   N192      1.0  0.85752  0.40678  0.28212  1.0000
  C   C1912     1.0  0.85420  0.42009  0.29287  1.0000
  C   C1913     1.0  0.86044  0.41086  0.25083  1.0000
  C   C1914     1.0  0.84410  0.39302  0.29465  1.0000
  C   C1915     1.0  0.87134  0.40309  0.29016  1.0000
  H   H3029     1.0  0.85136  0.41718  0.31649  1.0000
  H   H3030     1.0  0.84419  0.42359  0.28631  1.0000
  H   H3031     1.0  0.86433  0.43051  0.28483  1.0000
  H   H3032     1.0  0.86268  0.40095  0.24209  1.0000
  H   H3033     1.0  0.85042  0.41405  0.24380  1.0000
  H   H3034     1.0  0.87078  0.42089  0.24064  1.0000
  H   H3035     1.0  0.84629  0.38275  0.28710  1.0000
  H   H3036     1.0  0.83347  0.39535  0.28886  1.0000
  H   H3037     1.0  0.84154  0.38965  0.31829  1.0000
  H   H3038     1.0  0.87468  0.39363  0.28116  1.0000
  H   H3039     1.0  0.86935  0.39923  0.31359  1.0000
  H   H3040     1.0  0.88156  0.41341  0.28211  1.0000
  C   C1916     1.0  0.93425  0.48550  0.35505  1.0000
  H   H3041     1.0  0.78848  0.29437  0.17358  1.0000
  N   N193      1.0  0.91809  0.38316  0.12970  1.0000
  C   C1917     1.0  0.91589  0.38314  0.10107  1.0000
  C   C1918     1.0  0.91699  0.39828  0.13555  1.0000
  C   C1919     1.0  0.93348  0.38069  0.13114  1.0000
  C   C1920     1.0  0.90589  0.37050  0.15112  1.0000
  H   H3042     1.0  0.90416  0.38440  0.09957  1.0000
  H   H3043     1.0  0.91707  0.37207  0.09567  1.0000
  H   H3044     1.0  0.92463  0.39282  0.08439  1.0000
  H   H3045     1.0  0.91800  0.39852  0.15742  1.0000
  H   H3046     1.0  0.92626  0.40814  0.12033  1.0000
  H   H3047     1.0  0.90564  0.40063  0.13383  1.0000
  H   H3048     1.0  0.93552  0.38065  0.15246  1.0000
  H   H3049     1.0  0.94298  0.38997  0.11510  1.0000
  H   H3050     1.0  0.93465  0.36933  0.12693  1.0000
  H   H3051     1.0  0.90707  0.37021  0.17304  1.0000
  H   H3052     1.0  0.90632  0.35889  0.14750  1.0000
  H   H3053     1.0  0.89416  0.37202  0.15041  1.0000
  C   C1921     1.0  0.75566  0.25753  0.14772  1.0000
  C   C1922     1.0  0.74935  0.36906  0.98956  1.0000
  S   S771      1.0  0.77428  0.26225  0.20163  1.0000
  N   N194      1.0  0.76720  0.27032  0.28605  1.0000
  H   H3054     1.0  0.78931  0.26482  0.27878  1.0000
  H   H3055     1.0  0.76531  0.39500  0.41652  1.0000
  H   H3056     1.0  0.86926  0.38037  0.46503  1.0000
  C   C1923     1.0  0.77685  0.25943  0.28105  1.0000
  C   C1924     1.0  0.76780  0.27034  0.09817  1.0000
  H   H3057     1.0  0.86416  0.37211  0.01224  1.0000
  H   H3058     1.0  0.92492  0.45827  0.34212  1.0000
  H   H3059     1.0  0.75009  0.38218  0.40806  1.0000
  N   N195      1.0  0.85026  0.48455  0.12227  1.0000
  C   C1925     1.0  0.97014  0.27116  0.11777  1.0000
  H   H3060     1.0  0.76229  0.35706  0.01416  1.0000
  H   H3061     1.0  0.76448  0.30397  0.48014  1.0000
  H   H3062     1.0  0.87798  0.34422  0.01072  1.0000
  H   H3063     1.0  0.77364  0.35133  0.43206  1.0000
  H   H3064     1.0  0.75935  0.33343  0.40879  1.0000
  H   H3065     1.0  0.97040  0.24656  0.03545  1.0000
  H   H3066     1.0  0.90653  0.47479  0.34449  1.0000
  C   C1926     1.0  0.74513  0.44736  0.45154  1.0000
  C   C1927     1.0  0.81039  0.30000  0.18407  1.0000
  H   H3067     1.0  0.76086  0.28241  0.31774  1.0000
  C   C1928     1.0  0.81661  0.27868  0.21384  1.0000
  S   S772      1.0  0.77340  0.41247  0.01296  1.0000
  C   C1929     1.0  0.79253  0.27414  0.19947  1.0000
  H   H3068     1.0  0.76563  0.45092  0.41797  1.0000
  Fe  Fe385     1.0  0.78798  0.37543  0.47734  1.0000
  C   C1930     1.0  0.76370  0.34197  0.44468  1.0000
  H   H3069     1.0  0.75653  0.26792  0.09241  1.0000
  N   N196      1.0  0.76804  0.25818  0.12289  1.0000
  C   C1931     1.0  0.75553  0.38428  0.42549  1.0000
  H   H3070     1.0  0.76400  0.26380  0.33139  1.0000
  H   H3071     1.0  0.97405  0.29493  0.09328  1.0000
  H   H3072     1.0  0.92598  0.47640  0.37341  1.0000
  C   C1932     1.0  0.75093  0.26283  0.28763  1.0000
  H   H3073     1.0  0.78545  0.27337  0.13516  1.0000
  H   H3074     1.0  0.84367  0.45950  0.13573  1.0000
  C   C1933     1.0  0.85185  0.40016  0.47375  1.0000
  C   C1934     1.0  0.85389  0.46933  0.12349  1.0000
  H   H3075     1.0  0.76218  0.39825  0.46480  1.0000
  C   C1935     1.0  0.76739  0.38160  0.01289  1.0000
  H   H3076     1.0  0.94620  0.48483  0.35605  1.0000
  H   H3077     1.0  0.74793  0.41054  0.43218  1.0000
  Fe  Fe386     1.0  0.97397  0.34582  0.07088  1.0000
  H   H3078     1.0  0.84059  0.33527  0.06376  1.0000
  Fe  Fe387     1.0  0.75040  0.45841  0.98302  1.0000
  H   H3079     1.0  0.76973  0.28209  0.10240  1.0000
  H   H3080     1.0  0.85754  0.46768  0.10180  1.0000
  C   C1936     1.0  0.76544  0.24284  0.11628  1.0000
  H   H3081     1.0  0.84663  0.39133  0.46351  1.0000
  H   H3082     1.0  0.74987  0.25941  0.26771  1.0000
  C   C1937     1.0  0.75999  0.36816  0.00610  1.0000
  H   H3083     1.0  0.95766  0.26897  0.12289  1.0000
  H   H3084     1.0  0.83212  0.35037  0.02435  1.0000
  H   H3085     1.0  0.76315  0.27907  0.46707  1.0000
  C   C1938     1.0  0.84998  0.33376  0.04733  1.0000
  H   H3086     1.0  0.86352  0.46836  0.13388  1.0000
  H   H3087     1.0  0.87187  0.42698  0.47166  1.0000
  H   H3088     1.0  0.76058  0.37433  0.43202  1.0000
  H   H3089     1.0  0.77537  0.38075  0.02624  1.0000
  H   H3090     1.0  0.87015  0.42020  0.42604  1.0000
  S   S773      1.0  0.74312  0.30850  0.01466  1.0000
  H   H3091     1.0  0.91276  0.48290  0.30694  1.0000
  S   S774      1.0  0.91592  0.48422  0.17365  1.0000
  C   C1939     1.0  0.86795  0.34511  0.00134  1.0000
  H   H3092     1.0  0.76630  0.29340  0.26582  1.0000
  S   S775      1.0  0.81268  0.37798  0.48038  1.0000
  C   C1940     1.0  0.73832  0.39965  0.44056  1.0000
  C   C1941     1.0  0.91532  0.48423  0.32738  1.0000
  S   S776      1.0  0.73955  0.35246  0.98103  1.0000
  C   C1942     1.0  0.73666  0.43887  0.47902  1.0000
  H   H3093     1.0  0.74066  0.45593  0.43938  1.0000
  C   C1943     1.0  0.81857  0.49010  0.02394  1.0000
  Fe  Fe388     1.0  0.77129  0.43687  0.99505  1.0000
  C   C1944     1.0  0.88933  0.49181  0.19751  1.0000
  H   H3094     1.0  0.74404  0.25492  0.14336  1.0000
  H   H3095     1.0  0.74332  0.27076  0.29112  1.0000
  H   H3096     1.0  0.73628  0.39620  0.04537  1.0000
  Fe  Fe389     1.0  0.74961  0.33152  0.98160  1.0000
  H   H3097     1.0  0.77457  0.24283  0.09769  1.0000
  C   C1945     1.0  0.98452  0.47900  0.27979  1.0000
  H   H3098     1.0  0.73541  0.36114  0.46751  1.0000
  H   H3099     1.0  0.98357  0.25013  0.07324  1.0000
  H   H3100     1.0  0.87212  0.35509  0.98203  1.0000
  H   H3101     1.0  0.98390  0.32066  0.98186  1.0000
  H   H3102     1.0  0.73520  0.41029  0.06585  1.0000
  H   H3103     1.0  0.75589  0.37772  0.48098  1.0000
  S   S777      1.0  0.82098  0.40004  0.53729  1.0000
  Fe  Fe390     1.0  0.88984  0.45015  0.58848  1.0000
  S   S778      1.0  0.87394  0.44502  0.63196  1.0000
  S   S779      1.0  0.88015  0.44780  0.54981  1.0000
  Fe  Fe391     1.0  0.91869  0.46506  0.60840  1.0000
  S   S780      1.0  0.90425  0.46112  0.65269  1.0000
  H   H3104     1.0  0.82864  0.48062  0.57090  1.0000
  Fe  Fe392     1.0  0.89316  0.43746  0.64825  1.0000
  S   S781      1.0  0.89000  0.41758  0.68666  1.0000
  Fe  Fe393     1.0  0.88643  0.46901  0.63231  1.0000
  S   S782      1.0  0.90850  0.44079  0.60473  1.0000
  C   C1946     1.0  0.74006  0.27983  0.50960  1.0000
  H   H3105     1.0  0.74805  0.29377  0.91301  1.0000
  S   S783      1.0  0.79756  0.46966  0.89848  1.0000
  H   H3106     1.0  0.73613  0.42120  0.51589  1.0000
  Fe  Fe394     1.0  0.81074  0.39828  0.49914  1.0000
  H   H3107     1.0  0.77847  0.26198  0.74361  1.0000
  S   S784      1.0  0.79312  0.45641  0.97827  1.0000
  Fe  Fe395     1.0  0.96289  0.32035  0.81364  1.0000
  S   S785      1.0  0.93730  0.31938  0.82497  1.0000
  S   S786      1.0  0.96920  0.29828  0.83073  1.0000
  Fe  Fe396     1.0  0.83974  0.30339  0.78914  1.0000
  S   S787      1.0  0.85255  0.28856  0.76743  1.0000
  S   S788      1.0  0.82782  0.29354  0.83589  1.0000
  Fe  Fe397     1.0  0.84761  0.32956  0.73551  1.0000
  S   S789      1.0  0.86124  0.31690  0.71023  1.0000
  S   S790      1.0  0.84304  0.35126  0.71035  1.0000
  Fe  Fe398     1.0  0.84156  0.29568  0.73194  1.0000
  S   S791      1.0  0.83489  0.28112  0.70203  1.0000
  Fe  Fe399     1.0  0.87109  0.31093  0.74765  1.0000
  S   S792      1.0  0.89659  0.31134  0.73724  1.0000
  S   S793      1.0  0.82716  0.30861  0.75530  1.0000
  S   S794      1.0  0.85907  0.32548  0.77152  1.0000
  H   H3108     1.0  0.77731  0.29950  0.50186  1.0000
  S   S795      1.0  0.74683  0.32007  0.94628  1.0000
  C   C1947     1.0  0.74785  0.27507  0.87699  1.0000
  H   H3109     1.0  0.91630  0.24298  0.66648  1.0000
  C   C1948     1.0  0.97322  0.48961  0.60304  1.0000
  H   H3110     1.0  0.93655  0.26048  0.83471  1.0000
  Fe  Fe400     1.0  0.78219  0.46388  0.94290  1.0000
  Fe  Fe401     1.0  0.77210  0.32128  0.94045  1.0000
  S   S796      1.0  0.78601  0.33146  0.89492  1.0000
  C   C1949     1.0  0.76489  0.29796  0.50182  1.0000
  H   H3111     1.0  0.93825  0.48971  0.64271  1.0000
  C   C1950     1.0  0.81691  0.30467  0.85219  1.0000
  C   C1951     1.0  0.81107  0.30027  0.88182  1.0000
  C   C1952     1.0  0.80167  0.30849  0.89525  1.0000
  C   C1953     1.0  0.79815  0.32119  0.87902  1.0000
  C   C1954     1.0  0.80420  0.32575  0.84945  1.0000
  C   C1955     1.0  0.81356  0.31750  0.83603  1.0000
  H   H3112     1.0  0.81377  0.29042  0.89439  1.0000
  H   H3113     1.0  0.79723  0.30503  0.91810  1.0000
  H   H3114     1.0  0.80157  0.33562  0.83680  1.0000
  H   H3115     1.0  0.81809  0.32100  0.81318  1.0000
  C   C1956     1.0  0.92640  0.31882  0.79952  1.0000
  C   C1957     1.0  0.93325  0.31926  0.77147  1.0000
  C   C1958     1.0  0.92399  0.31726  0.75242  1.0000
  C   C1959     1.0  0.90788  0.31502  0.76115  1.0000
  C   C1960     1.0  0.90108  0.31499  0.78899  1.0000
  C   C1961     1.0  0.91032  0.31687  0.80812  1.0000
  H   H3116     1.0  0.94565  0.32098  0.76452  1.0000
  H   H3117     1.0  0.92931  0.31741  0.73083  1.0000
  H   H3118     1.0  0.88867  0.31329  0.79587  1.0000
  H   H3119     1.0  0.90494  0.31656  0.82976  1.0000
  H   H3120     1.0  0.82211  0.48478  0.84837  1.0000
  H   H3121     1.0  0.82827  0.46697  0.62014  1.0000
  H   H3122     1.0  0.95593  0.27513  0.71794  1.0000
  C   C1962     1.0  0.96353  0.27075  0.72983  1.0000
  H   H3123     1.0  0.78490  0.38959  0.86882  1.0000
  H   H3124     1.0  0.94060  0.25508  0.78694  1.0000
  H   H3125     1.0  0.75123  0.28402  0.85627  1.0000
  S   S797      1.0  0.94507  0.47575  0.59478  1.0000
  S   S798      1.0  0.78525  0.39422  0.50024  1.0000
  H   H3126     1.0  0.77710  0.39824  0.89600  1.0000
  H   H3127     1.0  0.73894  0.28530  0.48816  1.0000
  H   H3128     1.0  0.75069  0.26131  0.54559  1.0000
  H   H3129     1.0  0.75979  0.30422  0.51680  1.0000
  H   H3130     1.0  0.74228  0.26530  0.93339  1.0000
  C   C1963     1.0  0.75946  0.29356  0.90008  1.0000
  C   C1964     1.0  0.87736  0.39908  0.69177  1.0000
  C   C1965     1.0  0.87839  0.38633  0.71215  1.0000
  C   C1966     1.0  0.86816  0.37154  0.71758  1.0000
  C   C1967     1.0  0.85659  0.36947  0.70305  1.0000
  C   C1968     1.0  0.85552  0.38223  0.68269  1.0000
  C   C1969     1.0  0.86596  0.39697  0.67686  1.0000
  H   H3131     1.0  0.88720  0.38787  0.72374  1.0000
  H   H3132     1.0  0.86908  0.36179  0.73330  1.0000
  H   H3133     1.0  0.84657  0.38073  0.67144  1.0000
  H   H3134     1.0  0.86504  0.40672  0.66118  1.0000
  S   S799      1.0  0.76872  0.35239  0.49211  1.0000
  C   C1970     1.0  0.83729  0.41366  0.54044  1.0000
  C   C1971     1.0  0.84209  0.41101  0.56582  1.0000
  C   C1972     1.0  0.85511  0.42129  0.56915  1.0000
  C   C1973     1.0  0.86358  0.43439  0.54702  1.0000
  H   H3135     1.0  0.83572  0.40086  0.58304  1.0000
  H   H3136     1.0  0.85866  0.41899  0.58876  1.0000
  H   H3137     1.0  0.75412  0.25423  0.91782  1.0000
  S   S800      1.0  0.95223  0.24278  0.71882  1.0000
  N   N197      1.0  0.84759  0.47287  0.58340  1.0000
  S   S801      1.0  0.76796  0.29766  0.96996  1.0000
  S   S802      1.0  0.87074  0.48418  0.64434  1.0000
  C   C1974     1.0  0.98361  0.25976  0.75962  1.0000
  C   C1975     1.0  0.94278  0.28461  0.78911  1.0000
  H   H3138     1.0  0.76145  0.41671  0.49496  1.0000
  H   H3139     1.0  0.84780  0.44876  0.58953  1.0000
  C   C1976     1.0  0.73751  0.45390  0.55669  1.0000
  C   C1977     1.0  0.81575  0.27132  0.70374  1.0000
  C   C1978     1.0  0.80315  0.27089  0.72547  1.0000
  H   H3140     1.0  0.75747  0.26105  0.49410  1.0000
  H   H3141     1.0  0.93162  0.26404  0.76136  1.0000
  H   H3142     1.0  0.84195  0.42929  0.49901  1.0000
  C   C1979     1.0  0.81320  0.26350  0.68285  1.0000
  H   H3143     1.0  0.80498  0.27689  0.74165  1.0000
  H   H3144     1.0  0.91992  0.24926  0.79250  1.0000
  H   H3145     1.0  0.97260  0.29291  0.73803  1.0000
  H   H3146     1.0  0.82289  0.26388  0.66585  1.0000
  S   S803      1.0  0.90153  0.47476  0.58800  1.0000
  H   H3147     1.0  0.91649  0.28296  0.77243  1.0000
  C   C1980     1.0  0.75418  0.26596  0.92131  1.0000
  H   H3148     1.0  0.77923  0.28809  0.85883  1.0000
  H   H3149     1.0  0.87016  0.38508  0.49810  1.0000
  S   S804      1.0  0.77073  0.47950  0.96430  1.0000
  C   C1981     1.0  0.73718  0.47642  0.52148  1.0000
  H   H3150     1.0  0.94464  0.29022  0.76614  1.0000
  H   H3151     1.0  0.87120  0.41209  0.50222  1.0000
  C   C1982     1.0  0.96422  0.25517  0.73316  1.0000
  H   H3152     1.0  0.77594  0.27428  0.48877  1.0000
  H   H3153     1.0  0.74392  0.39009  0.49088  1.0000
  H   H3154     1.0  0.74698  0.26344  0.87256  1.0000
  H   H3155     1.0  0.95822  0.31474  0.88780  1.0000
  H   H3156     1.0  0.78305  0.27944  0.89159  1.0000
  H   H3157     1.0  0.75192  0.40812  0.97740  1.0000
  N   N198      1.0  0.92863  0.27158  0.79987  1.0000
  C   C1983     1.0  0.93024  0.25945  0.78454  1.0000
  C   C1984     1.0  0.80405  0.48921  0.87849  1.0000
  C   C1985     1.0  0.92649  0.26494  0.83058  1.0000
  H   H3158     1.0  0.76197  0.26831  0.93537  1.0000
  H   H3159     1.0  0.76818  0.29653  0.91208  1.0000
  C   C1986     1.0  0.76359  0.27360  0.48902  1.0000
  S   S805      1.0  0.97777  0.33462  0.83473  1.0000
  C   C1987     1.0  0.84112  0.47125  0.61392  1.0000
  H   H3160     1.0  0.77457  0.26720  0.87189  1.0000
  C   C1988     1.0  0.79822  0.25508  0.68389  1.0000
  H   H3161     1.0  0.84422  0.48260  0.61940  1.0000
  H   H3162     1.0  0.84792  0.45841  0.55424  1.0000
  H   H3163     1.0  0.91334  0.28632  0.80708  1.0000
  H   H3164     1.0  0.79640  0.24907  0.66774  1.0000
  H   H3165     1.0  0.95326  0.28063  0.79193  1.0000
  C   C1989     1.0  0.74260  0.42777  0.49455  1.0000
  N   N199      1.0  0.83342  0.32614  0.65184  1.0000
  C   C1990     1.0  0.84551  0.34074  0.64699  1.0000
  C   C1991     1.0  0.82276  0.32886  0.63370  1.0000
  C   C1992     1.0  0.82461  0.32105  0.68197  1.0000
  C   C1993     1.0  0.84081  0.31388  0.64485  1.0000
  H   H3166     1.0  0.85245  0.34499  0.62452  1.0000
  H   H3167     1.0  0.85369  0.33911  0.66058  1.0000
  H   H3168     1.0  0.84037  0.35021  0.65245  1.0000
  H   H3169     1.0  0.82901  0.33274  0.61078  1.0000
  H   H3170     1.0  0.81349  0.31804  0.63697  1.0000
  H   H3171     1.0  0.81699  0.33803  0.63860  1.0000
  H   H3172     1.0  0.81551  0.30993  0.68668  1.0000
  H   H3173     1.0  0.81901  0.33006  0.68829  1.0000
  H   H3174     1.0  0.83238  0.31900  0.69602  1.0000
  H   H3175     1.0  0.83205  0.30259  0.64887  1.0000
  H   H3176     1.0  0.84895  0.31160  0.65823  1.0000
  H   H3177     1.0  0.84751  0.31720  0.62225  1.0000
  N   N200      1.0  0.87305  0.44610  0.73422  1.0000
  C   C1994     1.0  0.89017  0.45081  0.72731  1.0000
  C   C1995     1.0  0.86742  0.42969  0.75129  1.0000
  C   C1996     1.0  0.86791  0.44758  0.70769  1.0000
  C   C1997     1.0  0.86673  0.45630  0.75051  1.0000
  H   H3178     1.0  0.89486  0.46313  0.71440  1.0000
  H   H3179     1.0  0.89532  0.44335  0.71496  1.0000
  H   H3180     1.0  0.89446  0.44979  0.74683  1.0000
  H   H3181     1.0  0.85457  0.42564  0.75668  1.0000
  H   H3182     1.0  0.87209  0.42176  0.73947  1.0000
  H   H3183     1.0  0.87109  0.42809  0.77148  1.0000
  H   H3184     1.0  0.85506  0.44432  0.71204  1.0000
  H   H3185     1.0  0.87230  0.43986  0.69512  1.0000
  H   H3186     1.0  0.87217  0.45973  0.69396  1.0000
  H   H3187     1.0  0.85384  0.45305  0.75623  1.0000
  H   H3188     1.0  0.87066  0.46874  0.73800  1.0000
  H   H3189     1.0  0.87053  0.45567  0.77052  1.0000
  N   N201      1.0  0.94228  0.32429  0.91253  1.0000
  C   C1998     1.0  0.92962  0.31887  0.93890  1.0000
  C   C1999     1.0  0.95465  0.33673  0.91549  1.0000
  C   C2000     1.0  0.93625  0.33047  0.88828  1.0000
  C   C2001     1.0  0.94862  0.31108  0.90746  1.0000
  H   H3190     1.0  0.92007  0.30948  0.93737  1.0000
  H   H3191     1.0  0.92462  0.32856  0.94347  1.0000
  H   H3192     1.0  0.93386  0.31415  0.95755  1.0000
  H   H3193     1.0  0.95958  0.33244  0.93342  1.0000
  H   H3194     1.0  0.96435  0.34115  0.89586  1.0000
  H   H3195     1.0  0.95032  0.34687  0.91955  1.0000
  H   H3196     1.0  0.94559  0.33481  0.86809  1.0000
  H   H3197     1.0  0.93125  0.34037  0.89137  1.0000
  H   H3198     1.0  0.92711  0.32134  0.88492  1.0000
  C   C2002     1.0  0.77462  0.27822  0.87837  1.0000
  H   H3199     1.0  0.93967  0.30149  0.90491  1.0000
  H   H3200     1.0  0.95347  0.30621  0.92515  1.0000
  N   N202      1.0  0.78392  0.37740  0.91133  1.0000
  C   C2003     1.0  0.79580  0.36939  0.90187  1.0000
  C   C2004     1.0  0.78555  0.38113  0.93830  1.0000
  C   C2005     1.0  0.76833  0.36711  0.91567  1.0000
  C   C2006     1.0  0.78598  0.39198  0.88949  1.0000
  C   C2007     1.0  0.84317  0.45760  0.57709  1.0000
  H   H3201     1.0  0.80773  0.37684  0.89798  1.0000
  S   S806      1.0  0.77524  0.33423  0.97360  1.0000
  H   H3202     1.0  0.74992  0.48124  0.51699  1.0000
  H   H3203     1.0  0.79731  0.38850  0.93611  1.0000
  H   H3204     1.0  0.77709  0.38763  0.94560  1.0000
  H   H3205     1.0  0.75901  0.37267  0.92312  1.0000
  H   H3206     1.0  0.76635  0.35600  0.93199  1.0000
  H   H3207     1.0  0.76671  0.36394  0.89584  1.0000
  H   H3208     1.0  0.79757  0.40009  0.88583  1.0000
  C   C2008     1.0  0.85869  0.43714  0.52174  1.0000
  C   C2009     1.0  0.78815  0.26245  0.72652  1.0000
  H   H3209     1.0  0.87004  0.47961  0.55362  1.0000
  C   C2010     1.0  0.84562  0.42690  0.51847  1.0000
  Fe  Fe402     1.0  0.74264  0.29725  0.97819  1.0000
  H   H3210     1.0  0.76955  0.27400  0.53930  1.0000
  N   N203      1.0  0.75903  0.27820  0.89417  1.0000
  C   C2011     1.0  0.97427  0.24970  0.74816  1.0000
  H   H3211     1.0  0.86504  0.44733  0.50459  1.0000
  H   H3212     1.0  0.84578  0.46293  0.62748  1.0000
  S   S807      1.0  0.76109  0.44344  0.95824  1.0000
  H   H3213     1.0  0.86853  0.48965  0.58148  1.0000
  H   H3214     1.0  0.79465  0.35842  0.91805  1.0000
  C   C2012     1.0  0.95695  0.48637  0.61253  1.0000
  H   H3215     1.0  0.75256  0.27957  0.55456  1.0000
  C   C2013     1.0  0.78566  0.25437  0.70594  1.0000
  H   H3216     1.0  0.75029  0.45800  0.55294  1.0000
  H   H3217     1.0  0.84721  0.39542  0.49719  1.0000
  H   H3218     1.0  0.78348  0.37036  0.95558  1.0000
  H   H3219     1.0  0.89345  0.48628  0.67786  1.0000
  H   H3220     1.0  0.76267  0.30311  0.88017  1.0000
  H   H3221     1.0  0.90420  0.26784  0.80261  1.0000
  H   H3222     1.0  0.79472  0.36607  0.88189  1.0000
  H   H3223     1.0  0.94209  0.29379  0.80066  1.0000
  C   C2014     1.0  0.97286  0.28080  0.74137  1.0000
  C   C2015     1.0  0.91507  0.27738  0.79531  1.0000
  H   H3224     1.0  0.92538  0.27391  0.84261  1.0000
  H   H3225     1.0  0.73601  0.27513  0.88822  1.0000
  H   H3226     1.0  0.97819  0.48524  0.58565  1.0000
  N   N204      1.0  0.75649  0.28128  0.50976  1.0000
  H   H3227     1.0  0.74211  0.32606  0.51264  1.0000
  H   H3228     1.0  0.91587  0.25511  0.83959  1.0000
  C   C2016     1.0  0.74604  0.32762  0.48997  1.0000
  S   S808      1.0  0.98113  0.32706  0.77213  1.0000
  H   H3229     1.0  0.74617  0.48204  0.56720  1.0000
  H   H3230     1.0  0.83037  0.45298  0.58220  1.0000
  C   C2017     1.0  0.75688  0.42511  0.48266  1.0000
  H   H3231     1.0  0.86952  0.46981  0.58891  1.0000
  C   C2018     1.0  0.86465  0.47830  0.57644  1.0000
  C   C2019     1.0  0.75739  0.27376  0.53853  1.0000
  C   C2020     1.0  0.84151  0.48433  0.56617  1.0000
  H   H3232     1.0  0.73823  0.38429  0.96646  1.0000
  S   S809      1.0  0.76690  0.24288  0.70927  1.0000
  C   C2021     1.0  0.74639  0.38352  0.97943  1.0000
  C   C2022     1.0  0.98286  0.27529  0.75648  1.0000
  H   H3233     1.0  0.98261  0.30084  0.95396  1.0000
  H   H3234     1.0  0.84622  0.48583  0.54303  1.0000
  H   H3235     1.0  0.81088  0.49160  0.93379  1.0000
  H   H3236     1.0  0.73528  0.44621  0.54233  1.0000
  H   H3237     1.0  0.73513  0.46921  0.50638  1.0000
  Fe  Fe403     1.0  0.76964  0.61855  0.25457  1.0000
  S   S810      1.0  0.77427  0.59832  0.28298  1.0000
  S   S811      1.0  0.77629  0.64402  0.25623  1.0000
  H   H3238     1.0  0.91602  0.70263  0.19035  1.0000
  Fe  Fe404     1.0  0.75019  0.59678  0.22670  1.0000
  N   N205      1.0  0.80259  0.66237  0.39022  1.0000
  H   H3239     1.0  0.81045  0.72634  0.27499  1.0000
  Fe  Fe405     1.0  0.77835  0.58914  0.24409  1.0000
  S   S812      1.0  0.79811  0.57766  0.23773  1.0000
  C   C2023     1.0  0.81825  0.67138  0.38930  1.0000
  S   S813      1.0  0.77536  0.61023  0.21489  1.0000
  Fe  Fe406     1.0  0.85541  0.53546  0.07331  1.0000
  S   S814      1.0  0.84020  0.53015  0.11735  1.0000
  S   S815      1.0  0.85252  0.51795  0.04658  1.0000
  Fe  Fe407     1.0  0.87632  0.56526  0.08024  1.0000
  S   S816      1.0  0.86271  0.56170  0.12512  1.0000
  S   S817      1.0  0.89607  0.58667  0.05576  1.0000
  Fe  Fe408     1.0  0.86248  0.53639  0.13010  1.0000
  S   S818      1.0  0.86341  0.52040  0.17078  1.0000
  Fe  Fe409     1.0  0.84182  0.55578  0.10832  1.0000
  S   S819      1.0  0.82148  0.56628  0.11669  1.0000
  S   S820      1.0  0.87783  0.54037  0.08649  1.0000
  S   S821      1.0  0.85533  0.56077  0.06286  1.0000
  C   C2024     1.0  0.98083  0.71745  0.13728  1.0000
  S   S822      1.0  0.94480  0.67660  0.07943  1.0000
  C   C2025     1.0  0.79554  0.54470  0.30394  1.0000
  H   H3240     1.0  0.79460  0.68287  0.37773  1.0000
  S   S823      1.0  0.96044  0.66349  0.13098  1.0000
  H   H3241     1.0  0.94320  0.69605  0.21470  1.0000
  Fe  Fe410     1.0  0.94650  0.65335  0.10332  1.0000
  S   S824      1.0  0.92600  0.63205  0.12333  1.0000
  Fe  Fe411     1.0  0.96020  0.68690  0.10477  1.0000
  S   S825      1.0  0.95374  0.70672  0.12217  1.0000
  S   S826      1.0  0.96747  0.65320  0.07116  1.0000
  S   S827      1.0  0.85543  0.73826  0.33033  1.0000
  H   H3242     1.0  0.78882  0.72311  0.25161  1.0000
  Fe  Fe412     1.0  0.83727  0.69903  0.31479  1.0000
  S   S828      1.0  0.82302  0.71144  0.34001  1.0000
  S   S829      1.0  0.82924  0.67434  0.31012  1.0000
  Fe  Fe413     1.0  0.86749  0.72395  0.30597  1.0000
  Fe  Fe414     1.0  0.84213  0.71563  0.36237  1.0000
  S   S830      1.0  0.83334  0.71108  0.41085  1.0000
  C   C2026     1.0  0.80554  0.49552  0.03247  1.0000
  H   H3243     1.0  0.94119  0.50754  0.30528  1.0000
  S   S831      1.0  0.85530  0.70153  0.33971  1.0000
  S   S832      1.0  0.85031  0.72052  0.27956  1.0000
  H   H3244     1.0  0.81886  0.64356  0.30382  1.0000
  H   H3245     1.0  0.80280  0.67565  0.34890  1.0000
  H   H3246     1.0  0.94397  0.72544  0.23674  1.0000
  S   S833      1.0  0.74423  0.60686  0.26378  1.0000
  C   C2027     1.0  0.85595  0.72443  0.48098  1.0000
  C   C2028     1.0  0.80369  0.64813  0.38078  1.0000
  H   H3247     1.0  0.80888  0.64055  0.39458  1.0000
  C   C2029     1.0  0.85835  0.72352  0.43123  1.0000
  C   C2030     1.0  0.84254  0.71618  0.43737  1.0000
  H   H3248     1.0  0.82603  0.67474  0.36749  1.0000
  H   H3249     1.0  0.89094  0.52164  0.12784  1.0000
  H   H3250     1.0  0.77677  0.53362  0.35662  1.0000
  H   H3251     1.0  0.76961  0.72660  0.18443  1.0000
  H   H3252     1.0  0.86554  0.72601  0.40984  1.0000
  H   H3253     1.0  0.79689  0.51191  0.05285  1.0000
  C   C2031     1.0  0.96687  0.72017  0.13282  1.0000
  C   C2032     1.0  0.93259  0.69716  0.22900  1.0000
  H   H3254     1.0  0.92438  0.59906  0.00713  1.0000
  Fe  Fe415     1.0  0.96694  0.67718  0.04918  1.0000
  H   H3255     1.0  0.95564  0.65342  0.02005  1.0000
  H   H3256     1.0  0.79831  0.63130  0.28336  1.0000
  C   C2033     1.0  0.83427  0.50935  0.04173  1.0000
  C   C2034     1.0  0.87783  0.49999  0.19650  1.0000
  H   H3257     1.0  0.78180  0.56801  0.29670  1.0000
  H   H3258     1.0  0.75155  0.70571  0.15461  1.0000
  C   C2035     1.0  0.77165  0.53936  0.28973  1.0000
  H   H3259     1.0  0.82204  0.52392  0.06114  1.0000
  C   C2036     1.0  0.90522  0.59881  0.07450  1.0000
  C   C2037     1.0  0.91509  0.61359  0.05960  1.0000
  C   C2038     1.0  0.92195  0.62374  0.07416  1.0000
  C   C2039     1.0  0.91888  0.61922  0.10381  1.0000
  C   C2040     1.0  0.90918  0.60439  0.11863  1.0000
  C   C2041     1.0  0.90243  0.59420  0.10408  1.0000
  H   H3260     1.0  0.91728  0.61737  0.03677  1.0000
  H   H3261     1.0  0.92936  0.63516  0.06253  1.0000
  H   H3262     1.0  0.90692  0.60074  0.14153  1.0000
  H   H3263     1.0  0.89510  0.58278  0.11578  1.0000
  Fe  Fe416     1.0  0.83717  0.73314  0.30649  1.0000
  H   H3264     1.0  0.84282  0.49777  0.15121  1.0000
  H   H3265     1.0  0.77674  0.54849  0.26923  1.0000
  C   C2042     1.0  0.87832  0.51075  0.17138  1.0000
  H   H3266     1.0  0.74994  0.72493  0.15642  1.0000
  H   H3267     1.0  0.77342  0.52814  0.28585  1.0000
  H   H3268     1.0  0.91114  0.50708  0.12943  1.0000
  C   C2043     1.0  0.77150  0.53110  0.33921  1.0000
  Fe  Fe417     1.0  0.98143  0.66532  0.09637  1.0000
  C   C2044     1.0  0.90180  0.50503  0.14815  1.0000
  H   H3269     1.0  0.79181  0.66846  0.42746  1.0000
  C   C2045     1.0  0.80422  0.57418  0.20424  1.0000
  C   C2046     1.0  0.79760  0.57904  0.18207  1.0000
  C   C2047     1.0  0.80283  0.57631  0.15544  1.0000
  C   C2048     1.0  0.81462  0.56865  0.15086  1.0000
  C   C2049     1.0  0.82116  0.56365  0.17312  1.0000
  C   C2050     1.0  0.81600  0.56646  0.19972  1.0000
  H   H3270     1.0  0.78852  0.58500  0.18536  1.0000
  H   H3271     1.0  0.79776  0.58024  0.13826  1.0000
  H   H3272     1.0  0.83024  0.55769  0.16980  1.0000
  H   H3273     1.0  0.82115  0.56265  0.21682  1.0000
  C   C2051     1.0  0.79097  0.65225  0.27152  1.0000
  C   C2052     1.0  0.79355  0.66808  0.27169  1.0000
  C   C2053     1.0  0.80520  0.67508  0.28335  1.0000
  C   C2054     1.0  0.81445  0.66630  0.29491  1.0000
  C   C2055     1.0  0.81177  0.65046  0.29499  1.0000
  C   C2056     1.0  0.80012  0.64346  0.28339  1.0000
  H   H3274     1.0  0.78655  0.67498  0.26256  1.0000
  H   H3275     1.0  0.80711  0.68728  0.28312  1.0000
  C   C2057     1.0  0.77627  0.55847  0.31645  1.0000
  H   H3276     1.0  0.80135  0.54792  0.32030  1.0000
  H   H3277     1.0  0.91601  0.71226  0.25907  1.0000
  Fe  Fe418     1.0  0.74938  0.58599  0.28913  1.0000
  N   N206      1.0  0.77873  0.54339  0.31236  1.0000
  H   H3278     1.0  0.80129  0.55383  0.28361  1.0000
  H   H3279     1.0  0.76674  0.71205  0.21668  1.0000
  H   H3280     1.0  0.76374  0.55809  0.32230  1.0000
  H   H3281     1.0  0.73632  0.54919  0.30546  1.0000
  H   H3282     1.0  0.75898  0.53821  0.29532  1.0000
  H   H3283     1.0  0.92302  0.68685  0.23095  1.0000
  C   C2058     1.0  0.76459  0.71397  0.19510  1.0000
  H   H3284     1.0  0.90439  0.70322  0.23901  1.0000
  H   H3285     1.0  0.92674  0.73565  0.27375  1.0000
  C   C2059     1.0  0.79276  0.65796  0.41964  1.0000
  H   H3286     1.0  0.78131  0.56182  0.33356  1.0000
  H   H3287     1.0  0.81109  0.65103  0.35870  1.0000
  C   C2060     1.0  0.82117  0.51451  0.05079  1.0000
  H   H3288     1.0  0.96315  0.49558  0.23976  1.0000
  C   C2061     1.0  0.89035  0.51327  0.14720  1.0000
  C   C2062     1.0  0.96033  0.65638  0.99729  1.0000
  H   H3289     1.0  0.91151  0.72405  0.22983  1.0000
  C   C2063     1.0  0.86412  0.49717  0.10574  1.0000
  C   C2064     1.0  0.80692  0.50767  0.04607  1.0000
  H   H3290     1.0  0.77276  0.51946  0.33679  1.0000
  H   H3291     1.0  0.83459  0.49690  0.10681  1.0000
  H   H3292     1.0  0.79212  0.64113  0.38087  1.0000
  S   S834      1.0  0.75373  0.57503  0.25281  1.0000
  S   S835      1.0  0.89356  0.72751  0.28961  1.0000
  N   N207      1.0  0.74786  0.70924  0.19672  1.0000
  H   H3293     1.0  0.81792  0.68234  0.39587  1.0000
  C   C2065     1.0  0.79563  0.67202  0.37125  1.0000
  N   N208      1.0  0.86209  0.60912  0.12625  1.0000
  C   C2066     1.0  0.86988  0.60300  0.14780  1.0000
  C   C2067     1.0  0.84643  0.59873  0.13187  1.0000
  C   C2068     1.0  0.87121  0.60980  0.09764  1.0000
  C   C2069     1.0  0.86084  0.62493  0.12769  1.0000
  H   H3294     1.0  0.86307  0.60186  0.16972  1.0000
  H   H3295     1.0  0.88158  0.61081  0.14466  1.0000
  H   H3296     1.0  0.87146  0.59127  0.14674  1.0000
  H   H3297     1.0  0.84018  0.60278  0.11588  1.0000
  H   H3298     1.0  0.84698  0.58670  0.13106  1.0000
  H   H3299     1.0  0.83911  0.59789  0.15325  1.0000
  H   H3300     1.0  0.87218  0.59800  0.09570  1.0000
  H   H3301     1.0  0.88322  0.61731  0.09285  1.0000
  H   H3302     1.0  0.86577  0.61448  0.08079  1.0000
  H   H3303     1.0  0.85406  0.62481  0.14907  1.0000
  H   H3304     1.0  0.85495  0.62987  0.11180  1.0000
  H   H3305     1.0  0.87250  0.63307  0.12345  1.0000
  N   N209      1.0  0.92873  0.71190  0.21782  1.0000
  C   C2070     1.0  0.92221  0.60465  0.98666  1.0000
  C   C2071     1.0  0.94175  0.72523  0.21561  1.0000
  H   H3306     1.0  0.98409  0.70715  0.13322  1.0000
  H   H3307     1.0  0.78083  0.65122  0.42112  1.0000
  H   H3308     1.0  0.82126  0.70737  0.47055  1.0000
  C   C2072     1.0  0.90136  0.49433  0.17331  1.0000
  C   C2073     1.0  0.96278  0.73359  0.13829  1.0000
  H   H3309     1.0  0.95206  0.73585  0.13461  1.0000
  H   H3310     1.0  0.95020  0.63351  0.99369  1.0000
  H   H3311     1.0  0.86857  0.49802  0.21531  1.0000
  H   H3312     1.0  0.86181  0.50875  0.10508  1.0000
  C   C2074     1.0  0.80554  0.73603  0.26886  1.0000
  H   H3313     1.0  0.92366  0.72347  0.17974  1.0000
  C   C2075     1.0  0.74552  0.71231  0.16772  1.0000
  H   H3314     1.0  0.74127  0.71644  0.23506  1.0000
  C   C2076     1.0  0.98272  0.50821  0.25150  1.0000
  H   H3315     1.0  0.75888  0.53006  0.34654  1.0000
  H   H3316     1.0  0.93938  0.73658  0.20684  1.0000
  C   C2077     1.0  0.83351  0.71297  0.46547  1.0000
  C   C2078     1.0  0.73964  0.71827  0.21314  1.0000
  H   H3317     1.0  0.79786  0.53353  0.30069  1.0000
  C   C2079     1.0  0.86496  0.72762  0.45288  1.0000
  H   H3318     1.0  0.87722  0.73325  0.44783  1.0000
  C   C2080     1.0  0.92602  0.71228  0.18940  1.0000
  H   H3319     1.0  0.93306  0.49708  0.35795  1.0000
  H   H3320     1.0  0.82382  0.66454  0.40351  1.0000
  H   H3321     1.0  0.79764  0.65060  0.43451  1.0000
  H   H3322     1.0  0.93478  0.69649  0.25038  1.0000
  H   H3323     1.0  0.82384  0.73781  0.42458  1.0000
  H   H3324     1.0  0.74765  0.68524  0.19917  1.0000
  C   C2081     1.0  0.91457  0.71289  0.23721  1.0000
  H   H3325     1.0  0.78389  0.66554  0.37109  1.0000
  H   H3326     1.0  0.77118  0.70731  0.18309  1.0000
  C   C2082     1.0  0.83290  0.49708  0.02837  1.0000
  H   H3327     1.0  0.93626  0.71092  0.17457  1.0000
  S   S836      1.0  0.98223  0.68944  0.07228  1.0000
  H   H3328     1.0  0.98191  0.51954  0.24059  1.0000
  C   C2083     1.0  0.79328  0.73424  0.25556  1.0000
  C   C2084     1.0  0.97201  0.49464  0.25111  1.0000
  S   S837      1.0  0.97337  0.68573  0.00117  1.0000
  H   H3329     1.0  0.95269  0.72469  0.20151  1.0000
  H   H3330     1.0  0.84297  0.49292  0.02151  1.0000
  H   H3331     1.0  0.91075  0.57374  0.00152  1.0000
  H   H3332     1.0  0.74400  0.73098  0.20290  1.0000
  H   H3333     1.0  0.91087  0.60755  0.99195  1.0000
  H   H3334     1.0  0.91337  0.49560  0.33005  1.0000
  H   H3335     1.0  0.82548  0.73884  0.37420  1.0000
  H   H3336     1.0  0.74330  0.68972  0.23291  1.0000
  C   C2085     1.0  0.74169  0.69242  0.21098  1.0000
  H   H3337     1.0  0.73652  0.54145  0.08196  1.0000
  H   H3338     1.0  0.86769  0.49657  0.08331  1.0000
  H   H3339     1.0  0.87414  0.49677  0.11520  1.0000
  H   H3340     1.0  0.95464  0.49560  0.30418  1.0000
  C   C2086     1.0  0.94246  0.49574  0.30411  1.0000
  H   H3341     1.0  0.89803  0.58270  0.98486  1.0000
  H   H3342     1.0  0.94085  0.49423  0.28316  1.0000
  C   C2087     1.0  0.96935  0.67143  0.98281  1.0000
  C   C2088     1.0  0.95716  0.64514  0.98226  1.0000
  H   H3343     1.0  0.93929  0.58399  0.98230  1.0000
  Fe  Fe419     1.0  0.77645  0.59898  0.59451  1.0000
  S   S838      1.0  0.76726  0.58735  0.64113  1.0000
  S   S839      1.0  0.78762  0.62520  0.57745  1.0000
  Fe  Fe420     1.0  0.75929  0.56993  0.57794  1.0000
  H   H3344     1.0  0.94706  0.73490  0.77271  1.0000
  S   S840      1.0  0.75413  0.56236  0.53893  1.0000
  H   H3345     1.0  0.85663  0.65442  0.53351  1.0000
  Fe  Fe421     1.0  0.77256  0.56602  0.62949  1.0000
  S   S841      1.0  0.78254  0.54933  0.65633  1.0000
  S   S842      1.0  0.75334  0.59189  0.58492  1.0000
  S   S843      1.0  0.78347  0.57812  0.58313  1.0000
  H   H3346     1.0  0.91573  0.72944  0.65325  1.0000
  H   H3347     1.0  0.79664  0.65838  0.56737  1.0000
  Fe  Fe422     1.0  0.87528  0.56897  0.76062  1.0000
  S   S844      1.0  0.85084  0.57081  0.76544  1.0000
  S   S845      1.0  0.89322  0.59124  0.75693  1.0000
  Fe  Fe423     1.0  0.86692  0.53672  0.74972  1.0000
  S   S846      1.0  0.84180  0.53632  0.75303  1.0000
  S   S847      1.0  0.87801  0.51713  0.74324  1.0000
  Fe  Fe424     1.0  0.85103  0.56131  0.72741  1.0000
  S   S848      1.0  0.84255  0.57625  0.69466  1.0000
  Fe  Fe425     1.0  0.84362  0.54590  0.79074  1.0000
  S   S849      1.0  0.82362  0.54036  0.82945  1.0000
  S   S850      1.0  0.87601  0.56092  0.72070  1.0000
  S   S851      1.0  0.86810  0.54470  0.78953  1.0000
  Fe  Fe426     1.0  0.94487  0.62680  0.84717  1.0000
  S   S852      1.0  0.96689  0.62599  0.86055  1.0000
  S   S853      1.0  0.92753  0.60388  0.85251  1.0000
  Fe  Fe427     1.0  0.95092  0.66212  0.84041  1.0000
  S   S854      1.0  0.97306  0.66405  0.85409  1.0000
  S   S855      1.0  0.93960  0.68182  0.83049  1.0000
  H   H3348     1.0  0.80275  0.50706  0.94196  1.0000
  H   H3349     1.0  0.93142  0.70832  0.80077  1.0000
  Fe  Fe428     1.0  0.96022  0.64178  0.88745  1.0000
  S   S856      1.0  0.95813  0.63468  0.93453  1.0000
  S   S857      1.0  0.95633  0.64769  0.81000  1.0000
  S   S858      1.0  0.93762  0.64124  0.87627  1.0000
  Fe  Fe429     1.0  0.84209  0.69696  0.60949  1.0000
  S   S859      1.0  0.83173  0.71206  0.58111  1.0000
  S   S860      1.0  0.83408  0.67021  0.62410  1.0000
  H   H3350     1.0  0.82451  0.51688  0.97839  1.0000
  Fe  Fe430     1.0  0.85620  0.72438  0.55628  1.0000
  S   S861      1.0  0.84380  0.71236  0.63964  1.0000
  S   S862      1.0  0.86658  0.70850  0.58361  1.0000
  H   H3351     1.0  0.96616  0.68929  0.89949  1.0000
  H   H3352     1.0  0.96330  0.70815  0.88589  1.0000
  C   C2089     1.0  0.77033  0.63078  0.65169  1.0000
  C   C2090     1.0  0.96279  0.64895  0.95265  1.0000
  C   C2091     1.0  0.97193  0.66396  0.93813  1.0000
  H   H3353     1.0  0.95832  0.69275  0.86923  1.0000
  H   H3354     1.0  0.74704  0.55243  0.49087  1.0000
  C   C2092     1.0  0.80037  0.52769  0.77463  1.0000
  N   N210      1.0  0.85522  0.67813  0.52970  1.0000
  S   S863      1.0  0.88958  0.72980  0.62908  1.0000
  C   C2093     1.0  0.95091  0.70070  0.81140  1.0000
  H   H3355     1.0  0.77231  0.63269  0.67218  1.0000
  H   H3356     1.0  0.97243  0.69681  0.81879  1.0000
  C   C2094     1.0  0.81586  0.52058  0.84731  1.0000
  C   C2095     1.0  0.80293  0.51621  0.87071  1.0000
  H   H3357     1.0  0.94984  0.68663  0.94765  1.0000
  C   C2096     1.0  0.82265  0.50922  0.83904  1.0000
  H   H3358     1.0  0.79759  0.52498  0.87705  1.0000
  C   C2097     1.0  0.83143  0.51943  0.90759  1.0000
  H   H3359     1.0  0.83264  0.51251  0.82099  1.0000
  C   C2098     1.0  0.90256  0.59446  0.78388  1.0000
  C   C2099     1.0  0.89960  0.58310  0.80944  1.0000
  C   C2100     1.0  0.90733  0.58615  0.83030  1.0000
  C   C2101     1.0  0.91803  0.60056  0.82579  1.0000
  C   C2102     1.0  0.92092  0.61193  0.80028  1.0000
  C   C2103     1.0  0.91322  0.60888  0.77942  1.0000
  H   H3360     1.0  0.89144  0.57196  0.81307  1.0000
  H   H3361     1.0  0.90506  0.57729  0.84995  1.0000
  H   H3362     1.0  0.92913  0.62305  0.79659  1.0000
  H   H3363     1.0  0.91559  0.61771  0.75969  1.0000
  C   C2104     1.0  0.97114  0.69091  0.74912  1.0000
  C   C2105     1.0  0.80736  0.55568  0.76668  1.0000
  H   H3364     1.0  0.73935  0.62261  0.62398  1.0000
  H   H3365     1.0  0.78572  0.72952  0.69041  1.0000
  H   H3366     1.0  0.75560  0.61439  0.62148  1.0000
  H   H3367     1.0  0.92951  0.61321  0.92947  1.0000
  C   C2106     1.0  0.93253  0.69921  0.89595  1.0000
  H   H3368     1.0  0.77487  0.62068  0.64796  1.0000
  H   H3369     1.0  0.98238  0.68678  0.94201  1.0000
  C   C2107     1.0  0.87645  0.50896  0.71442  1.0000
  H   H3370     1.0  0.86903  0.68052  0.55958  1.0000
  C   C2108     1.0  0.94283  0.69343  0.93690  1.0000
  S   S864      1.0  0.86513  0.72945  0.50755  1.0000
  H   H3371     1.0  0.85693  0.51737  0.70639  1.0000
  H   H3372     1.0  0.86536  0.67554  0.48854  1.0000
  H   H3373     1.0  0.80325  0.56639  0.76688  1.0000
  H   H3374     1.0  0.90888  0.60580  0.94298  1.0000
  C   C2109     1.0  0.84435  0.68642  0.54196  1.0000
  H   H3375     1.0  0.75725  0.71995  0.71148  1.0000
  H   H3376     1.0  0.76050  0.70606  0.73973  1.0000
  C   C2110     1.0  0.79957  0.55692  0.66586  1.0000
  C   C2111     1.0  0.80603  0.57300  0.65948  1.0000
  C   C2112     1.0  0.81933  0.57875  0.66817  1.0000
  C   C2113     1.0  0.82619  0.56849  0.68338  1.0000
  C   C2114     1.0  0.81982  0.55240  0.68958  1.0000
  C   C2115     1.0  0.80656  0.54665  0.68074  1.0000
  H   H3377     1.0  0.80077  0.58099  0.64787  1.0000
  H   H3378     1.0  0.82426  0.59120  0.66316  1.0000
  H   H3379     1.0  0.82521  0.54442  0.70085  1.0000
  H   H3380     1.0  0.80169  0.53420  0.68544  1.0000
  C   C2116     1.0  0.80034  0.63737  0.59129  1.0000
  C   C2117     1.0  0.80801  0.63137  0.61096  1.0000
  C   C2118     1.0  0.81814  0.64157  0.62106  1.0000
  C   C2119     1.0  0.82055  0.65784  0.61194  1.0000
  C   C2120     1.0  0.81250  0.66378  0.59293  1.0000
  C   C2121     1.0  0.80265  0.65362  0.58236  1.0000
  H   H3381     1.0  0.80636  0.61889  0.61804  1.0000
  H   H3382     1.0  0.82426  0.63682  0.63585  1.0000
  H   H3383     1.0  0.81387  0.67623  0.58632  1.0000
  N   N211      1.0  0.87251  0.61665  0.70403  1.0000
  C   C2122     1.0  0.87508  0.61886  0.73149  1.0000
  C   C2123     1.0  0.87860  0.60355  0.69755  1.0000
  C   C2124     1.0  0.88062  0.63102  0.68127  1.0000
  C   C2125     1.0  0.85572  0.61310  0.70583  1.0000
  H   H3384     1.0  0.87068  0.62867  0.73714  1.0000
  H   H3385     1.0  0.88763  0.62134  0.73103  1.0000
  H   H3386     1.0  0.86918  0.60816  0.74911  1.0000
  H   H3387     1.0  0.87667  0.60129  0.67722  1.0000
  H   H3388     1.0  0.89122  0.60567  0.69630  1.0000
  H   H3389     1.0  0.87276  0.59259  0.71441  1.0000
  H   H3390     1.0  0.87891  0.62969  0.66028  1.0000
  H   H3391     1.0  0.89332  0.63397  0.67941  1.0000
  H   H3392     1.0  0.87631  0.64116  0.68545  1.0000
  H   H3393     1.0  0.85333  0.61106  0.68562  1.0000
  H   H3394     1.0  0.85070  0.62275  0.71048  1.0000
  H   H3395     1.0  0.84929  0.60229  0.72285  1.0000
  H   H3396     1.0  0.80697  0.52859  0.75266  1.0000
  H   H3397     1.0  0.81537  0.55518  0.78078  1.0000
  C   C2126     1.0  0.81670  0.49354  0.85458  1.0000
  H   H3398     1.0  0.84620  0.67856  0.49287  1.0000
  H   H3399     1.0  0.83933  0.53086  0.94994  1.0000
  H   H3400     1.0  0.94803  0.70598  0.93477  1.0000
  C   C2127     1.0  0.86333  0.50304  0.67856  1.0000
  N   N212      1.0  0.77383  0.72966  0.73241  1.0000
  H   H3401     1.0  0.77757  0.64120  0.63455  1.0000
  H   H3402     1.0  0.86250  0.69453  0.48861  1.0000
  S   S865      1.0  0.81505  0.73868  0.62289  1.0000
  H   H3403     1.0  0.85052  0.50961  0.93774  1.0000
  H   H3404     1.0  0.98452  0.53014  0.58850  1.0000
  H   H3405     1.0  0.92040  0.69563  0.90936  1.0000
  H   H3406     1.0  0.83845  0.49318  0.93085  1.0000
  H   H3407     1.0  0.82331  0.52664  0.90273  1.0000
  H   H3408     1.0  0.94707  0.60078  0.95244  1.0000
  C   C2128     1.0  0.85741  0.68180  0.49856  1.0000
  C   C2129     1.0  0.95826  0.69538  0.89011  1.0000
  N   N213      1.0  0.82728  0.51119  0.93809  1.0000
  Fe  Fe431     1.0  0.97786  0.64814  0.82593  1.0000
  H   H3409     1.0  0.75000  0.64498  0.67519  1.0000
  C   C2130     1.0  0.87350  0.49409  0.67064  1.0000
  H   H3410     1.0  0.93515  0.67092  0.89215  1.0000
  C   C2131     1.0  0.75960  0.71824  0.73288  1.0000
  H   H3411     1.0  0.83285  0.68299  0.53747  1.0000
  H   H3412     1.0  0.79331  0.53872  0.82027  1.0000
  H   H3413     1.0  0.83728  0.65697  0.53819  1.0000
  C   C2132     1.0  0.97561  0.72014  0.79329  1.0000
  H   H3414     1.0  0.89579  0.49900  0.71701  1.0000
  H   H3415     1.0  0.92002  0.59495  0.92477  1.0000
  C   C2133     1.0  0.96054  0.50092  0.64782  1.0000
  N   N214      1.0  0.75378  0.62810  0.65176  1.0000
  H   H3416     1.0  0.76647  0.72847  0.77685  1.0000
  H   H3417     1.0  0.85421  0.50415  0.66798  1.0000
  C   C2134     1.0  0.92002  0.60240  0.94000  1.0000
  H   H3418     1.0  0.84331  0.52739  0.90068  1.0000
  H   H3419     1.0  0.93774  0.58250  0.94738  1.0000
  C   C2135     1.0  0.88669  0.50010  0.70632  1.0000
  H   H3420     1.0  0.81921  0.52975  0.95177  1.0000
  H   H3421     1.0  0.97089  0.70269  0.75214  1.0000
  H   H3422     1.0  0.78912  0.71591  0.71874  1.0000
  H   H3423     1.0  0.74926  0.71943  0.74781  1.0000
  H   H3424     1.0  0.83105  0.51108  0.89405  1.0000
  H   H3425     1.0  0.96370  0.68218  0.76891  1.0000
  C   C2136     1.0  0.74450  0.61464  0.67563  1.0000
  H   H3426     1.0  0.84705  0.65813  0.56578  1.0000
  H   H3427     1.0  0.74573  0.61661  0.69648  1.0000
  C   C2137     1.0  0.79706  0.50055  0.88635  1.0000
  H   H3428     1.0  0.77796  0.71530  0.76888  1.0000
  H   H3429     1.0  0.97982  0.66410  0.75574  1.0000
  C   C2138     1.0  0.75173  0.62488  0.62463  1.0000
  C   C2139     1.0  0.87028  0.68325  0.53621  1.0000
  H   H3430     1.0  0.90918  0.57176  0.96683  1.0000
  H   H3431     1.0  0.79086  0.51676  0.78150  1.0000
  C   C2140     1.0  0.97525  0.67518  0.95323  1.0000
  C   C2141     1.0  0.93599  0.67352  0.91278  1.0000
  C   C2142     1.0  0.94378  0.71160  0.79874  1.0000
  H   H3432     1.0  0.95551  0.50540  0.66504  1.0000
  C   C2143     1.0  0.86486  0.51056  0.70027  1.0000
  H   H3433     1.0  0.83573  0.49562  0.96624  1.0000
  H   H3434     1.0  0.84884  0.69920  0.53335  1.0000
  C   C2144     1.0  0.96685  0.70505  0.80885  1.0000
  H   H3435     1.0  0.74808  0.60380  0.67377  1.0000
  Fe  Fe432     1.0  0.83529  0.72849  0.60912  1.0000
  H   H3436     1.0  0.93133  0.61579  0.97711  1.0000
  C   C2145     1.0  0.84880  0.66116  0.54225  1.0000
  N   N215      1.0  0.92223  0.59429  0.96734  1.0000
  H   H3437     1.0  0.92415  0.66924  0.92735  1.0000
  C   C2146     1.0  0.88533  0.49282  0.68429  1.0000
  C   C2147     1.0  0.74191  0.54490  0.53656  1.0000
  H   H3438     1.0  0.75526  0.65251  0.63723  1.0000
  C   C2148     1.0  0.83851  0.50200  0.94345  1.0000
  H   H3439     1.0  0.93701  0.71199  0.89274  1.0000
  Fe  Fe433     1.0  0.86771  0.72529  0.61159  1.0000
  H   H3440     1.0  0.75868  0.63471  0.60606  1.0000
  H   H3441     1.0  0.77390  0.53230  0.76304  1.0000
  C   C2149     1.0  0.97678  0.50424  0.63822  1.0000
  H   H3442     1.0  0.78996  0.54429  0.73449  1.0000
  C   C2150     1.0  0.95259  0.72665  0.78288  1.0000
  H   H3443     1.0  0.87520  0.69612  0.52764  1.0000
  S   S866      1.0  0.74880  0.55665  0.62360  1.0000
  H   H3444     1.0  0.78104  0.55005  0.80730  1.0000
  H   H3445     1.0  0.80831  0.52634  0.78878  1.0000
  H   H3446     1.0  0.81433  0.55717  0.74475  1.0000
  C   C2151     1.0  0.82762  0.52269  0.95525  1.0000
  H   H3447     1.0  0.77581  0.52918  0.81315  1.0000
  C   C2152     1.0  0.74854  0.64215  0.65501  1.0000
  H   H3448     1.0  0.93207  0.69725  0.87471  1.0000
  H   H3449     1.0  0.93102  0.69012  0.95147  1.0000
  H   H3450     1.0  0.83294  0.71469  0.50847  1.0000
  C   C2153     1.0  0.78571  0.53980  0.80543  1.0000
  C   C2154     1.0  0.78381  0.54285  0.75695  1.0000
  N   N216      1.0  0.79430  0.54151  0.77591  1.0000
  H   H3451     1.0  0.77898  0.55313  0.75743  1.0000
  N   N217      1.0  0.94240  0.69038  0.90897  1.0000
  C   C2155     1.0  0.96857  0.73091  0.77994  1.0000
  H   H3452     1.0  0.94339  0.66650  0.92176  1.0000
  H   H3453     1.0  0.87893  0.67747  0.52689  1.0000
  C   C2156     1.0  0.77642  0.72716  0.76122  1.0000
  H   H3454     1.0  0.84261  0.68406  0.56532  1.0000
  H   H3455     1.0  0.79816  0.73636  0.71128  1.0000
  C   C2157     1.0  0.81155  0.50059  0.94602  1.0000
  Fe  Fe434     1.0  0.74457  0.57921  0.63090  1.0000
  H   H3456     1.0  0.78713  0.49726  0.90444  1.0000
  H   H3457     1.0  0.84474  0.49599  0.57045  1.0000
  H   H3458     1.0  0.73606  0.64049  0.65524  1.0000
  H   H3459     1.0  0.98227  0.67244  0.71858  1.0000
  C   C2158     1.0  0.93723  0.59017  0.96217  1.0000
  C   C2159     1.0  0.78726  0.72775  0.71241  1.0000
  C   C2160     1.0  0.84012  0.71709  0.48710  1.0000
  H   H3460     1.0  0.80796  0.49433  0.96898  1.0000
  C   C2161     1.0  0.98307  0.49834  0.61595  1.0000
  H   H3461     1.0  0.97661  0.66682  0.91537  1.0000
  C   C2162     1.0  0.91178  0.73945  0.65705  1.0000
  C   C2163     1.0  0.74041  0.54328  0.50964  1.0000
  H   H3462     1.0  0.96557  0.68939  0.73161  1.0000
  H   H3463     1.0  0.78694  0.73580  0.76164  1.0000
  C   C2164     1.0  0.90951  0.57997  0.98063  1.0000
  C   C2165     1.0  0.95069  0.49201  0.63519  1.0000
  C   C2166     1.0  0.80484  0.76277  0.26623  1.0000
  N   N218      1.0  0.81816  0.77659  0.16575  1.0000
  C   C2167     1.0  0.90730  0.74530  0.26997  1.0000
  C   C2168     1.0  0.74632  0.88947  0.27545  1.0000
  S   S867      1.0  0.97803  0.78850  0.15902  1.0000
  C   C2169     1.0  0.93588  0.82418  0.15942  1.0000
  H   H3464     1.0  0.85525  0.76160  0.40124  1.0000
  H   H3465     1.0  0.93589  0.80349  0.12797  1.0000
  Fe  Fe435     1.0  0.96969  0.79149  0.20277  1.0000
  S   S868      1.0  0.94396  0.79024  0.21623  1.0000
  H   H3466     1.0  0.89070  0.75844  0.26273  1.0000
  H   H3467     1.0  0.96903  0.75421  0.15312  1.0000
  C   C2170     1.0  0.97965  0.81777  0.05820  1.0000
  H   H3468     1.0  0.77936  0.87496  0.02785  1.0000
  H   H3469     1.0  0.97092  0.80786  0.05758  1.0000
  C   C2171     1.0  0.93449  0.75943  0.24813  1.0000
  C   C2172     1.0  0.73891  0.81813  0.27441  1.0000
  H   H3470     1.0  0.96117  0.81776  0.17225  1.0000
  H   H3471     1.0  0.76144  0.88109  0.21396  1.0000
  C   C2173     1.0  0.90286  0.75867  0.25882  1.0000
  H   H3472     1.0  0.83541  0.77771  0.12831  1.0000
  H   H3473     1.0  0.75500  0.98637  0.34331  1.0000
  C   C2174     1.0  0.79255  0.76097  0.25297  1.0000
  C   C2175     1.0  0.80627  0.76466  0.16024  1.0000
  S   S869      1.0  0.76544  0.75909  0.16025  1.0000
  H   H3474     1.0  0.80919  0.77381  0.27060  1.0000
  C   C2176     1.0  0.80101  0.87679  0.98120  1.0000
  H   H3475     1.0  0.96270  0.83283  0.09610  1.0000
  H   H3476     1.0  0.76019  0.91246  0.22812  1.0000
  N   N219      1.0  0.83338  0.75854  0.39013  1.0000
  S   S870      1.0  0.76997  0.78837  0.19013  1.0000
  H   H3477     1.0  0.74871  0.97709  0.11703  1.0000
  H   H3478     1.0  0.83867  0.79466  0.14195  1.0000
  H   H3479     1.0  0.74629  0.80200  0.25140  1.0000
  Fe  Fe436     1.0  0.77113  0.78521  0.14605  1.0000
  S   S871      1.0  0.79416  0.79755  0.11384  1.0000
  S   S872      1.0  0.77134  0.74371  0.23088  1.0000
  C   C2177     1.0  0.74098  0.93811  0.28699  1.0000
  C   C2178     1.0  0.80558  0.86576  0.02626  1.0000
  H   H3480     1.0  0.75694  0.89746  0.27709  1.0000
  S   S873      1.0  0.75651  0.96833  0.25731  1.0000
  C   C2179     1.0  0.79932  0.82576  0.02285  1.0000
  C   C2180     1.0  0.78450  0.81853  0.04113  1.0000
  C   C2181     1.0  0.78272  0.80989  0.06910  1.0000
  C   C2182     1.0  0.79578  0.80843  0.07899  1.0000
  C   C2183     1.0  0.81061  0.81577  0.06079  1.0000
  C   C2184     1.0  0.81239  0.82443  0.03282  1.0000
  H   H3481     1.0  0.77434  0.81953  0.03354  1.0000
  H   H3482     1.0  0.77126  0.80429  0.08291  1.0000
  H   H3483     1.0  0.82077  0.81470  0.06826  1.0000
  H   H3484     1.0  0.82385  0.82997  0.01892  1.0000
  H   H3485     1.0  0.79512  0.85582  0.03141  1.0000
  H   H3486     1.0  0.83491  0.77750  0.19071  1.0000
  H   H3487     1.0  0.94430  0.79768  0.15686  1.0000
  H   H3488     1.0  0.82389  0.79138  0.12329  1.0000
  H   H3489     1.0  0.83002  0.75522  0.43530  1.0000
  H   H3490     1.0  0.94665  0.75967  0.24441  1.0000
  H   H3491     1.0  0.81146  0.75622  0.15087  1.0000
  C   C2185     1.0  0.81778  0.89283  0.00164  1.0000
  H   H3492     1.0  0.97349  0.82394  0.13686  1.0000
  H   H3493     1.0  0.74562  0.81585  0.28970  1.0000
  S   S874      1.0  0.82671  0.75301  0.29113  1.0000
  H   H3494     1.0  0.92526  0.82194  0.15155  1.0000
  N   N220      1.0  0.80365  0.87996  0.00801  1.0000
  C   C2186     1.0  0.82451  0.75050  0.41974  1.0000
  H   H3495     1.0  0.81242  0.75169  0.42379  1.0000
  H   H3496     1.0  0.81671  0.90371  0.98783  1.0000
  H   H3497     1.0  0.95454  0.84589  0.11316  1.0000
  H   H3498     1.0  0.79730  0.75793  0.18015  1.0000
  C   C2187     1.0  0.95233  0.83363  0.11144  1.0000
  C   C2188     1.0  0.94631  0.80638  0.13618  1.0000
  C   C2189     1.0  0.78676  0.74669  0.24747  1.0000
  C   C2190     1.0  0.97239  0.74403  0.14870  1.0000
  C   C2191     1.0  0.84942  0.75690  0.38604  1.0000
  H   H3499     1.0  0.74485  0.87782  0.28995  1.0000
  H   H3500     1.0  0.95622  0.80467  0.12114  1.0000
  H   H3501     1.0  0.78842  0.89509  0.00953  1.0000
  H   H3502     1.0  0.76168  0.97703  0.31645  1.0000
  H   H3503     1.0  0.83195  0.76074  0.17657  1.0000
  C   C2192     1.0  0.74287  0.95024  0.26274  1.0000
  H   H3504     1.0  0.74788  0.93996  0.30188  1.0000
  C   C2193     1.0  0.82593  0.75149  0.37038  1.0000
  H   H3505     1.0  0.80508  0.79381  0.16370  1.0000
  H   H3506     1.0  0.93789  0.83612  0.16274  1.0000
  C   C2194     1.0  0.92316  0.74580  0.26467  1.0000
  H   H3507     1.0  0.96620  0.83784  0.15274  1.0000
  H   H3508     1.0  0.81546  0.86186  0.01548  1.0000
  H   H3509     1.0  0.77153  0.88943  0.23703  1.0000
  C   C2195     1.0  0.82958  0.78546  0.13867  1.0000
  Fe  Fe437     1.0  0.74471  0.78698  0.19260  1.0000
  Fe  Fe438     1.0  0.76277  0.76213  0.20438  1.0000
  C   C2196     1.0  0.93007  0.77280  0.23701  1.0000
  C   C2197     1.0  0.91421  0.77237  0.24247  1.0000
  N   N221      1.0  0.94941  0.82248  0.13942  1.0000
  C   C2198     1.0  0.81136  0.75030  0.27431  1.0000
  C   C2199     1.0  0.96316  0.82566  0.15079  1.0000
  C   C2200     1.0  0.81068  0.78739  0.17849  1.0000
  H   H3510     1.0  0.91068  0.78268  0.23406  1.0000
  H   H3511     1.0  0.79179  0.88693  0.04319  1.0000
  S   S875      1.0  0.97484  0.83204  0.00771  1.0000
  H   H3512     1.0  0.94234  0.83141  0.10185  1.0000
  S   S876      1.0  0.74630  0.78537  0.14738  1.0000
  S   S877      1.0  0.73740  0.76098  0.21071  1.0000
  H   H3513     1.0  0.75883  0.87005  0.24978  1.0000
  H   H3514     1.0  0.75032  0.90394  0.20492  1.0000
  H   H3515     1.0  0.80776  0.86767  0.04661  1.0000
  H   H3516     1.0  0.85659  0.76313  0.36413  1.0000
  H   H3517     1.0  0.80151  0.78102  0.19825  1.0000
  C   C2201     1.0  0.83367  0.77526  0.38435  1.0000
  C   C2202     1.0  0.82604  0.76887  0.18558  1.0000
  H   H3518     1.0  0.81919  0.79623  0.18390  1.0000
  H   H3519     1.0  0.82030  0.89550  0.02131  1.0000
  H   H3520     1.0  0.93341  0.81579  0.18066  1.0000
  C   C2203     1.0  0.74949  0.90420  0.22741  1.0000
  C   C2204     1.0  0.76500  0.98708  0.32563  1.0000
  H   H3521     1.0  0.82175  0.77694  0.38727  1.0000
  H   H3522     1.0  0.77490  0.98548  0.33483  1.0000
  H   H3523     1.0  0.78735  0.77051  0.24758  1.0000
  H   H3524     1.0  0.84023  0.78162  0.36211  1.0000
  C   C2205     1.0  0.76037  0.88200  0.23620  1.0000
  N   N222      1.0  0.74724  0.88847  0.24593  1.0000
  H   H3525     1.0  0.73632  0.89400  0.28363  1.0000
  S   S878      1.0  0.98381  0.77698  0.22280  1.0000
  H   H3526     1.0  0.83233  0.75720  0.34777  1.0000
  H   H3527     1.0  0.80024  0.77010  0.14509  1.0000
  H   H3528     1.0  0.73961  0.90923  0.23419  1.0000
  Fe  Fe439     1.0  0.76239  0.98948  0.21911  1.0000
  Fe  Fe440     1.0  0.74051  0.75932  0.16554  1.0000
  C   C2206     1.0  0.79019  0.88445  0.02284  1.0000
  H   H3529     1.0  0.84964  0.74445  0.38941  1.0000
  H   H3530     1.0  0.75510  0.97781  0.06530  1.0000
  S   S879      1.0  0.80093  0.83675  0.98813  1.0000
  H   H3531     1.0  0.83927  0.78095  0.39882  1.0000
  H   H3532     1.0  0.81767  0.76190  0.20605  1.0000
  C   C2207     1.0  0.75146  0.99005  0.11043  1.0000
  H   H3533     1.0  0.82812  0.88995  0.98995  1.0000
  H   H3534     1.0  0.98289  0.80636  0.09843  1.0000
  H   H3535     1.0  0.81382  0.75254  0.37272  1.0000
  H   H3536     1.0  0.79055  0.86703  0.98501  1.0000
  C   C2208     1.0  0.75765  0.99075  0.06062  1.0000
  C   C2209     1.0  0.73932  0.81027  0.25273  1.0000
  C   C2210     1.0  0.98419  0.83136  0.03565  1.0000
  S   S880      1.0  0.76284  0.99143  0.17301  1.0000
  H   H3537     1.0  0.73513  0.95691  0.22502  1.0000
  Fe  Fe441     1.0  0.97033  0.76858  0.73969  1.0000
  S   S881      1.0  0.94769  0.77380  0.75736  1.0000
  H   H3538     1.0  0.75240  0.94253  0.50303  1.0000
  H   H3539     1.0  0.79467  0.85159  0.76070  1.0000
  S   S882      1.0  0.95921  0.80468  0.70455  1.0000
  Fe  Fe442     1.0  0.96248  0.79848  0.74887  1.0000
  S   S883      1.0  0.96061  0.81714  0.77372  1.0000
  Fe  Fe443     1.0  0.94640  0.77951  0.71130  1.0000
  S   S884      1.0  0.92471  0.77551  0.69335  1.0000
  S   S885      1.0  0.96826  0.77287  0.69447  1.0000
  H   H3540     1.0  0.96017  0.81297  0.62828  1.0000
  H   H3541     1.0  0.79974  0.88727  0.96655  1.0000
  N   N223      1.0  0.77203  0.84378  0.78984  1.0000
  H   H3542     1.0  0.84587  0.95259  0.86879  1.0000
  Fe  Fe444     1.0  0.96964  0.87261  0.92663  1.0000
  S   S886      1.0  0.95145  0.88528  0.91712  1.0000
  S   S887      1.0  0.96686  0.84682  0.93619  1.0000
  H   H3543     1.0  0.80912  0.98646  0.87698  1.0000
  H   H3544     1.0  0.83010  0.96872  0.88865  1.0000
  S   S888      1.0  0.78717  0.97954  0.79620  1.0000
  Fe  Fe445     1.0  0.76220  0.96889  0.71453  1.0000
  S   S889      1.0  0.85916  0.74218  0.58207  1.0000
  S   S890      1.0  0.75341  0.94486  0.70578  1.0000
  C   C2211     1.0  0.95693  0.80020  0.58466  1.0000
  H   H3545     1.0  0.97403  0.85153  0.83464  1.0000
  H   H3546     1.0  0.76166  0.74724  0.73718  1.0000
  C   C2212     1.0  0.85598  0.96304  0.86109  1.0000
  S   S891      1.0  0.75431  0.97110  0.75928  1.0000
  H   H3547     1.0  0.92593  0.89430  0.89855  1.0000
  H   H3548     1.0  0.74019  0.95802  0.65935  1.0000
  S   S892      1.0  0.86156  0.97223  0.94335  1.0000
  Fe  Fe446     1.0  0.76005  0.77090  0.77029  1.0000
  S   S893      1.0  0.76772  0.78260  0.72327  1.0000
  H   H3549     1.0  0.83663  0.74828  0.65593  1.0000
  Fe  Fe447     1.0  0.78230  0.79703  0.78507  1.0000
  S   S894      1.0  0.79180  0.81030  0.73941  1.0000
  S   S895      1.0  0.78819  0.80311  0.82446  1.0000
  Fe  Fe448     1.0  0.76691  0.80487  0.73681  1.0000
  H   H3550     1.0  0.83669  0.98959  0.87695  1.0000
  Fe  Fe449     1.0  0.79183  0.78705  0.73002  1.0000
  S   S896      1.0  0.81379  0.78148  0.70919  1.0000
  S   S897      1.0  0.75743  0.79263  0.78332  1.0000
  S   S898      1.0  0.78412  0.77424  0.77605  1.0000
  H   H3551     1.0  0.92944  0.74644  0.67866  1.0000
  C   C2213     1.0  0.80328  0.75850  0.65060  1.0000
  Fe  Fe450     1.0  0.85932  0.85957  0.93591  1.0000
  S   S899      1.0  0.85925  0.87732  0.89666  1.0000
  S   S900      1.0  0.87925  0.85173  0.95091  1.0000
  C   C2214     1.0  0.97558  0.79329  0.60993  1.0000
  S   S901      1.0  0.82158  0.86594  0.91806  1.0000
  Fe  Fe451     1.0  0.84017  0.85828  0.89230  1.0000
  S   S902      1.0  0.83950  0.85463  0.84839  1.0000
  Fe  Fe452     1.0  0.84039  0.88364  0.92577  1.0000
  S   S903      1.0  0.83193  0.90566  0.92679  1.0000
  S   S904      1.0  0.84124  0.84023  0.92987  1.0000
  H   H3552     1.0  0.97754  0.78767  0.63056  1.0000
  C   C2215     1.0  0.80244  0.81783  0.83025  1.0000
  C   C2216     1.0  0.80251  0.81808  0.85837  1.0000
  C   C2217     1.0  0.81365  0.82937  0.86427  1.0000
  C   C2218     1.0  0.82494  0.84050  0.84203  1.0000
  C   C2219     1.0  0.82485  0.84031  0.81385  1.0000
  C   C2220     1.0  0.81361  0.82910  0.80794  1.0000
  H   H3553     1.0  0.79392  0.80945  0.87582  1.0000
  H   H3554     1.0  0.81359  0.82937  0.88605  1.0000
  H   H3555     1.0  0.83353  0.84893  0.79654  1.0000
  H   H3556     1.0  0.81369  0.82922  0.78619  1.0000
  H   H3557     1.0  0.86376  0.96168  0.84196  1.0000
  C   C2221     1.0  0.78460  0.84115  0.76902  1.0000
  H   H3558     1.0  0.97976  0.94175  0.91675  1.0000
  C   C2222     1.0  0.91963  0.74914  0.67148  1.0000
  H   H3559     1.0  0.75625  0.98085  0.81342  1.0000
  H   H3560     1.0  0.76830  0.94165  0.51911  1.0000
  H   H3561     1.0  0.77550  0.86755  0.76659  1.0000
  H   H3562     1.0  0.83176  0.81716  0.75751  1.0000
  H   H3563     1.0  0.96362  0.81267  0.57740  1.0000
  C   C2223     1.0  0.89388  0.75548  0.65301  1.0000
  C   C2224     1.0  0.85295  0.95352  0.93994  1.0000
  C   C2225     1.0  0.83750  0.94923  0.93882  1.0000
  C   C2226     1.0  0.83133  0.93454  0.93475  1.0000
  C   C2227     1.0  0.84043  0.92387  0.93219  1.0000
  C   C2228     1.0  0.85579  0.92802  0.93385  1.0000
  C   C2229     1.0  0.86201  0.94280  0.93763  1.0000
  H   H3564     1.0  0.83029  0.95720  0.94120  1.0000
  H   H3565     1.0  0.81941  0.93139  0.93364  1.0000
  H   H3566     1.0  0.86292  0.91993  0.93194  1.0000
  H   H3567     1.0  0.78058  0.83842  0.75048  1.0000
  H   H3568     1.0  0.93277  0.85624  0.95792  1.0000
  H   H3569     1.0  0.81093  0.87333  0.96965  1.0000
  H   H3570     1.0  0.75664  0.85884  0.79066  1.0000
  Fe  Fe453     1.0  0.98239  0.85065  0.96549  1.0000
  H   H3571     1.0  0.84046  0.79191  0.81783  1.0000
  H   H3572     1.0  0.79316  0.97181  0.85128  1.0000
  H   H3573     1.0  0.82407  0.80160  0.74306  1.0000
  C   C2230     1.0  0.74766  0.82851  0.69612  1.0000
  H   H3574     1.0  0.98020  0.78735  0.59395  1.0000
  H   H3575     1.0  0.97023  0.92672  0.94885  1.0000
  H   H3576     1.0  0.75876  0.92496  0.50916  1.0000
  C   C2231     1.0  0.77807  0.84803  0.81340  1.0000
  C   C2232     1.0  0.75221  0.91913  0.56608  1.0000
  C   C2233     1.0  0.82718  0.75375  0.65968  1.0000
  C   C2234     1.0  0.75931  0.82935  0.80119  1.0000
  C   C2235     1.0  0.84272  0.97767  0.83220  1.0000
  N   N224      1.0  0.85101  0.97763  0.85485  1.0000
  C   C2236     1.0  0.93134  0.87605  0.92716  1.0000
  C   C2237     1.0  0.92521  0.86173  0.94753  1.0000
  C   C2238     1.0  0.90920  0.85459  0.95477  1.0000
  C   C2239     1.0  0.89915  0.86165  0.94172  1.0000
  C   C2240     1.0  0.90528  0.87600  0.92141  1.0000
  C   C2241     1.0  0.92130  0.88319  0.91426  1.0000
  H   H3577     1.0  0.97823  0.80201  0.80971  1.0000
  H   H3578     1.0  0.86236  0.96277  0.87800  1.0000
  H   H3579     1.0  0.89767  0.88155  0.91121  1.0000
  S   S905      1.0  0.78717  0.98069  0.71187  1.0000
  C   C2242     1.0  0.84060  0.97872  0.88079  1.0000
  H   H3580     1.0  0.75459  0.82574  0.78388  1.0000
  H   H3581     1.0  0.87396  0.94598  0.93860  1.0000
  C   C2243     1.0  0.81436  0.77024  0.68407  1.0000
  C   C2244     1.0  0.80275  0.76798  0.66968  1.0000
  C   C2245     1.0  0.97715  0.81274  0.81518  1.0000
  N   N225      1.0  0.95899  0.79252  0.61239  1.0000
  H   H3582     1.0  0.95470  0.79487  0.65500  1.0000
  H   H3583     1.0  0.79345  0.77364  0.67303  1.0000
  H   H3584     1.0  0.83909  0.98869  0.82673  1.0000
  C   C2246     1.0  0.96910  0.82205  0.80114  1.0000
  H   H3585     1.0  0.76153  0.85352  0.75778  1.0000
  C   C2247     1.0  0.96791  0.83599  0.80865  1.0000
  H   H3586     1.0  0.87283  0.99089  0.82580  1.0000
  H   H3587     1.0  0.96193  0.84343  0.79768  1.0000
  C   C2248     1.0  0.91478  0.76223  0.67655  1.0000
  H   H3588     1.0  0.74844  0.80681  0.68558  1.0000
  H   H3589     1.0  0.73859  0.95048  0.54384  1.0000
  H   H3590     1.0  0.78245  0.83854  0.82461  1.0000
  C   C2249     1.0  0.98370  0.81722  0.83663  1.0000
  C   C2250     1.0  0.90183  0.76526  0.66718  1.0000
  H   H3591     1.0  0.88398  0.75807  0.64605  1.0000
  C   C2251     1.0  0.75683  0.93487  0.51822  1.0000
  C   C2252     1.0  0.73795  0.94556  0.66205  1.0000
  H   H3592     1.0  0.89788  0.77529  0.67088  1.0000
  H   H3593     1.0  0.85585  0.80819  0.75523  1.0000
  H   H3594     1.0  0.84096  0.81160  0.80078  1.0000
  H   H3595     1.0  0.76894  0.85020  0.82949  1.0000
  C   C2253     1.0  0.77203  0.74559  0.72320  1.0000
  H   H3596     1.0  0.82279  0.79790  0.81957  1.0000
  H   H3597     1.0  0.93737  0.77507  0.62297  1.0000
  H   H3598     1.0  0.90453  0.84353  0.97062  1.0000
  H   H3599     1.0  0.85479  0.78838  0.77247  1.0000
  H   H3600     1.0  0.81335  0.80362  0.77596  1.0000
  H   H3601     1.0  0.84780  0.79256  0.74117  1.0000
  H   H3602     1.0  0.79425  0.75677  0.63955  1.0000
  C   C2254     1.0  0.98235  0.83105  0.84442  1.0000
  C   C2255     1.0  0.95347  0.80055  0.63386  1.0000
  C   C2256     1.0  0.74680  0.98663  0.81854  1.0000
  H   H3603     1.0  0.87125  0.99145  0.86218  1.0000
  H   H3604     1.0  0.74955  0.83088  0.81688  1.0000
  Fe  Fe454     1.0  0.98105  0.79760  0.69028  1.0000
  Fe  Fe455     1.0  0.77874  0.98482  0.75519  1.0000
  H   H3605     1.0  0.94452  0.79983  0.58592  1.0000
  H   H3606     1.0  0.84658  0.97893  0.89813  1.0000
  H   H3607     1.0  0.78227  0.75450  0.72388  1.0000
  H   H3608     1.0  0.98276  0.80558  0.60359  1.0000
  C   C2257     1.0  0.94992  0.77604  0.62126  1.0000
  H   H3609     1.0  0.74415  0.91454  0.58771  1.0000
  C   C2258     1.0  0.97461  0.84055  0.82988  1.0000
  H   H3610     1.0  0.96092  0.79438  0.56799  1.0000
  H   H3611     1.0  0.95388  0.76944  0.60595  1.0000
  H   H3612     1.0  0.95087  0.77003  0.64253  1.0000
  C   C2259     1.0  0.74339  0.93663  0.68251  1.0000
  C   C2260     1.0  0.76617  0.85651  0.77564  1.0000
  Fe  Fe456     1.0  0.82401  0.84944  0.95628  1.0000
  S   S906      1.0  0.84193  0.86733  0.96531  1.0000
  S   S907      1.0  0.75774  0.82593  0.72299  1.0000
  N   N226      1.0  0.93309  0.83584  0.88862  1.0000
  C   C2261     1.0  0.91914  0.84145  0.88642  1.0000
  C   C2262     1.0  0.93544  0.82573  0.86920  1.0000
  C   C2263     1.0  0.93107  0.82685  0.91811  1.0000
  C   C2264     1.0  0.94675  0.84934  0.88076  1.0000
  H   H3613     1.0  0.91729  0.84946  0.90020  1.0000
  H   H3614     1.0  0.90847  0.83165  0.89307  1.0000
  H   H3615     1.0  0.92013  0.84802  0.86432  1.0000
  H   H3616     1.0  0.94587  0.82127  0.87041  1.0000
  H   H3617     1.0  0.92533  0.81545  0.87442  1.0000
  H   H3618     1.0  0.93716  0.83215  0.84669  1.0000
  H   H3619     1.0  0.94143  0.82249  0.92047  1.0000
  H   H3620     1.0  0.92081  0.81661  0.92488  1.0000
  H   H3621     1.0  0.92935  0.83413  0.93333  1.0000
  H   H3622     1.0  0.95749  0.84554  0.88223  1.0000
  H   H3623     1.0  0.94542  0.85719  0.89505  1.0000
  H   H3624     1.0  0.94864  0.85647  0.85868  1.0000
  N   N227      1.0  0.83299  0.79449  0.77911  1.0000
  C   C2265     1.0  0.82371  0.77814  0.78649  1.0000
  C   C2266     1.0  0.84856  0.79597  0.76124  1.0000
  C   C2267     1.0  0.83440  0.79917  0.80544  1.0000
  C   C2268     1.0  0.82521  0.80469  0.76320  1.0000
  H   H3625     1.0  0.81201  0.77658  0.80049  1.0000
  H   H3626     1.0  0.82940  0.77002  0.79793  1.0000
  H   H3627     1.0  0.82202  0.77441  0.76708  1.0000
  H   H3628     1.0  0.75421  0.90889  0.55826  1.0000
  H   H3629     1.0  0.83204  0.96787  0.83883  1.0000
  H   H3630     1.0  0.78880  0.83118  0.77877  1.0000
  H   H3631     1.0  0.76341  0.92559  0.56857  1.0000
  H   H3632     1.0  0.73685  0.97771  0.83426  1.0000
  S   S908      1.0  0.74556  0.74644  0.79413  1.0000
  C   C2269     1.0  0.86472  0.99117  0.84554  1.0000
  H   H3633     1.0  0.76334  0.81949  0.81208  1.0000
  C   C2270     1.0  0.74343  0.94263  0.55788  1.0000
  C   C2271     1.0  0.82666  0.76323  0.67876  1.0000
  H   H3634     1.0  0.74308  0.99017  0.79878  1.0000
  H   H3635     1.0  0.83578  0.76505  0.68957  1.0000
  H   H3636     1.0  0.78788  0.85874  0.80561  1.0000
  C   C2272     1.0  0.79973  0.98373  0.84108  1.0000
  C   C2273     1.0  0.74460  0.81735  0.68099  1.0000
  C   C2274     1.0  0.81544  0.75127  0.64564  1.0000
  C   C2275     1.0  0.74047  0.92043  0.68521  1.0000
  H   H3637     1.0  0.77070  0.74820  0.70109  1.0000
  S   S909      1.0  0.98031  0.74924  0.75891  1.0000
  H   H3638     1.0  0.97665  0.90652  0.92531  1.0000
  H   H3639     1.0  0.94095  0.80014  0.63653  1.0000
  H   H3640     1.0  0.74459  0.91334  0.70086  1.0000
  C   C2276     1.0  0.79897  0.99071  0.81346  1.0000
  N   N228      1.0  0.74583  0.92921  0.54665  1.0000
  H   H3641     1.0  0.75444  0.94964  0.56013  1.0000
  H   H3642     1.0  0.74494  0.85087  0.70143  1.0000
  C   C2277     1.0  0.74261  0.84217  0.68985  1.0000
  C   C2278     1.0  0.98166  0.93474  0.93632  1.0000
  H   H3643     1.0  0.85012  0.97659  0.81237  1.0000
  H   H3644     1.0  0.74883  0.98616  0.87166  1.0000
  H   H3645     1.0  0.76792  0.99021  0.84877  1.0000
  C   C2279     1.0  0.89880  0.74247  0.64770  1.0000
  H   H3646     1.0  0.98435  0.90882  0.96967  1.0000
  S   S910      1.0  0.98328  0.87624  0.95886  1.0000
  C   C2280     1.0  0.73664  0.81992  0.65967  1.0000
  H   H3647     1.0  0.98370  0.83035  0.71904  1.0000
  S   S911      1.0  0.75700  0.99122  0.69485  1.0000
  S   S912      1.0  0.98506  0.79284  0.73382  1.0000
  H   H3648     1.0  0.73514  0.93869  0.57929  1.0000
