data_image0
_chemical_formula_structural       FeS2FeS2FeSFeS3FeS2FeS2FeSFeS3FeS2FeS2FeSFeS3FeS2FeS2FeSFeS3FeS2FeS2FeSFeS3FeS2FeS2FeSFeS3FeS2FeS2FeSFeS3FeS2FeS2FeSFeS3FeS2FeS2FeSFeS3FeS2FeS2FeSFeS3FeS2FeS2FeSFeS3FeS2FeS2FeSFeS3FeS2FeS2FeSFeS3FeS2FeS2FeSFeS3FeS2FeS2FeSFeS3FeS2FeS2FeSFeS3FeS2FeS2FeSFeS3FeS2FeS2FeSFeS3C6H4C6H4C6H4C6H4C6H4C6H4C6H4C6H4C6H4C6H4C6H4C6H4C6H4C6H4C6H4C6H4C6H4C6H4C6H4C6H4C6H4C6H4C6H4C6H4C6H4C6H4C6H4C6H4C6H4C6H4C6H4C6H4C6H4C6H4C6H4C6H4NC4H12NC4H12NC4H12NC4H12NC4H12NC4H12NC4H12NC4H12NC4H12NC4H12NC4H12NC4H12NC4H12NC4H12NC4H12NC4H12NC4H12NC4H12NC4H12NC4H12NC4H12NC4H12NC4H12NC4H12NC4H12NC4H12NC4H12NC4H12NC4H12NC4H12NC4H12NC4H12NC4H12NC4H12NC4H12NC4H12
_chemical_formula_sum              "Fe72 S144 C360 H576 N36"
_cell_length_a       53.88940533148232
_cell_length_b       53.75116399783155
_cell_length_c       32.84655932710999
_cell_angle_alpha    89.27978303685956
_cell_angle_beta     91.04256185082912
_cell_angle_gamma    119.77427032876058

_space_group_name_H-M_alt    "P 1"
_space_group_IT_number       1

loop_
  _space_group_symop_operation_xyz
  'x, y, z'

loop_
  _atom_site_type_symbol
  _atom_site_label
  _atom_site_symmetry_multiplicity
  _atom_site_fract_x
  _atom_site_fract_y
  _atom_site_fract_z
  _atom_site_occupancy
  Fe  Fe1       1.0  0.664376663873799  0.10175843779233851  0.30200578719638277  1.0000
  S   S1        1.0  0.6584837319976946  0.13930045946498196  0.3171760434274609  1.0000
  S   S2        1.0  0.647411712134308  0.08455588781719339  0.23801759136778408  1.0000
  Fe  Fe2       1.0  0.6870877848649817  0.10186199493429594  0.388220812863359  1.0000
  S   S3        1.0  0.6820724690682353  0.1384021725542922  0.4094601469302116  1.0000
  S   S4        1.0  0.7029919496431695  0.07985711736264886  0.43153993231738236  1.0000
  Fe  Fe3       1.0  0.6401604856630966  0.11634009418684675  0.37579131060620197  1.0000
  S   S5        1.0  0.5985912973788651  0.10712546551002314  0.4040716521982019  1.0000
  Fe  Fe4       1.0  0.7011976200302379  0.1582585207376284  0.34909906202078217  1.0000
  S   S6        1.0  0.730463815137644  0.20647496186506817  0.34667255206583897  1.0000
  S   S7        1.0  0.6434003827313225  0.07776383641505467  0.35918472219066666  1.0000
  S   S8        1.0  0.7090633019864938  0.12286674626599908  0.3293208059723626  1.0000
  Fe  Fe5       1.0  0.945909072166818  0.37029996671986165  0.3013071857702469  1.0000
  S   S9        1.0  0.9025922946875728  0.3443819376044968  0.27182632556300523  1.0000
  S   S10       1.0  0.986812954622861  0.3987651747662793  0.2663601191509464  1.0000
  Fe  Fe6       1.0  0.9196995138304025  0.36747912893589996  0.3860004529030041  1.0000
  S   S11       1.0  0.8748367279627572  0.34216422387908296  0.36177848110931177  1.0000
  S   S12       1.0  0.923640762401949  0.3852530284883663  0.44941782840609806  1.0000
  Fe  Fe7       1.0  0.8911535828414324  0.3171690878740628  0.32859732096578964  1.0000
  S   S13       1.0  0.8650188481533494  0.26872895094078597  0.3262483470996792  1.0000
  Fe  Fe8       1.0  0.8899452034023949  0.37134988087395954  0.307795716488909  1.0000
  S   S14       1.0  0.8647386591725695  0.3900181868400477  0.2783093793323622  1.0000
  S   S15       1.0  0.9357625291287917  0.3408156776994478  0.3560974770237301  1.0000
  S   S16       1.0  0.93353178229978  0.39878636193465344  0.33420323005241975  1.0000
  Fe  Fe9       1.0  0.915043288968777  0.3422080052158236  0.6751440310656228  1.0000
  S   S17       1.0  0.8804462660102454  0.3539745288963092  0.6728806367983463  1.0000
  S   S18       1.0  0.9283696568035198  0.3285860995726807  0.61823228518202  1.0000
  Fe  Fe10      1.0  0.9224063064321374  0.34878704550755785  0.7685801825736976  1.0000
  S   S19       1.0  0.888397083624414  0.36118982250646775  0.7719508593277081  1.0000
  S   S20       1.0  0.937704026943553  0.34286969746321166  0.8313641726198846  1.0000
  Fe  Fe11      1.0  0.863309990623673  0.3252839298240632  0.7278673321520611  1.0000
  S   S21       1.0  0.8160254685327871  0.2961329266488974  0.7402452028712024  1.0000
  Fe  Fe12      1.0  0.9088501113795046  0.3882970450141732  0.7171945934359877  1.0000
  S   S22       1.0  0.9218383940048511  0.43506186481539394  0.7123183193012594  1.0000
  S   S23       1.0  0.8959816420311765  0.31110999112809046  0.7273766069290535  1.0000
  S   S24       1.0  0.9448577149113656  0.37849123578953187  0.7162464757587855  1.0000
  Fe  Fe13      1.0  0.6658848233474138  0.08241077022644731  0.6660631691645111  1.0000
  S   S25       1.0  0.6826263391446104  0.12947069917391732  0.6605443689881082  1.0000
  S   S26       1.0  0.6660967510904184  0.053895900690666736  0.6165302312807539  1.0000
  Fe  Fe14      1.0  0.650361529469697  0.08012675316523482  0.7567309143979344  1.0000
  S   S27       1.0  0.6666606423912212  0.12789137226462913  0.758121390425625  1.0000
  S   S28       1.0  0.6232581555947319  0.04663224744784809  0.8044820826640388  1.0000
  Fe  Fe15      1.0  0.6443759814709186  0.12103421580912581  0.6970701028005535  1.0000
  S   S29       1.0  0.6175929918182249  0.13984440518419528  0.6732317975703835  1.0000
  Fe  Fe16      1.0  0.703668203738612  0.13212269002073337  0.7212518081599771  1.0000
  S   S30       1.0  0.7519552528865179  0.16022700154755778  0.7255475432809646  1.0000
  S   S31       1.0  0.6258916159431113  0.07346319902885123  0.6976716979226039  1.0000
  S   S32       1.0  0.6889236845197241  0.08486723490048005  0.7247157869258971  1.0000
  Fe  Fe17      1.0  0.5806347583969896  0.7098529739918031  0.0531480288198513  1.0000
  S   S33       1.0  0.6131602896447739  0.698857087871319  0.030036343523172977  1.0000
  S   S34       1.0  0.5981548927925195  0.7573124875931961  0.0693729517669254  1.0000
  Fe  Fe18      1.0  0.5340826214687844  0.6461151407939881  0.053344701210289065  1.0000
  S   S35       1.0  0.563116475911923  0.6308829505196972  0.029760431726784674  1.0000
  S   S36       1.0  0.4884012965014076  0.6159568288639866  0.07255975782324817  1.0000
  Fe  Fe19      1.0  0.5951094447056178  0.662118398815724  0.07475312575456738  1.0000
  S   S37       1.0  0.6266014317028872  0.6526118139075188  0.10895903165108503  1.0000
  Fe  Fe20      1.0  0.5788207088275807  0.6686186371400971  0.9871414142241216  1.0000
  S   S38       1.0  0.5858198006101695  0.6683253562129471  0.9189730292043848  1.0000
  S   S39       1.0  0.5652419572275019  0.6751481542287129  0.10133254904700673  1.0000
  S   S40       1.0  0.5471025064454255  0.681760614432305  0.007294999021751014  1.0000
  Fe  Fe21      1.0  0.61140103575334  0.9618179221802443  0.0028702860083551496  1.0000
  S   S41       1.0  0.5699370130788113  0.9245339218802301  0.981441360775109  1.0000
  S   S42       1.0  0.6482820981225622  0.9976901292935675  0.9679475095211384  1.0000
  Fe  Fe22      1.0  0.5956547101228327  0.9489295173993749  0.09261861117934306  1.0000
  S   S43       1.0  0.5525175087049249  0.9103494770872442  0.07852479760159299  1.0000
  S   S44       1.0  0.6149679859125909  0.9647466179324455  0.15597923270613934  1.0000
  Fe  Fe23      1.0  0.5759027301971525  0.8987842149010585  0.0322718538173965  1.0000
  S   S45       1.0  0.5632595639030243  0.8519546907914226  0.017380816055064363  1.0000
  Fe  Fe24      1.0  0.5493082063358052  0.9379496568781465  0.028836316927277172  1.0000
  S   S46       1.0  0.5155103164302367  0.9497045683307367  0.010869506201121037  1.0000
  S   S47       1.0  0.6192119288771003  0.9354668775182805  0.049996995682693335  1.0000
  S   S48       1.0  0.5905222568989258  0.9770757513760129  0.04666480305087317  1.0000
  Fe  Fe25      1.0  0.10336717528972968  0.7016902825363932  0.01980415169539529  1.0000
  S   S49       1.0  0.056998603133821546  0.6874624363693311  0.03206473026999895  1.0000
  S   S50       1.0  0.14113707426208025  0.743817131389371  0.04341429777185131  1.0000
  Fe  Fe26      1.0  0.08869150012790433  0.6431776611727923  0.98755044641123  1.0000
  S   S51       1.0  0.04164741520324246  0.62413950202847  0.9965890077220224  1.0000
  S   S52       1.0  0.1099933833556161  0.6191677925244549  0.9636972259730654  1.0000
  Fe  Fe27      1.0  0.04731289921937194  0.6654195225310918  0.9709158486027897  1.0000
  S   S53       1.0  0.009142282672913492  0.6626551749201994  0.935710283789644  1.0000
  Fe  Fe28      1.0  0.05317845395836936  0.6466802902080345  0.05692421543678103  1.0000
  S   S54       1.0  0.026073121049698576  0.6182019234388718  0.10890857694582384  1.0000
  S   S55       1.0  0.0939992960507185  0.6831829104555406  0.9564075522375376  1.0000
  S   S56       1.0  0.10005747038950105  0.6622032052751254  0.049898072281911995  1.0000
  Fe  Fe29      1.0  0.3251999570406692  0.929767201549534  0.05564963975914433  1.0000
  S   S57       1.0  0.31213939059986073  0.882911999087616  0.05511777624669566  1.0000
  S   S58       1.0  0.3195298099221735  0.9519951406872128  0.1103069201974326  1.0000
  Fe  Fe30      1.0  0.3481186491824397  0.9402798623546772  0.9691227488443928  1.0000
  S   S59       1.0  0.3376254888829562  0.8944153030592329  0.9615176350215806  1.0000
  S   S60       1.0  0.3772898131307154  0.980296156344285  0.9322866125109903  1.0000
  Fe  Fe31      1.0  0.2954889788914516  0.8822580824302767  0.991668111132844  1.0000
  S   S61       1.0  0.2546006816335973  0.8454601369753783  0.9632558036658888  1.0000
  Fe  Fe32      1.0  0.3545793240392708  0.897679099782577  0.02533674204156772  1.0000
  S   S62       1.0  0.3827804186140747  0.8803011727993827  0.04898410686572648  1.0000
  S   S63       1.0  0.30504565233337644  0.9283067408013561  0.9943889665845383  1.0000
  S   S64       1.0  0.3685141062695971  0.9441253943308653  0.030903264451887357  1.0000
  Fe  Fe33      1.0  0.3693553777046779  0.4640671074722474  2.90965680262989e-05  1.0000
  S   S65       1.0  0.3813907073621236  0.4325703167253091  0.02560614352965063  1.0000
  S   S66       1.0  0.4064606371693892  0.5034869882529309  0.9720744643203718  1.0000
  Fe  Fe34      1.0  0.3045807705814867  0.4229378966542737  0.011407401403863426  1.0000
  S   S67       1.0  0.313066054965625  0.38896200751660504  0.03850421908349894  1.0000
  S   S68       1.0  0.2571161374263154  0.4074279583861021  0.9956076232827166  1.0000
  Fe  Fe35      1.0  0.3491473035230215  0.42448758524458474  0.07351612393224899  1.0000
  S   S69       1.0  0.3604079893536661  0.4247700488831958  0.14078520247332552  1.0000
  Fe  Fe36      1.0  0.34474626537852804  0.3999455663480295  0.9881025801771873  1.0000
  S   S70       1.0  0.3483588478189195  0.36456588304911053  0.9560237543295643  1.0000
  S   S71       1.0  0.338912939084067  0.45826935283628617  0.05025389665513568  1.0000
  S   S72       1.0  0.3346040199874365  0.4317819323832931  0.9589941033027518  1.0000
  Fe  Fe37      1.0  0.08478701916840407  0.46756189149672056  0.03805472621729877  1.0000
  S   S73       1.0  0.04545734196523973  0.4268791730779954  0.01932359834052133  1.0000
  S   S74       1.0  0.0762234106530841  0.5027890046892842  0.05728576342330349  1.0000
  Fe  Fe38      1.0  0.12365863444003086  0.44034495452155803  0.03231593621437101  1.0000
  S   S75       1.0  0.086701107653396  0.3978355194837106  0.013062147946170555  1.0000
  S   S76       1.0  0.1701557085522648  0.4512465452410619  0.04454077616482133  1.0000
  Fe  Fe39      1.0  0.07346000940427978  0.42362405370866085  0.9726243316706394  1.0000
  S   S77       1.0  0.06382112057634504  0.41860933701482805  0.9046979262896019  1.0000
  Fe  Fe40      1.0  0.061973347482229234  0.4053071344184336  0.06187816965472775  1.0000
  S   S78       1.0  0.033554190056779065  0.3704471709485799  0.10642566681134576  1.0000
  S   S79       1.0  0.11210390177222862  0.4659738268707756  0.9887365710253662  1.0000
  S   S80       1.0  0.09963037834053809  0.44611326496315584  0.08361549119493847  1.0000
  Fe  Fe41      1.0  0.9055102475675356  0.5476816267523861  0.3256175308839165  1.0000
  S   S81       1.0  0.9387620085794449  0.5937007277972128  0.33570781839813846  1.0000
  S   S82       1.0  0.9210693281452978  0.5168833820265614  0.34144617934265103  1.0000
  Fe  Fe42      1.0  0.8588047573761061  0.5622040461244561  0.30611934674595737  1.0000
  S   S83       1.0  0.8885387784077314  0.6091758102530868  0.31430313295389006  1.0000
  S   S84       1.0  0.811073312567517  0.542642644176371  0.29498296056697954  1.0000
  Fe  Fe43      1.0  0.9201774436930975  0.6022951027440157  0.2792056163427717  1.0000
  S   S85       1.0  0.9487153747022334  0.6374365313640119  0.2348653580976603  1.0000
  Fe  Fe44      1.0  0.9046750457055189  0.5965557006505872  0.3697165234950825  1.0000
  S   S86       1.0  0.9123207138670626  0.6217120821108536  0.4277974229491468  1.0000
  S   S87       1.0  0.8890424542485105  0.5558077272310242  0.26636308043566687  1.0000
  S   S88       1.0  0.8727752066822904  0.5499157384320852  0.36420482900958623  1.0000
  Fe  Fe45      1.0  0.6476727470165612  0.5970375384138695  0.3236209978741322  1.0000
  S   S89       1.0  0.6705217488337215  0.5794837292495544  0.2876945243438562  1.0000
  S   S90       1.0  0.6260477303878551  0.6208723497212727  0.2964319027126523  1.0000
  Fe  Fe46      1.0  0.6497188500831174  0.5659964579741087  0.40264467727163394  1.0000
  S   S91       1.0  0.6723994069690435  0.5458562868793593  0.37186578254051417  1.0000
  S   S92       1.0  0.6329026417664125  0.5495529907375487  0.4661419561250777  1.0000
  Fe  Fe47      1.0  0.6989910840101975  0.5891054807850489  0.34311957305937113  1.0000
  S   S93       1.0  0.7473738579959524  0.6110782688003499  0.33989889553669267  1.0000
  Fe  Fe48      1.0  0.6420328399895358  0.5378663961670733  0.3196306614424194  1.0000
  S   S94       1.0  0.6184896549616219  0.4966946042044774  0.2839276268410241  1.0000
  S   S95       1.0  0.6783376626766658  0.610188631286353  0.3774189987211969  1.0000
  S   S96       1.0  0.6173039339350421  0.5546667989987036  0.35205942048523703  1.0000
  Fe  Fe49      1.0  0.43211191814022915  0.07754597611857038  0.359079715721976  1.0000
  S   S97       1.0  0.4543780736997421  0.12543966316065672  0.3602892997213702  1.0000
  S   S98       1.0  0.421443910343684  0.051096102030010124  0.41717944472366986  1.0000
  Fe  Fe50      1.0  0.4292693194963495  0.07529276089931682  0.26522176603642633  1.0000
  S   S99       1.0  0.4509639314507228  0.12351223740904886  0.26024956803832505  1.0000
  S   S100      1.0  0.42546722145173754  0.05120508931122004  0.20661684554351809  1.0000
  Fe  Fe51      1.0  0.4803292369087185  0.12344753795867054  0.3094210539728472  1.0000
  S   S101      1.0  0.5277269658648057  0.1534441650924229  0.3059356766581126  1.0000
  Fe  Fe52      1.0  0.4228824134774912  0.12102821958985602  0.31152243494746296  1.0000
  S   S102      1.0  0.4002788964809723  0.1463713845569694  0.3216224856345403  1.0000
  S   S103      1.0  0.460779941750784  0.07578746478517662  0.31166975457194884  1.0000
  S   S104      1.0  0.3984403185693297  0.07264908578222175  0.3130272177202289  1.0000
  Fe  Fe53      1.0  0.46907600376912545  0.36967702447206174  0.3421995750739192  1.0000
  S   S105      1.0  0.42399103250948345  0.36178223293530065  0.3432944704845342  1.0000
  S   S106      1.0  0.5028742484489199  0.41075602422894353  0.3710016949464189  1.0000
  Fe  Fe54      1.0  0.45032306962495017  0.30931814864613066  0.31110161640860035  1.0000
  S   S107      1.0  0.404105453177564  0.2970164090711581  0.31188609630736425  1.0000
  S   S108      1.0  0.4649817693664714  0.2800491201864726  0.28444011640579164  1.0000
  Fe  Fe55      1.0  0.4184444647750872  0.3402246337933985  0.28269313419768566  1.0000
  S   S109      1.0  0.39753638504286715  0.33917700424571856  0.2211103550613323  1.0000
  Fe  Fe56      1.0  0.4145163105260987  0.3198399672634202  0.37216522072011915  1.0000
  S   S110      1.0  0.3870854320763505  0.3018515683401225  0.4282912682244016  1.0000
  S   S111      1.0  0.46459601144033413  0.3516454732117646  0.2796224853626437  1.0000
  S   S112      1.0  0.45974396262326656  0.32860300634767675  0.37356526315141414  1.0000
  Fe  Fe57      1.0  0.8615850604295454  0.5832363886691189  0.7153749416406875  1.0000
  S   S113      1.0  0.903926229899596  0.6058298754504514  0.6830213884450783  1.0000
  S   S114      1.0  0.8356188860712359  0.6051912410258642  0.7253217638057406  1.0000
  Fe  Fe58      1.0  0.8657365265060272  0.5302882713970555  0.7327832416831358  1.0000
  S   S115      1.0  0.9077098805063759  0.5482236316472416  0.7017801452640936  1.0000
  S   S116      1.0  0.843095992739016  0.4854859389575671  0.7587796883725951  1.0000
  Fe  Fe59      1.0  0.9197792558833012  0.5890671226338856  0.7347486344508195  1.0000
  S   S117      1.0  0.9656793578328048  0.6101648162867214  0.7585263383278358  1.0000
  Fe  Fe60      1.0  0.8887467384282209  0.5632192554763757  0.6529551933812846  1.0000
  S   S118      1.0  0.8965594179065848  0.5507532578323239  0.5908323131932789  1.0000
  S   S119      1.0  0.8787633283577726  0.569934210618541  0.7694286001474375  1.0000
  S   S120      1.0  0.8453516434111682  0.5419138092046271  0.681426965055391  1.0000
  Fe  Fe61      1.0  0.6562829516524419  0.5967717957435226  0.7865304679438355  1.0000
  S   S121      1.0  0.6418661130971616  0.5497870139551507  0.7936396510939097  1.0000
  S   S122      1.0  0.6629109805336657  0.6202745873800156  0.8465469705486589  1.0000
  Fe  Fe62      1.0  0.656800981494363  0.5934159897456516  0.6929661319193545  1.0000
  S   S123      1.0  0.641612814094527  0.5463649233129024  0.6941151923341301  1.0000
  S   S124      1.0  0.668124125080917  0.6184095376646374  0.6332957457102528  1.0000
  Fe  Fe63      1.0  0.6115736515659068  0.5439369522388791  0.7422895664287453  1.0000
  S   S125      1.0  0.5639293437671531  0.5137383123296736  0.7416667600406849  1.0000
  Fe  Fe64      1.0  0.6737236620429152  0.5569822900958877  0.7450050291995334  1.0000
  S   S126      1.0  0.7006362428809872  0.5352500248208387  0.7421404386616174  1.0000
  S   S127      1.0  0.6241886999531465  0.5904926087488825  0.7375744922287145  1.0000
  S   S128      1.0  0.6907432232496487  0.6044105202696729  0.7416550547936711  1.0000
  Fe  Fe65      1.0  0.44134604986796666  0.13220220418586118  0.7240013110891227  1.0000
  S   S129      1.0  0.3974644497205607  0.10470513008958274  0.6972899445965097  1.0000
  S   S130      1.0  0.461834774971068  0.17841624965820338  0.7451059320475768  1.0000
  Fe  Fe66      1.0  0.45790649867707645  0.0861281036441457  0.7105867077167359  1.0000
  S   S131      1.0  0.415736542522397  0.05584686207422329  0.6810920715583338  1.0000
  S   S132      1.0  0.4885885799285259  0.07062303330978745  0.7279530529502748  1.0000
  Fe  Fe67      1.0  0.4202596772496397  0.09494971758334883  0.6485277652696056  1.0000
  S   S133      1.0  0.41222947587804004  0.10361673752171685  0.5832426536884799  1.0000
  Fe  Fe68      1.0  0.39721124537836505  0.06825249340267345  0.7327142952477498  1.0000
  S   S134      1.0  0.359549019929579  0.032444642259925556  0.7663311238677121  1.0000
  S   S135      1.0  0.46425620187529765  0.12417359908997126  0.6738961219653306  1.0000
  S   S136      1.0  0.4392309718301451  0.09669615719386179  0.7635558657269615  1.0000
  Fe  Fe69      1.0  0.40127837225445434  0.3430802031476403  0.7419665605705307  1.0000
  S   S137      1.0  0.4230700624863176  0.32320868685427245  0.7775117203994844  1.0000
  S   S138      1.0  0.3751147433769831  0.3616255387548227  0.768477482306143  1.0000
  Fe  Fe70      1.0  0.43131362211675606  0.34379210109985525  0.6616720652996702  1.0000
  S   S139      1.0  0.45540390030031486  0.32450984718244574  0.6924492566223931  1.0000
  S   S140      1.0  0.445704549368274  0.3595108847465353  0.5971555265902407  1.0000
  Fe  Fe71      1.0  0.4138716712257883  0.29503401278365526  0.7225594010180072  1.0000
  S   S141      1.0  0.3940521510239195  0.2466305919690375  0.7209988221692499  1.0000
  Fe  Fe72      1.0  0.4625379036979073  0.35463719884573114  0.7436593960522581  1.0000
  S   S142      1.0  0.5051994988207572  0.38073403795498756  0.7761582115859933  1.0000
  S   S143      1.0  0.38895444105853644  0.31269405674493284  0.6888505578767818  1.0000
  S   S144      1.0  0.4411788706082106  0.37592280823266183  0.7111427282055269  1.0000
  C   C1        1.0  0.41371042228727656  0.22847961236870978  0.7271056861011876  1.0000
  C   C2        1.0  0.39979402338383097  0.19885923629933305  0.7199278484942783  1.0000
  C   C3        1.0  0.41446129285627126  0.1834520275325601  0.7246956629338771  1.0000
  C   C4        1.0  0.44316563930038383  0.19748499495618754  0.7371162264784119  1.0000
  C   C5        1.0  0.45721415309135405  0.22720774161143326  0.7439711334451877  1.0000
  C   C6        1.0  0.44260563797762514  0.2427240450776083  0.7387171423774404  1.0000
  H   H1        1.0  0.3774288200163982  0.18766048498253568  0.7110664749667377  1.0000
  H   H2        1.0  0.40333087535991907  0.16060434451563252  0.7195654305216008  1.0000
  H   H3        1.0  0.4793979019036518  0.23825227081939984  0.7536816831228561  1.0000
  H   H4        1.0  0.4535287433274434  0.2655450956085085  0.7444134276425  1.0000
  C   C7        1.0  0.5242796975322808  0.417424943190902  0.763041540499054  1.0000
  C   C8        1.0  0.5480636316279319  0.43657729245054333  0.7865466910199134  1.0000
  C   C9        1.0  0.5616368018808916  0.46627442207746855  0.7787542391258233  1.0000
  C   C10       1.0  0.5510514752676458  0.47683175723299587  0.7479011599389562  1.0000
  C   C11       1.0  0.5276860605111918  0.45765670809472925  0.7240732013609616  1.0000
  C   C12       1.0  0.514829950807016  0.4280798156103329  0.7309880868634974  1.0000
  H   H5        1.0  0.5557040915550079  0.4284716790015742  0.8111705455643357  1.0000
  H   H6        1.0  0.579661089690327  0.48098869818240686  0.797365782538947  1.0000
  H   H7        1.0  0.5195925290034668  0.465688356098789  0.6999231725033858  1.0000
  H   H8        1.0  0.49771590193495735  0.4136138055618768  0.7112514081087358  1.0000
  C   C13       1.0  0.7979945617377939  0.5858143525612827  0.7280911613670585  1.0000
  C   C14       1.0  0.7822088960186061  0.5573371327368363  0.7152274658192196  1.0000
  C   C15       1.0  0.7523061864976631  0.5421410925926324  0.719424211331877  1.0000
  C   C16       1.0  0.7379817694111398  0.5553856768554606  0.7360448759851193  1.0000
  C   C17       1.0  0.7537035888126971  0.5840239357173731  0.7481176202175849  1.0000
  C   C18       1.0  0.7836035598723781  0.5991933630956656  0.7440357537544164  1.0000
  H   H9        1.0  0.7930308955639909  0.5470235671365152  0.7021750906883313  1.0000
  H   H10       1.0  0.7401536294208002  0.5200557895005442  0.7096262131465217  1.0000
  H   H11       1.0  0.74290417853809  0.5943163044933198  0.7614387212788913  1.0000
  H   H12       1.0  0.7956969276700636  0.6212416748163382  0.7540487371856963  1.0000
  C   C19       1.0  0.4032678009390974  0.3172929396801641  0.4755889969699215  1.0000
  C   C20       1.0  0.43273894484779607  0.33592667821526795  0.4788176519919131  1.0000
  C   C21       1.0  0.4453223046344696  0.34787938353371256  0.5166064106024622  1.0000
  C   C22       1.0  0.42860080449475974  0.3419394375595185  0.5514155518129701  1.0000
  C   C23       1.0  0.39908359787524306  0.32325672372792774  0.5484225485318404  1.0000
  C   C24       1.0  0.38651580533340096  0.31071193156941534  0.5106579886250983  1.0000
  H   H13       1.0  0.4458728003468255  0.34115187890475335  0.45217642913810735  1.0000
  H   H14       1.0  0.4681764005536095  0.3618690641464731  0.5188988204828697  1.0000
  H   H15       1.0  0.38586764790922196  0.31903273942186755  0.5748712279384239  1.0000
  H   H16       1.0  0.3636531922146889  0.29648079206181  0.5083205216659153  1.0000
  C   C25       1.0  0.4245230070613349  0.0671917766317788  0.46511981526173096  1.0000
  C   C26       1.0  0.43265339892653215  0.09617271606052151  0.46813474671905386  1.0000
  C   C27       1.0  0.4300743593539104  0.10737296064383459  0.505181486141565  1.0000
  C   C28       1.0  0.4204178333165211  0.09002442593589736  0.5400595559532139  1.0000
  C   C29       1.0  0.4139543427556623  0.06143718380630897  0.5378565113597503  1.0000
  C   C30       1.0  0.415808283718172  0.050012576658893686  0.5003650120019726  1.0000
  H   H17       1.0  0.4398739675333267  0.1097924077486397  0.44165092172753195  1.0000
  H   H18       1.0  0.4350461496534836  0.12947771572615643  0.5066811912291639  1.0000
  H   H19       1.0  0.4061122748369575  0.04778137456362565  0.5644667028406395  1.0000
  H   H20       1.0  0.40948909089729174  0.027550465557902637  0.498374271355351  1.0000
  C   C31       1.0  0.41824635071456007  0.1834595728903252  0.310834306978206  1.0000
  C   C32       1.0  0.4097942042539582  0.20115130285929242  0.33020379545796363  1.0000
  C   C33       1.0  0.4239995516129673  0.2308561111719708  0.3225666454888929  1.0000
  C   C34       1.0  0.44651110663458426  0.2429596572198082  0.2950359643068229  1.0000
  C   C35       1.0  0.45448980423409663  0.22517311639977408  0.2749124486686906  1.0000
  C   C36       1.0  0.4405958747841517  0.19554902842110278  0.2830310240784259  1.0000
  H   H21       1.0  0.3923615137425839  0.1919053290071726  0.3515168324261273  1.0000
  H   H22       1.0  0.4175585972220704  0.24436455143320435  0.3380457964392254  1.0000
  H   H23       1.0  0.47150218466672944  0.23438222112362347  0.2529374622293456  1.0000
  H   H24       1.0  0.4468567015203876  0.18198962560375426  0.267342168650547  1.0000
  C   C37       1.0  0.6428105313653166  0.5696324145694547  0.5117193225140849  1.0000
  C   C38       1.0  0.6608316241520648  0.5993910424744606  0.512308190048074  1.0000
  C   C39       1.0  0.6678239124600377  0.6142799033274089  0.5496064144773422  1.0000
  C   C40       1.0  0.6572080321573129  0.5995002593319975  0.58654055148  1.0000
  C   C41       1.0  0.6391153325779075  0.5698129360009169  0.5857296155406643  1.0000
  C   C42       1.0  0.6319504008430761  0.5550075373093201  0.5485673491303363  1.0000
  H   H25       1.0  0.6691207940267987  0.6109067891828365  0.48404109351568547  1.0000
  H   H26       1.0  0.6816572637878712  0.6372952077830075  0.5498339782402015  1.0000
  H   H27       1.0  0.6302723519935854  0.5581948784706786  0.6136192772343605  1.0000
  H   H28       1.0  0.61782836076534  0.5320379373329337  0.5483537796469835  1.0000
  C   C43       1.0  0.5867350585695489  0.4718718243103731  0.3081078418856846  1.0000
  C   C44       1.0  0.5818849707176864  0.4764689283662724  0.34820153047767405  1.0000
  C   C45       1.0  0.556143610343884  0.45741567118015264  0.36702775325088804  1.0000
  C   C46       1.0  0.5350561017574955  0.433492774093325  0.34603295213590207  1.0000
  C   C47       1.0  0.5399681219042238  0.4285301424447625  0.3060251457685442  1.0000
  C   C48       1.0  0.5658490736013541  0.44774140836695997  0.2870705381243992  1.0000
  H   H29       1.0  0.5981354202112681  0.4945516777094144  0.365042100612341  1.0000
  H   H30       1.0  0.5527705445611517  0.46130891956686476  0.39805479012826245  1.0000
  H   H31       1.0  0.5238418284428352  0.41003200898728764  0.2897207644667082  1.0000
  H   H32       1.0  0.569628853374511  0.44395072029459265  0.25614145706968605  1.0000
  C   C49       1.0  0.9072984430681401  0.6018382958346147  0.4731569782077424  1.0000
  C   C50       1.0  0.9056662379202907  0.6132019951996285  0.5106638395451639  1.0000
  C   C51       1.0  0.9018884643648141  0.5976271030247409  0.5470838574226844  1.0000
  C   C52       1.0  0.8999807007168331  0.5707095682569397  0.5460928622111321  1.0000
  C   C53       1.0  0.9015496585408648  0.5593935914563677  0.5085877888818252  1.0000
  C   C54       1.0  0.9050586988841166  0.5748059213535036  0.472267347155148  1.0000
  H   H33       1.0  0.9073951232612152  0.6341224709913431  0.511577322513099  1.0000
  H   H34       1.0  0.9007409139003849  0.6065621532662433  0.5758586493593894  1.0000
  H   H35       1.0  0.9002292242894312  0.5386598047187866  0.5075168201801674  1.0000
  H   H36       1.0  0.9066186089610161  0.5659556034733483  0.44365425370171063  1.0000
  C   C55       1.0  0.7934063476867713  0.5624427443869459  0.3031795656437965  1.0000
  C   C56       1.0  0.7634261255576973  0.5479465487827372  0.30527727662662774  1.0000
  C   C57       1.0  0.7489233313760616  0.5626647990836964  0.3157108427230257  1.0000
  C   C58       1.0  0.7643507058651908  0.5920605306190925  0.3238635048963778  1.0000
  C   C59       1.0  0.7942401421513777  0.6066768774573762  0.3206208444636126  1.0000
  C   C60       1.0  0.8086981037935939  0.5919879070804369  0.31009105207487525  1.0000
  H   H37       1.0  0.7513790519812936  0.5251203109042613  0.29965784579127575  1.0000
  H   H38       1.0  0.7258589031226854  0.5512198735921039  0.3178862434819214  1.0000
  H   H39       1.0  0.806248399127742  0.629474168224849  0.32643987516439665  1.0000
  H   H40       1.0  0.8316836061872033  0.6035189244813035  0.3077463848788315  1.0000
  C   C61       1.0  0.3573927617832645  0.36530214768646235  0.9042234816280347  1.0000
  C   C62       1.0  0.3563117646809125  0.3845856316342984  0.8762209168732741  1.0000
  C   C63       1.0  0.36152013481340045  0.38297288466862267  0.8347137349181262  1.0000
  C   C64       1.0  0.36869829578140334  0.3626968059008013  0.8209765304715835  1.0000
  C   C65       1.0  0.37051677839694713  0.3439291623469746  0.8491526817546188  1.0000
  C   C66       1.0  0.3645399234808979  0.34502343856085643  0.8904677153654443  1.0000
  H   H41       1.0  0.35112379214767403  0.4005071072919507  0.886342877990019  1.0000
  H   H42       1.0  0.3601345398526503  0.39762500342758356  0.8131174625809546  1.0000
  H   H43       1.0  0.3758440863764789  0.32810130619432465  0.8389574842907904  1.0000
  H   H44       1.0  0.36532988940468897  0.3299446386751567  0.9118655738894855  1.0000
  C   C67       1.0  0.3713844723735055  0.4012897676903764  0.16248052779798622  1.0000
  C   C68       1.0  0.38025522394788974  0.40460580265477075  0.2035913041807182  1.0000
  C   C69       1.0  0.38890069257567833  0.3861931258842642  0.22192821098009158  1.0000
  C   C70       1.0  0.3884092214296414  0.36404447246780003  0.19936898126862893  1.0000
  C   C71       1.0  0.37967443060243744  0.36085685352455305  0.1582211630580971  1.0000
  C   C72       1.0  0.3713886601909017  0.379471486312936  0.13976517398674002  1.0000
  H   H45       1.0  0.3801162029503016  0.4212645014164796  0.22154308165687936  1.0000
  H   H46       1.0  0.3953745588230503  0.3887606972012301  0.25367523348543486  1.0000
  H   H47       1.0  0.3791709241723048  0.3437888815175803  0.14050412692341915  1.0000
  H   H48       1.0  0.36461242311783515  0.3766605315532709  0.10813871511745768  1.0000
  C   C73       1.0  0.19361550810780606  0.43801600773739646  0.03150145753731226  1.0000
  C   C74       1.0  0.22269922493696284  0.45398744074988767  0.04294550902046268  1.0000
  C   C75       1.0  0.24233371642335536  0.444904213098229  0.03269694738925333  1.0000
  C   C76       1.0  0.23320492681097904  0.41966448507106113  0.010587358590939957  1.0000
  C   C77       1.0  0.20406248423551326  0.4036194207775048  0.9992080787786901  1.0000
  C   C78       1.0  0.18436512452452258  0.41256564095870546  0.009791209879336238  1.0000
  H   H49       1.0  0.2302251408642858  0.4736855064605369  0.05978698789618275  1.0000
  H   H50       1.0  0.2645971318789653  0.4575721534419244  0.041703619543788095  1.0000
  H   H51       1.0  0.196633531139637  0.38395235665847255  0.9823790005240376  1.0000
  H   H52       1.0  0.1620617421825448  0.3996487252112609  0.0013891417568783206  1.0000
  C   C79       1.0  0.3708848117167447  0.9945028022312349  0.8869716265901916  1.0000
  C   C80       1.0  0.3927846174340923  0.020946668080484176  0.8726482548221445  1.0000
  C   C81       1.0  0.38934394626091984  0.032992850477132483  0.8362070033185414  1.0000
  C   C82       1.0  0.36383368018412743  0.018802519690321828  0.8137383012342138  1.0000
  C   C83       1.0  0.3415681635039073  0.9926826590211347  0.8286260761039229  1.0000
  C   C84       1.0  0.34508274308003517  0.9804846023921501  0.865055807681069  1.0000
  H   H53       1.0  0.4127067894175184  0.032094813356501994  0.8896457103590165  1.0000
  H   H54       1.0  0.4064660129751183  0.053265599939228345  0.8255196581625882  1.0000
  H   H55       1.0  0.32168258471072836  0.9815840070153868  0.811514724025226  1.0000
  H   H56       1.0  0.32797785603089424  0.9601510926165668  0.8758508555592598  1.0000
  C   C85       1.0  0.3488521484371967  0.980109374464487  0.13660695442217555  1.0000
  C   C86       1.0  0.37634930216185125  0.9933721194631154  0.12057870625519616  1.0000
  C   C87       1.0  0.3993973350391825  0.015261812649097446  0.1423587578197503  1.0000
  C   C88       1.0  0.39523618112621983  0.02431626779950405  0.18031056537888535  1.0000
  C   C89       1.0  0.3676582467012417  0.011381464262252283  0.19618524667210513  1.0000
  C   C90       1.0  0.34455142831650093  0.9893690345742612  0.17432534961073848  1.0000
  H   H57       1.0  0.379904496970805  0.9868596509332452  0.09136531475919892  1.0000
  H   H58       1.0  0.42065086246338074  0.02528846543471449  0.12978256569121643  1.0000
  H   H59       1.0  0.3641845273670984  0.01817012558644504  0.22537302257540898  1.0000
  H   H60       1.0  0.32329382189174005  0.9793097770877799  0.1868900056858324  1.0000
  C   C91       1.0  0.10092028294577017  0.5868939340228408  0.9896828842018102  1.0000
  C   C92       1.0  0.08244119474265287  0.5781607704171728  0.022715661291036637  1.0000
  C   C93       1.0  0.07543443416657376  0.5524984812345128  0.043295769659709826  1.0000
  C   C94       1.0  0.08673311073619211  0.5352847256788495  0.031021792727092157  1.0000
  C   C95       1.0  0.10528602150249507  0.5439693857905497  0.9979772359033003  1.0000
  C   C96       1.0  0.11231396541587953  0.5697240604019917  0.9773014669636676  1.0000
  H   H61       1.0  0.07363705025102514  0.5912660486275183  0.0326585399441639  1.0000
  H   H62       1.0  0.06115750611256786  0.5459816317065852  0.06892764228770298  1.0000
  H   H63       1.0  0.1144402347258467  0.5310563732838898  0.9886933241520487  1.0000
  H   H64       1.0  0.12677516673055397  0.5765051570735357  0.9519002630445226  1.0000
  C   C97       1.0  0.9967582436007842  0.6462943020787827  0.8874199541704101  1.0000
  C   C98       1.0  0.013622011742563717  0.6400011841631926  0.8623849755016479  1.0000
  C   C99       1.0  0.003642573554567763  0.6286074777257326  0.8231980354037437  1.0000
  C   C100      1.0  0.9765107553945045  0.6228219052354566  0.8090001670231327  1.0000
  C   C101      1.0  0.959319009755437  0.6283648522795284  0.8344831637670365  1.0000
  C   C102      1.0  0.9695398503874001  0.640310724650176  0.8733349140903259  1.0000
  H   H65       1.0  0.03465317603988349  0.6446387575702447  0.8727724908902649  1.0000
  H   H66       1.0  0.01714539824079253  0.6244897772846061  0.8036999100948116  1.0000
  H   H67       1.0  0.938529335738083  0.6242807305483329  0.8238026926183346  1.0000
  H   H68       1.0  0.9564450514043198  0.6453385293524955  0.8923088281838365  1.0000
  C   C103      1.0  0.006000676859815596  0.6247887524876322  0.14502476010747953  1.0000
  C   C104      1.0  0.007322864282943729  0.6513669966787058  0.14817472694816466  1.0000
  C   C105      1.0  0.9896414610264722  0.654957978769098  0.17579806509628843  1.0000
  C   C106      1.0  0.9708095064079809  0.6321799772086086  0.20086069517069463  1.0000
  C   C107      1.0  0.9698108019619247  0.6057679616498981  0.19814340735946148  1.0000
  C   C108      1.0  0.9873086779796093  0.60212075328237  0.17032498255433443  1.0000
  H   H69       1.0  0.022034034923021473  0.6691777229138013  0.12950009867206666  1.0000
  H   H70       1.0  0.9906779003569035  0.6755215215459605  0.17788799071579423  1.0000
  H   H71       1.0  0.9554546920386129  0.5880938243301148  0.21733581422396164  1.0000
  H   H72       1.0  0.986218447259717  0.5815278013651772  0.16820712442937336  1.0000
  C   C109      1.0  0.17230486659501706  0.7719955200243832  0.020159774009697266  1.0000
  C   C110      1.0  0.19411980624770606  0.7926861561856342  0.04520171136933954  1.0000
  C   C111      1.0  0.21947543464084832  0.8151170992100666  0.028474864166064175  1.0000
  C   C112      1.0  0.22331775419171188  0.8172936161338236  0.9862949696192697  1.0000
  C   C113      1.0  0.20155281256236046  0.7964932708833977  0.961251083121764  1.0000
  C   C114      1.0  0.1762356387868954  0.773986624652554  0.9779938207899026  1.0000
  H   H73       1.0  0.19136616167827372  0.7914286454612148  0.07785044622154401  1.0000
  H   H74       1.0  0.23590957041383953  0.8309030654861167  0.04818880948322488  1.0000
  H   H75       1.0  0.20417828979593403  0.7980467710128553  0.9285749536569748  1.0000
  H   H76       1.0  0.15958325390156503  0.7585427193514701  0.9582100089863607  1.0000
  C   C115      1.0  0.4786732684469373  0.9295369847221548  0.02153571347112493  1.0000
  C   C116      1.0  0.4605755321950564  0.9394125498945333  0.00630385706882719  1.0000
  C   C117      1.0  0.4311126569794472  0.9242482434936151  0.014064749590805725  1.0000
  C   C118      1.0  0.41952468823307965  0.8991150001906737  0.03734563931836891  1.0000
  C   C119      1.0  0.4376145748863202  0.889296126084363  0.0528426862624576  1.0000
  C   C120      1.0  0.46713474109539466  0.9044202834123  0.04488861050836585  1.0000
  H   H77       1.0  0.4693344374856776  0.9587866129300502  0.9881545648956183  1.0000
  H   H78       1.0  0.4173617261334639  0.9319417810627542  0.0018677079405629016  1.0000
  H   H79       1.0  0.42876436894720066  0.8698275532117519  0.07083139332270079  1.0000
  H   H80       1.0  0.4809028927137809  0.8966177870216423  0.05669409828858956  1.0000
  C   C121      1.0  0.4656309690861585  0.585413296749085  0.043282942052379064  1.0000
  C   C122      1.0  0.4756646803244341  0.5775189891222635  0.009646160303188102  1.0000
  C   C123      1.0  0.4572361678282507  0.5524168732329054  0.9879777587578792  1.0000
  C   C124      1.0  0.4288276687361824  0.5347979613460583  0.00013826732489463645  1.0000
  C   C125      1.0  0.4187282461755678  0.5427607829982611  0.03361476582606793  1.0000
  C   C126      1.0  0.43702498160064995  0.5681086576707101  0.05490997253886776  1.0000
  H   H81       1.0  0.49758942141624796  0.5907766243685262  0.0002889716207783444  1.0000
  H   H82       1.0  0.465064593365715  0.5465461367771166  0.9617910679309136  1.0000
  H   H83       1.0  0.39664731355608335  0.529722935384564  0.04243108789160965  1.0000
  H   H84       1.0  0.4290417683478135  0.5743482949419721  0.08055695169664934  1.0000
  C   C127      1.0  0.6076386531877856  0.6552993457048749  0.8992671363996555  1.0000
  C   C128      1.0  0.6224107605277271  0.6459655002795953  0.9249033636511641  1.0000
  C   C129      1.0  0.6393505705025947  0.6354814687304043  0.9082385037314863  1.0000
  C   C130      1.0  0.6413874845920206  0.6337863683156002  0.8658548439850245  1.0000
  C   C131      1.0  0.6266820545510412  0.6432035099601735  0.8401869654898507  1.0000
  C   C132      1.0  0.6099403217302464  0.6539630855344641  0.8568371229513186  1.0000
  H   H85       1.0  0.6209707087819235  0.6469935213837376  0.9576019223765442  1.0000
  H   H86       1.0  0.6509162616007625  0.6285752788507599  0.9283538714282623  1.0000
  H   H87       1.0  0.6286642683384023  0.6426980246326653  0.8075250961493623  1.0000
  H   H88       1.0  0.5987762629070033  0.6613266174921755  0.83673253072211  1.0000
  C   C133      1.0  0.6250385092803705  0.642251193872986  0.16062199959795329  1.0000
  C   C134      1.0  0.6029390036828131  0.638682061179287  0.1860061008864048  1.0000
  C   C135      1.0  0.6035316037344409  0.6321389096767168  0.22758452027797918  1.0000
  C   C136      1.0  0.6257156769152072  0.6282624832847367  0.2438378148213854  1.0000
  C   C137      1.0  0.6473118331209082  0.6309558343643731  0.21813822614881126  1.0000
  C   C138      1.0  0.6470429604751746  0.6380946719722062  0.17679624529069887  1.0000
  H   H89       1.0  0.585620853807489  0.6413366356042315  0.1737621313149648  1.0000
  H   H90       1.0  0.5866951801418991  0.6299955207815616  0.247299840592725  1.0000
  H   H91       1.0  0.664669391147687  0.6283414254068588  0.23038584980712462  1.0000
  H   H92       1.0  0.6642216597027338  0.6407858498587002  0.15735168164067576  1.0000
  C   C139      1.0  0.5876831586556017  0.7831055326110203  0.05505282626665299  1.0000
  C   C140      1.0  0.5641240453320296  0.7763563944780116  0.029484048175129063  1.0000
  C   C141      1.0  0.55707563521804  0.7976685933215525  0.018466752931419528  1.0000
  C   C142      1.0  0.5731733746981886  0.8259791717934402  0.03310584374929859  1.0000
  C   C143      1.0  0.5966350872893976  0.8326542338431902  0.05887413518982123  1.0000
  C   C144      1.0  0.6038393957306785  0.8114045380293538  0.06961163026473063  1.0000
  H   H93       1.0  0.5511612900221814  0.7546960255527635  0.01843958840312543  1.0000
  H   H94       1.0  0.538757585699502  0.7921297695339147  0.9987840949713878  1.0000
  H   H95       1.0  0.6092778132874106  0.8542262911153812  0.07043341917973735  1.0000
  H   H96       1.0  0.6220796761178459  0.8169970764222089  0.08945173981794255  1.0000
  C   C145      1.0  0.5816198353713893  0.12029862139373497  0.6877173885759291  1.0000
  C   C146      1.0  0.5730321893282114  0.09904235806630982  0.7176729806885298  1.0000
  C   C147      1.0  0.5443381333051458  0.08376315647231915  0.7293718318038722  1.0000
  C   C148      1.0  0.5241013238939862  0.08972184640472275  0.7113453410925937  1.0000
  C   C149      1.0  0.5325707482983304  0.11085425205739208  0.6811254941389144  1.0000
  C   C150      1.0  0.5613524748212402  0.12617568000295595  0.6693608641206421  1.0000
  H   H97       1.0  0.5885444636708559  0.09453010546002356  0.7322249387982885  1.0000
  H   H98       1.0  0.5378929998183984  0.06739824037911045  0.7527047381996751  1.0000
  H   H99       1.0  0.5169119467157978  0.1151313296891656  0.6665610936925457  1.0000
  H   H100      1.0  0.5679094169504255  0.14252751736343006  0.6460004289674856  1.0000
  C   C151      1.0  0.6332637777761998  0.031834058735892394  0.8459570017958193  1.0000
  C   C152      1.0  0.6587716246600588  0.047739590316072  0.8680607342415465  1.0000
  C   C153      1.0  0.6635809623025266  0.03663702949433989  0.9047052673863167  1.0000
  C   C154      1.0  0.6429340954326923  0.009653103791158246  0.9196443607169548  1.0000
  C   C155      1.0  0.6180136006109749  0.9933143737689833  0.8966605618281964  1.0000
  C   C156      1.0  0.613254205887457  0.0043703438767068725  0.8600539495836598  1.0000
  H   H101      1.0  0.674300902501556  0.0689682085929959  0.857705651195346  1.0000
  H   H102      1.0  0.6830506999841568  0.0493685740450982  0.9220726822838944  1.0000
  H   H103      1.0  0.6022200466842792  0.9722797040545784  0.9073288104142818  1.0000
  H   H104      1.0  0.5936403225576298  0.9917765851676953  0.8428798015983807  1.0000
  C   C157      1.0  0.7690457580995456  0.19806763040621245  0.7274894055301511  1.0000
  C   C158      1.0  0.7540695972267986  0.21228810910210089  0.7367232964779276  1.0000
  C   C159      1.0  0.7687032798377733  0.24238510436165717  0.7399342993071802  1.0000
  C   C160      1.0  0.7982729317807048  0.2585288533403371  0.7332485337269321  1.0000
  C   C161      1.0  0.813122154836787  0.24431886499658823  0.723137072856062  1.0000
  C   C162      1.0  0.7986091949070626  0.21420271039862077  0.7207557460719018  1.0000
  H   H105      1.0  0.7313115058116098  0.20008270812579868  0.7420386045766222  1.0000
  H   H106      1.0  0.7570420686067232  0.25320488141105274  0.7477095808897483  1.0000
  H   H107      1.0  0.8358001027654104  0.2564671812486813  0.7173575155077333  1.0000
  H   H108      1.0  0.8103381147059149  0.2033710975783901  0.7134903039366136  1.0000
  C   C163      1.0  0.8997533743929548  0.44684386538229587  0.7333477948522263  1.0000
  C   C164      1.0  0.911870898024466  0.4759124154838622  0.7428654781077352  1.0000
  C   C165      1.0  0.8945041752844258  0.4872422585038336  0.7537116388181139  1.0000
  C   C166      1.0  0.8648214406679537  0.46979376947809076  0.7540718842247974  1.0000
  C   C167      1.0  0.8526563984039159  0.4403056696880942  0.7468145538582204  1.0000
  C   C168      1.0  0.8701638640625265  0.4287758126445752  0.7365199824889432  1.0000
  H   H109      1.0  0.9347766251037819  0.48985556376050005  0.7411458402630903  1.0000
  H   H110      1.0  0.9041486603503818  0.509614811965279  0.7615613934477038  1.0000
  H   H111      1.0  0.8296769710358748  0.42662556666463536  0.7473500757910997  1.0000
  H   H112      1.0  0.8606870277664603  0.40625843446103305  0.7292478004365944  1.0000
  C   C169      1.0  0.9725818741444735  0.3654898559648514  0.8515392756772309  1.0000
  C   C170      1.0  0.9950713432460871  0.38484878580449794  0.8270907364576237  1.0000
  C   C171      1.0  0.022844329177209986  0.4011661144530654  0.8438396746188762  1.0000
  C   C172      1.0  0.02833046139922906  0.39862762410299374  0.885254647793957  1.0000
  C   C173      1.0  0.005687009921131528  0.3799305920294212  0.9099852685957692  1.0000
  C   C174      1.0  0.9780269641307744  0.3632910193402272  0.8931002542548305  1.0000
  H   H113      1.0  0.9912139763604267  0.3866841032874114  0.7950371649023567  1.0000
  H   H114      1.0  0.040192718081843805  0.41552050411685465  0.824400002213271  1.0000
  H   H115      1.0  0.009591016655713578  0.3776574485646719  0.9418734798337315  1.0000
  H   H116      1.0  0.9608186456275791  0.3483425201187895  0.9122554849478998  1.0000
  C   C175      1.0  0.9261255599903394  0.3696373687119538  0.495831399311312  1.0000
  C   C176      1.0  0.9189562857081262  0.37821420667151556  0.5318548765536546  1.0000
  C   C177      1.0  0.9198618721156092  0.3659674438533665  0.5694994801087713  1.0000
  C   C178      1.0  0.9280916896212199  0.34507939745510047  0.57150403551278  1.0000
  C   C179      1.0  0.935728186112243  0.3367747418929645  0.5355457584488117  1.0000
  C   C180      1.0  0.9348204971315413  0.3490551183604647  0.4977773076750899  1.0000
  H   H117      1.0  0.9125621796891004  0.39436740192228564  0.5306276109227435  1.0000
  H   H118      1.0  0.9143444990743387  0.37281304239390417  0.5970066407386585  1.0000
  H   H119      1.0  0.942488059267392  0.32089440861827745  0.5370012621628392  1.0000
  H   H120      1.0  0.9411431891980376  0.3428560027563391  0.4703551729451987  1.0000
  C   C181      1.0  0.8760517590266452  0.42416637795370143  0.298706372239591  1.0000
  C   C182      1.0  0.8715210266315142  0.4442937670248832  0.27714400767213954  1.0000
  C   C183      1.0  0.8838946403546113  0.47270390065781587  0.29117727057791304  1.0000
  C   C184      1.0  0.901082069792787  0.4809310482243981  0.326428690906667  1.0000
  C   C185      1.0  0.904778532269677  0.4605396885298515  0.34845237827770237  1.0000
  C   C186      1.0  0.8918950717459002  0.43216959175201974  0.3350390600647051  1.0000
  H   H121      1.0  0.859186776815533  0.4381934881406315  0.2490435745242187  1.0000
  H   H122      1.0  0.8810873597450819  0.48844620607057043  0.273951350998424  1.0000
  H   H123      1.0  0.9178507604015405  0.46675497498245627  0.37591031455122526  1.0000
  H   H124      1.0  0.8944443003033271  0.41655441965129997  0.35284470183124755  1.0000
  C   C187      1.0  0.9980304956273008  0.3902683809934471  0.22062777243562914  1.0000
  C   C188      1.0  0.019651364907381286  0.4126177138228237  0.19785946615320776  1.0000
  C   C189      1.0  0.02996859455739857  0.4068961189171873  0.16210884710961487  1.0000
  C   C190      1.0  0.019265111439063183  0.378625812950814  0.14924661031106107  1.0000
  C   C191      1.0  0.9976850622367923  0.35624312853689205  0.17201641638494256  1.0000
  C   C192      1.0  0.9868571884222007  0.3620259012059745  0.20728657923847413  1.0000
  H   H125      1.0  0.028582017906517487  0.43451828110370566  0.20798019250100894  1.0000
  H   H126      1.0  0.046516679759744044  0.4243722060744339  0.14490681452232562  1.0000
  H   H127      1.0  0.9893128988438116  0.33429630594908843  0.16239808658369942  1.0000
  H   H128      1.0  0.9703628135046309  0.3446011312299571  0.22463997995877405  1.0000
  C   C193      1.0  0.579535537583851  0.12124457833766164  0.37805342388579577  1.0000
  C   C194      1.0  0.5929637360972644  0.14353253500820679  0.3498054692345394  1.0000
  C   C195      1.0  0.5769965805809799  0.15357911781072056  0.3280457788918712  1.0000
  C   C196      1.0  0.547541548502708  0.14119324663027877  0.3342193969068941  1.0000
  C   C197      1.0  0.5341911918100961  0.11918000984604041  0.3628859898062812  1.0000
  C   C198      1.0  0.5502222607083394  0.10939589766560752  0.3849969813428412  1.0000
  H   H129      1.0  0.6156648892065619  0.15317912928318125  0.34486907215375384  1.0000
  H   H130      1.0  0.5874453542677442  0.170761157194539  0.30610365485753127  1.0000
  H   H131      1.0  0.5115442363848178  0.10979319839056007  0.3682843870797518  1.0000
  H   H132      1.0  0.539765216551658  0.09230959807337988  0.40708026581935797  1.0000
  C   C199      1.0  0.6914444457897302  0.0737093129774147  0.4824939602850321  1.0000
  C   C200      1.0  0.686037934700599  0.04792892718964472  0.5008392401471731  1.0000
  C   C201      1.0  0.6779170941002772  0.04230142711005058  0.5416219942723541  1.0000
  C   C202      1.0  0.6759257594452622  0.06271068050172054  0.5651529480083457  1.0000
  C   C203      1.0  0.6820413527490516  0.08900540485204654  0.5474199545775011  1.0000
  C   C204      1.0  0.6893624176660768  0.09434228994077666  0.5058231320318395  1.0000
  H   H133      1.0  0.6878771361458745  0.032043650654188  0.4832245680679814  1.0000
  H   H134      1.0  0.6733409473661328  0.02198570512081784  0.5550470584958835  1.0000
  H   H135      1.0  0.6813865659351651  0.10518749099015642  0.5657347065337337  1.0000
  H   H136      1.0  0.6942392686292557  0.1146322726917922  0.49207708127242034  1.0000
  C   C205      1.0  0.7679450635019157  0.2225357303975566  0.3440474566054154  1.0000
  C   C206      1.0  0.7814756116255366  0.20698320605935142  0.33417162746208207  1.0000
  C   C207      1.0  0.8113712458147803  0.22124522149224038  0.329516674210172  1.0000
  C   C208      1.0  0.827823553897358  0.2510397754823589  0.3347178889132168  1.0000
  C   C209      1.0  0.8142851943067754  0.26633693778473005  0.3456856167981084  1.0000
  C   C210      1.0  0.7845127527103832  0.2521664802595507  0.350310558061553  1.0000
  H   H137      1.0  0.7688665522902334  0.1840997018960037  0.32930369998398445  1.0000
  H   H138      1.0  0.8216775544265826  0.2091856772036495  0.321160612855999  1.0000
  H   H139      1.0  0.8265757096174188  0.2891542131216703  0.34969123476065295  1.0000
  H   H140      1.0  0.7741172492286589  0.2642050116125919  0.3583024481053751  1.0000
  C   C211      1.0  0.638230500780414  0.05087476108976989  0.21633048397593113  1.0000
  C   C212      1.0  0.6431497119321581  0.030693136805309607  0.23670350852244912  1.0000
  C   C213      1.0  0.6356471847690539  0.004345040145612211  0.21794411062160532  1.0000
  C   C214      1.0  0.6229040408280534  0.9977411988517112  0.17888104296915214  1.0000
  C   C215      1.0  0.617575576177829  0.01775802258889092  0.1588011229939968  1.0000
  C   C216      1.0  0.6253566387166976  0.044209716314676295  0.1773503348715441  1.0000
  H   H141      1.0  0.6529785912133306  0.035465540120931616  0.26672920516625503  1.0000
  H   H142      1.0  0.6397883132850052  0.9889862696663669  0.23382604056559386  1.0000
  H   H143      1.0  0.6076241562282727  0.012941384906612351  0.12889209735000892  1.0000
  H   H144      1.0  0.6213522492695475  0.05962832190442367  0.1614007682477075  1.0000
  N   N1        1.0  0.4328282776271569  0.503565338250891  0.13569807509166182  1.0000
  C   C217      1.0  0.43459864173665996  0.48723439610857194  0.171122086367321  1.0000
  C   C218      1.0  0.45915075639129743  0.5318570711509066  0.13384487975415857  1.0000
  C   C219      1.0  0.40772698933377693  0.5075158252936441  0.13990095210393794  1.0000
  C   C220      1.0  0.4297472237687803  0.4875401656611267  0.09793753501733299  1.0000
  H   H145      1.0  0.4148779360833012  0.46591950710962443  0.17364802750891636  1.0000
  H   H146      1.0  0.437118917194594  0.4987495200720312  0.20016080138618672  1.0000
  H   H147      1.0  0.45287762083636024  0.4832313732371354  0.1686477930817689  1.0000
  H   H148      1.0  0.4589546629746122  0.5443511938118428  0.10672563056434763  1.0000
  H   H149      1.0  0.4616577036372246  0.5450261523044573  0.1611284097202772  1.0000
  H   H150      1.0  0.4785558957731896  0.5296818925901559  0.13170414848162998  1.0000
  H   H151      1.0  0.387465194577117  0.48653202625080777  0.14077289899444947  1.0000
  H   H152      1.0  0.4058125119511953  0.5199286330594373  0.11391956420388688  1.0000
  H   H153      1.0  0.4090572799001243  0.5191849831644798  0.16831296379404947  1.0000
  H   H154      1.0  0.4274469318290242  0.49873658351981626  0.07058636952430206  1.0000
  H   H155      1.0  0.4104777724642684  0.46584459443881737  0.09892831437188679  1.0000
  H   H156      1.0  0.4484991409473151  0.4845975345082205  0.09317931844026651  1.0000
  N   N2        1.0  0.2637345568329623  0.33828291472700983  0.925503772949785  1.0000
  C   C221      1.0  0.2338237514292555  0.32980016549373775  0.9147978302155545  1.0000
  C   C222      1.0  0.28256911847647764  0.3684854040424121  0.9136041787768358  1.0000
  C   C223      1.0  0.2723743527675839  0.3198869643640037  0.9038332749399787  1.0000
  C   C224      1.0  0.2662858419477361  0.3351653703746284  0.9699196814705912  1.0000
  H   H157      1.0  0.2189411665666411  0.3071224145545941  0.9234552125736298  1.0000
  H   H158      1.0  0.23117334776818751  0.3320355038176799  0.881500211393286  1.0000
  H   H159      1.0  0.2269219942526956  0.3434794982938731  0.9308471134777222  1.0000
  H   H160      1.0  0.3052167993855598  0.37552164649137904  0.921552039751235  1.0000
  H   H161      1.0  0.28151862496292873  0.37176252749485683  0.8802502037684524  1.0000
  H   H162      1.0  0.27676367971854093  0.3830595031366876  0.9294809317217738  1.0000
  H   H163      1.0  0.2948586038066767  0.3257781129451927  0.911658756729916  1.0000
  H   H164      1.0  0.2712358089603486  0.32206678981483344  0.8702005268744172  1.0000
  H   H165      1.0  0.2586097025272425  0.29689133139243457  0.9119417875330513  1.0000
  H   H166      1.0  0.2885448500901883  0.3409601097581968  0.9789247954020633  1.0000
  H   H167      1.0  0.25205050262563106  0.31275651853497627  0.9802661326156555  1.0000
  H   H168      1.0  0.26064166778390585  0.349364120434523  0.987198343856812  1.0000
  N   N3        1.0  0.5898722863277029  0.7492095010561052  0.9192241951255269  1.0000
  C   C225      1.0  0.6040586762185199  0.7468914109661632  0.8825079894212335  1.0000
  C   C226      1.0  0.6042364889784143  0.7458556662759503  0.95589189188216  1.0000
  C   C227      1.0  0.5595288366690099  0.7263854375793848  0.9186391669158536  1.0000
  C   C228      1.0  0.5916587902277036  0.777561471397326  0.92001131335855  1.0000
  H   H169      1.0  0.6029701585378775  0.7256262764629673  0.881197791544554  1.0000
  H   H170      1.0  0.6270711265769509  0.7635989541569019  0.8821311893142489  1.0000
  H   H171      1.0  0.5937854462591572  0.7492524189661853  0.8541549304125026  1.0000
  H   H172      1.0  0.5936091043805711  0.7466735748708297  0.9841524721101274  1.0000
  H   H173      1.0  0.6038593866491575  0.7249676802683416  0.955704226417555  1.0000
  H   H174      1.0  0.6270025958295954  0.7630682981054134  0.9580991920229454  1.0000
  H   H175      1.0  0.5574711160642575  0.7046901757454294  0.9181024419623753  1.0000
  H   H176      1.0  0.5479501716890567  0.7281689061445203  0.8913753880871375  1.0000
  H   H177      1.0  0.5481944545296474  0.7273631803251916  0.9460846475438752  1.0000
  H   H178      1.0  0.5812365650474065  0.779960403921804  0.9475150258715799  1.0000
  H   H179      1.0  0.5809202911552503  0.7808504152681526  0.8928924111341265  1.0000
  H   H180      1.0  0.6142615459991204  0.7952974666992045  0.9206877536589346  1.0000
  N   N4        1.0  0.5044821929761364  0.4367714317747474  0.48894225272519704  1.0000
  C   C229      1.0  0.5306053629519325  0.46142197715597266  0.5059813620030374  1.0000
  C   C230      1.0  0.49394736787814914  0.4464057193039907  0.4536557322096312  1.0000
  C   C231      1.0  0.48214053383516015  0.42458237725720854  0.5203662124034737  1.0000
  C   C232      1.0  0.5112173873651339  0.4146385630259962  0.4756360169878344  1.0000
  H   H181      1.0  0.5479341050350082  0.47105351212623064  0.48301578115665506  1.0000
  H   H182      1.0  0.5390823607161824  0.45492196334048735  0.5327490594646581  1.0000
  H   H183      1.0  0.5264420758354136  0.47869055524093473  0.5160846748935113  1.0000
  H   H184      1.0  0.47476918233073295  0.4281311642996189  0.439222006944288  1.0000
  H   H185      1.0  0.4880981604551318  0.46270211902597863  0.4625740612345037  1.0000
  H   H186      1.0  0.5103790217810463  0.4560791704493787  0.4295500866927864  1.0000
  H   H187      1.0  0.46185150391699986  0.40653036746395127  0.508041906842216  1.0000
  H   H188      1.0  0.47712009446513975  0.44089229136974595  0.5320717301458703  1.0000
  H   H189      1.0  0.48880058908499824  0.41605484160015965  0.546947796038388  1.0000
  H   H190      1.0  0.49227724541590584  0.3962165760196275  0.46104646056957604  1.0000
  H   H191      1.0  0.5184013530209326  0.4061829622955059  0.5016051232697369  1.0000
  H   H192      1.0  0.5284876834239405  0.423305761916177  0.4526215369116557  1.0000
  N   N5        1.0  0.6413800652628407  0.7340060830360046  0.1731791496803756  1.0000
  C   C233      1.0  0.6256015756466201  0.7094002089070085  0.20094232461449166  1.0000
  C   C234      1.0  0.6238739014605299  0.7476206260510128  0.16394138712800693  1.0000
  C   C235      1.0  0.6474143410913074  0.7238627645105692  0.1349972979989764  1.0000
  C   C236      1.0  0.6686191429644348  0.7550638284643859  0.19276162858125348  1.0000
  H   H193      1.0  0.6047899097744039  0.6932804131072645  0.18716860790709783  1.0000
  H   H194      1.0  0.6209354736346939  0.7161880652620313  0.23034942329270744  1.0000
  H   H195      1.0  0.6379760297923741  0.6982683156661763  0.20798246577280047  1.0000
  H   H196      1.0  0.6349635709946153  0.7661486932953447  0.1427180377031281  1.0000
  H   H197      1.0  0.6031759726714452  0.7323159662542065  0.14896142121975398  1.0000
  H   H198      1.0  0.618801861511167  0.7555432690781066  0.19195476469353046  1.0000
  H   H199      1.0  0.6587914663583647  0.7416750819336715  0.11282620292112822  1.0000
  H   H200      1.0  0.6273553069186362  0.7076037642941434  0.11985940593519759  1.0000
  H   H201      1.0  0.6606460307674575  0.7134745733340391  0.14063484841752807  1.0000
  H   H202      1.0  0.6822457972051194  0.7453491928798536  0.20015707152545129  1.0000
  H   H203      1.0  0.6648715694188506  0.7631985786185168  0.2216852408731043  1.0000
  H   H204      1.0  0.6810871018534851  0.7738497795191861  0.17248884925413288  1.0000
  N   N6        1.0  0.7907207555645748  0.5136890980791355  0.8138489151130689  1.0000
  C   C237      1.0  0.7634524639165988  0.49629021224337144  0.8352773096595288  1.0000
  C   C238      1.0  0.7979543012655848  0.5440879753620547  0.8135286891925876  1.0000
  C   C239      1.0  0.7877043038489956  0.5033569892824066  0.7715763590680103  1.0000
  C   C240      1.0  0.8137186561751575  0.5109317474232987  0.8349410105563855  1.0000
  H   H205      1.0  0.7573001774835416  0.47321592936598245  0.8359934455661021  1.0000
  H   H206      1.0  0.7456537074362615  0.49791690354763296  0.819973211940132  1.0000
  H   H207      1.0  0.7649016748832448  0.5035167717805321  0.867280450971881  1.0000
  H   H208      1.0  0.8175883506342283  0.5577478581492669  0.7956712172731241  1.0000
  H   H209      1.0  0.7803868436456265  0.5467375280550573  0.7996840953305554  1.0000
  H   H210      1.0  0.8017527578530438  0.5530238933720427  0.84483648791866  1.0000
  H   H211      1.0  0.8075896968062846  0.5166023140565856  0.7541438608228285  1.0000
  H   H212      1.0  0.7698528899611131  0.5040399365784974  0.7550930543068318  1.0000
  H   H213      1.0  0.7834764876285187  0.48086775479657595  0.7706538382764302  1.0000
  H   H214      1.0  0.8345422308756796  0.5237688413591174  0.8194204242060551  1.0000
  H   H215      1.0  0.8091797991323475  0.4883168075343501  0.8351162653197975  1.0000
  H   H216      1.0  0.8166259613189296  0.5183419759913058  0.8670307663759658  1.0000
  N   N7        1.0  0.16047342691065253  0.44489861300916833  0.9065435349823803  1.0000
  C   C241      1.0  0.13916410594401024  0.4230453449614902  0.9339801806487815  1.0000
  C   C242      1.0  0.15907397629411554  0.47160143389905823  0.9093262607376239  1.0000
  C   C243      1.0  0.15407667006767437  0.434201795058702  0.8642493534684969  1.0000
  C   C244      1.0  0.1894285602528256  0.450728762029022  0.9187689642293106  1.0000
  H   H217      1.0  0.1395732046138483  0.40257549191712805  0.9328214907029586  1.0000
  H   H218      1.0  0.11704489673023893  0.4181516448995934  0.9257216591061482  1.0000
  H   H219      1.0  0.14332514695798076  0.4304622557565982  0.9661038176513876  1.0000
  H   H220      1.0  0.17447463442161235  0.4884479186570759  0.8884342407601502  1.0000
  H   H221      1.0  0.13725978721188067  0.46780439313787336  0.901332655013755  1.0000
  H   H222      1.0  0.16436030255423145  0.48050543538676144  0.9407692741771739  1.0000
  H   H223      1.0  0.16958744952690144  0.45018591529780444  0.8425228184989102  1.0000
  H   H224      1.0  0.13222959393017808  0.4294694994242394  0.8544270067847948  1.0000
  H   H225      1.0  0.15495867175968417  0.414056254762852  0.8610930301467942  1.0000
  H   H226      1.0  0.19114340884734235  0.43092426080180485  0.9182197026448673  1.0000
  H   H227      1.0  0.19500895225834755  0.4593651211142111  0.9503522408275351  1.0000
  H   H228      1.0  0.20607793325444804  0.4667907201006547  0.8983471472536292  1.0000
  N   N8        1.0  0.5149780320624117  0.2171875837875009  0.3506906389481463  1.0000
  C   C245      1.0  0.5359799131576523  0.24818357657427403  0.3519672779880241  1.0000
  C   C246      1.0  0.4875892887857736  0.21209034128112175  0.3676447206853394  1.0000
  C   C247      1.0  0.5259464320024545  0.20127149867621347  0.3750150882871854  1.0000
  C   C248      1.0  0.5104631794958094  0.20725846779666626  0.3080274849092768  1.0000
  H   H229      1.0  0.5568594158015843  0.2527773757453205  0.33923451177864633  1.0000
  H   H230      1.0  0.539945137233648  0.2564593172379626  0.3836960766963232  1.0000
  H   H231      1.0  0.528305344677026  0.26080733106700904  0.3338664407406795  1.0000
  H   H232      1.0  0.4706960335062282  0.1891504803345807  0.3650830301461804  1.0000
  H   H233      1.0  0.48989128700081974  0.21805828359139137  0.40035655428848005  1.0000
  H   H234      1.0  0.479461308177931  0.22493145566852718  0.35130324740775165  1.0000
  H   H235      1.0  0.5106243836590342  0.17780625293907218  0.37462180857199956  1.0000
  H   H236      1.0  0.5298588671403694  0.20824157047608913  0.407353043195367  1.0000
  H   H237      1.0  0.5463709296592721  0.2042436787252272  0.36261914969455133  1.0000
  H   H238      1.0  0.49402339357304675  0.18415421901960213  0.3056623061825081  1.0000
  H   H239      1.0  0.5304395839914969  0.20966301776121438  0.2948162210975881  1.0000
  H   H240      1.0  0.5033184589419034  0.21953110871347598  0.2883726546304166  1.0000
  N   N9        1.0  0.8101015907104298  0.5627979999661156  0.4295589997551896  1.0000
  C   C249      1.0  0.8191520125454209  0.5417615740992461  0.4409149720096052  1.0000
  C   C250      1.0  0.8081656384272203  0.577092173674433  0.46652734595107426  1.0000
  C   C251      1.0  0.7819006353079406  0.5479406186184614  0.40870660811082543  1.0000
  C   C252      1.0  0.8313249495273507  0.5845194103546343  0.4019286743294117  1.0000
  H   H241      1.0  0.8407973559976545  0.5523992459453262  0.4555748841685624  1.0000
  H   H242      1.0  0.8201688135254868  0.5302098266025921  0.4136139772291541  1.0000
  H   H243      1.0  0.8039739446997836  0.52534750289927  0.46246215390010015  1.0000
  H   H244      1.0  0.8013199932113195  0.5930540122767278  0.45877074349445546  1.0000
  H   H245      1.0  0.7923901700243773  0.5613540398101277  0.4882057005585369  1.0000
  H   H246      1.0  0.8292303591286895  0.5886615324068971  0.48270783790757055  1.0000
  H   H247      1.0  0.7650545357637816  0.5319181063585265  0.4288907515459031  1.0000
  H   H248      1.0  0.7825352764730789  0.53631067084278  0.38124285319886675  1.0000
  H   H249      1.0  0.7748806493657324  0.5633247048839862  0.39823066217078545  1.0000
  H   H250      1.0  0.8252677895668006  0.6008192856120993  0.39275966638181925  1.0000
  H   H251      1.0  0.8332907556618279  0.5744989606782689  0.37364221056398983  1.0000
  H   H252      1.0  0.8528650649226333  0.5960800245398095  0.4165120966226224  1.0000
  N   N10       1.0  0.9583712240309363  0.62241351309563  0.03605172861116834  1.0000
  C   C253      1.0  0.9393018899263467  0.6262470742391247  0.006902139676267405  1.0000
  C   C254      1.0  0.9832319719787653  0.6506833676014231  0.04576056279487917  1.0000
  C   C255      1.0  0.9683673163272787  0.6040426797521046  0.017648151449723315  1.0000
  C   C256      1.0  0.9428099214670876  0.608798704471941  0.07386570637950252  1.0000
  H   H253      1.0  0.9202377921488233  0.6053823650668102  0.9988326798821252  1.0000
  H   H254      1.0  0.9506293268532027  0.6363739080464432  0.9780124427588373  1.0000
  H   H255      1.0  0.931713157008035  0.6403502076398889  0.019631172993718415  1.0000
  H   H256      1.0  0.9991944484821866  0.6483743460574791  0.06484161191868565  1.0000
  H   H257      1.0  0.9943211389696763  0.6624554833649872  0.01769594374883554  1.0000
  H   H258      1.0  0.9769240640020576  0.6644941193580729  0.06251065691860425  1.0000
  H   H259      1.0  0.9830070621399071  0.6008897417122366  0.038810464652314636  1.0000
  H   H260      1.0  0.9803489989796609  0.6137871040546067  0.9891539141358094  1.0000
  H   H261      1.0  0.9502337159286356  0.58251797703569  0.009823179571432528  1.0000
  H   H262      1.0  0.9566856475194092  0.6053457148777966  0.09607769731828775  1.0000
  H   H263      1.0  0.9236934465365376  0.587537708911975  0.06775097947185493  1.0000
  H   H264      1.0  0.935542758835888  0.6223625242900761  0.08924328609559629  1.0000
  N   N11       1.0  0.5927675258186941  0.5396674128421086  0.20706106515537487  1.0000
  C   C257      1.0  0.5874886155748862  0.5436419969588945  0.24984707907840675  1.0000
  C   C258      1.0  0.576339864168827  0.5088576128331238  0.19685951678049643  1.0000
  C   C259      1.0  0.6235969211360846  0.5502386849902453  0.20163286857520152  1.0000
  C   C260      1.0  0.583714031982921  0.5559782988885816  0.18002064814179902  1.0000
  H   H265      1.0  0.5646461202505293  0.5368013781209076  0.25498280797215955  1.0000
  H   H266      1.0  0.60040057572679  0.5664336425552555  0.2592267411045736  1.0000
  H   H267      1.0  0.5932268481481141  0.5309295412499163  0.2709888787050016  1.0000
  H   H268      1.0  0.5829966094095886  0.4961280220959471  0.21666235245193358  1.0000
  H   H269      1.0  0.5530322859299436  0.5000072758284465  0.20135423948498438  1.0000
  H   H270      1.0  0.5796963623861372  0.5049851132611863  0.1647708506512395  1.0000
  H   H271      1.0  0.63120324263687  0.5383959987499025  0.2215499648639592  1.0000
  H   H272      1.0  0.6366563885505232  0.5733574410504502  0.20946043615790053  1.0000
  H   H273      1.0  0.6284420420729053  0.5476879811374343  0.16969982374456125  1.0000
  H   H274      1.0  0.5957032221056034  0.5792494733810988  0.18729753137812097  1.0000
  H   H275      1.0  0.5605919915266317  0.548676032032837  0.1832868853303464  1.0000
  H   H276      1.0  0.5877026555916469  0.5538180500087754  0.14747747062470046  1.0000
  N   N12       1.0  0.5386526785393914  0.17853384409409803  0.7510612501134921  1.0000
  C   C261      1.0  0.5327498800127656  0.1827634150159691  0.7081596769430978  1.0000
  C   C262      1.0  0.5150583042812243  0.15110817721888906  0.766315256226469  1.0000
  C   C263      1.0  0.5409164993706383  0.20233966745855217  0.7759239615141104  1.0000
  C   C264      1.0  0.5657504998703073  0.17789090401658064  0.7538431767328793  1.0000
  H   H277      1.0  0.550011625386388  0.2033239264078013  0.6956476397726598  1.0000
  H   H278      1.0  0.5123374039489347  0.18322361295712994  0.7050489449336382  1.0000
  H   H279      1.0  0.530831464383173  0.16518759728237836  0.6884617210556913  1.0000
  H   H280      1.0  0.5189791496706305  0.14680883087255592  0.7983042464587945  1.0000
  H   H281      1.0  0.49445818563706845  0.1511938864241749  0.7655500324699516  1.0000
  H   H282      1.0  0.5120885202887677  0.1326972737892573  0.7475795386600198  1.0000
  H   H283      1.0  0.5449570151487226  0.19970627657347892  0.8086005222704572  1.0000
  H   H284      1.0  0.5207721878470714  0.20342161100130923  0.7741641003816778  1.0000
  H   H285      1.0  0.5585217403513466  0.22340766896919645  0.7653548010276953  1.0000
  H   H286      1.0  0.5839729341198182  0.19795948522473464  0.741680507562535  1.0000
  H   H287      1.0  0.5644611704259707  0.15973902704711615  0.7361632412793089  1.0000
  H   H288      1.0  0.57108930715792  0.1751770378708328  0.785879998212956  1.0000
  N   N13       1.0  0.7351027174568526  0.6016869339424056  0.6272056669861645  1.0000
  C   C265      1.0  0.7330780290900913  0.6131357818682123  0.586887314907754  1.0000
  C   C266      1.0  0.707711172090973  0.5755612244081316  0.6361927270515039  1.0000
  C   C267      1.0  0.741283382791682  0.6235155413596402  0.6586745723196121  1.0000
  C   C268      1.0  0.7582783710508989  0.5945436934015849  0.6271521038722331  1.0000
  H   H289      1.0  0.7537164314530672  0.6321210881763623  0.5782135742465242  1.0000
  H   H290      1.0  0.7168145083304636  0.6201368484323488  0.5868709201666704  1.0000
  H   H291      1.0  0.7266041997531014  0.5967156244776888  0.5625851385131296  1.0000
  H   H292      1.0  0.6897755686586156  0.5801528254059483  0.6363809013232327  1.0000
  H   H293      1.0  0.7021920794138443  0.5585614102333937  0.6131165747392864  1.0000
  H   H294      1.0  0.7082942637192203  0.5664625280293754  0.6665655821313881  1.0000
  H   H295      1.0  0.7427486057141066  0.6155761005827896  0.6895315577195538  1.0000
  H   H296      1.0  0.7241464172944563  0.629366220372288  0.6595619151845407  1.0000
  H   H297      1.0  0.7617955529152368  0.6435409956241424  0.6529474349547953  1.0000
  H   H298      1.0  0.7793866053617046  0.6138161326114947  0.6211528343575784  1.0000
  H   H299      1.0  0.7543325966025803  0.5782184369730005  0.6036433548063961  1.0000
  H   H300      1.0  0.760094532521073  0.5856480160203748  0.6571109836501092  1.0000
  N   N14       1.0  0.4017648835866287  0.2669232090506851  0.19149444964100132  1.0000
  C   C269      1.0  0.4013931855481044  0.24539340744073315  0.22030112588251796  1.0000
  C   C270      1.0  0.3758087968710471  0.269246300957335  0.19688834284399517  1.0000
  C   C271      1.0  0.4025184821051974  0.25813394571555703  0.14930660381559208  1.0000
  C   C272      1.0  0.42742635802987183  0.2950047048075425  0.19952842703400436  1.0000
  H   H301      1.0  0.38228143144009363  0.22390746339642315  0.21552412582390573  1.0000
  H   H302      1.0  0.40117696428777366  0.2516423466263612  0.2524493633180362  1.0000
  H   H303      1.0  0.4207420215271955  0.24317647247110363  0.21714327357752136  1.0000
  H   H304      1.0  0.37549555701169907  0.28552002703507096  0.17584683621172548  1.0000
  H   H305      1.0  0.3559705120977146  0.24847643172758432  0.19129995720099435  1.0000
  H   H306      1.0  0.37476545739381534  0.276185711051208  0.2283359164004584  1.0000
  H   H307      1.0  0.38349014233805573  0.23698992386614096  0.14217757402482428  1.0000
  H   H308      1.0  0.42193849185453186  0.25631478185612955  0.14428104666850491  1.0000
  H   H309      1.0  0.4028327570560546  0.2740340204275603  0.12692599160120285  1.0000
  H   H310      1.0  0.42841071108362283  0.3119763182253363  0.1786942832333945  1.0000
  H   H311      1.0  0.4475005927159147  0.2940835227893051  0.19650848485896583  1.0000
  H   H312      1.0  0.4273812937014766  0.3022634082704875  0.23096606158393132  1.0000
  N   N15       1.0  0.42157705893346226  0.9909389889810453  0.7631332587405119  1.0000
  C   C273      1.0  0.4350861099853373  0.9968928748631642  0.7227399633851731  1.0000
  C   C274      1.0  0.3912266476358466  0.9830913076418818  0.7582560678952286  1.0000
  C   C275      1.0  0.4366022906600556  0.016799401221858856  0.7887678805177785  1.0000
  C   C276      1.0  0.42340848005873666  0.9670283288099996  0.7828927891440427  1.0000
  H   H313      1.0  0.43419835922757577  0.014962561752840386  0.7072323133221511  1.0000
  H   H314      1.0  0.42433425840085087  0.977927331897101  0.7024154122941889  1.0000
  H   H315      1.0  0.45813131862794726  0.003252546636729692  0.725317272962522  1.0000
  H   H316      1.0  0.37918075460008144  0.9638574875176337  0.7387262946569636  1.0000
  H   H317      1.0  0.38036432370783696  0.9782859512816647  0.7881810917713522  1.0000
  H   H318      1.0  0.38901931875770474  0.0008317234150521102  0.7439791789877079  1.0000
  H   H319      1.0  0.42796481719336726  0.012658215833510678  0.8201123610067489  1.0000
  H   H320      1.0  0.4343961021116444  0.034869839973152184  0.7757930111990602  1.0000
  H   H321      1.0  0.45990517698990613  0.024339944037817585  0.7912590659951464  1.0000
  H   H322      1.0  0.4132993653307019  0.961988120697022  0.8134491961871253  1.0000
  H   H323      1.0  0.4460503068340275  0.9723292518025717  0.787251728892767  1.0000
  H   H324      1.0  0.41230249836969196  0.9471389330209126  0.7643632466796526  1.0000
  N   N16       1.0  0.9906806449279107  0.6047021136267893  0.6431487532649607  1.0000
  C   C277      1.0  0.9715535139893713  0.5812774199256634  0.6153639445105227  1.0000
  C   C278      1.0  0.9766486486067851  0.6211620769315567  0.6546886119916068  1.0000
  C   C279      1.0  0.017803075764448336  0.6239453376597223  0.6225011095736935  1.0000
  C   C280      1.0  0.996589025604869  0.5924369323786914  0.6801689447151715  1.0000
  H   H325      1.0  0.9658074836139882  0.5896260910639848  0.5876520244393469  1.0000
  H   H326      1.0  0.9511076008228562  0.5662014160502187  0.6304466809112581  1.0000
  H   H327      1.0  0.9815666265718527  0.5686529927117119  0.6052899641321962  1.0000
  H   H328      1.0  0.9902059346606968  0.6388460477203286  0.676153626033487  1.0000
  H   H329      1.0  0.9715379538801648  0.6305961979931946  0.6276736031142338  1.0000
  H   H330      1.0  0.9563024352713753  0.6072032173280373  0.6705416621352317  1.0000
  H   H331      1.0  0.029042521222698285  0.6122622250598699  0.6134191995729535  1.0000
  H   H332      1.0  0.03258894663696273  0.6418859064118719  0.6427736637085677  1.0000
  H   H333      1.0  0.014029419589503527  0.6335463454307467  0.5944731351860508  1.0000
  H   H334      1.0  0.9764910603208287  0.5776272723063642  0.6963391145486915  1.0000
  H   H335      1.0  0.010239021251340763  0.6094806999451542  0.702440254931318  1.0000
  H   H336      1.0  0.007572122896477579  0.5801871675382478  0.672919969563692  1.0000
  N   N17       1.0  0.8530872577794286  0.28498857225568086  0.4666915847594351  1.0000
  C   C281      1.0  0.8782190914564034  0.29612612393706883  0.44002482112660213  1.0000
  C   C282      1.0  0.8626915722268887  0.29122172056859497  0.5096961532811349  1.0000
  C   C283      1.0  0.8352525223453615  0.2536732329769612  0.46096941499152316  1.0000
  C   C284      1.0  0.8362049517817056  0.2990298614478575  0.4559440858901484  1.0000
  H   H337      1.0  0.8924695500855648  0.2873839583592721  0.44870365957208386  1.0000
  H   H338      1.0  0.8911835036538338  0.31989693496803273  0.4414509974161968  1.0000
  H   H339      1.0  0.8717258146253449  0.2903321623099427  0.40765167791809187  1.0000
  H   H340      1.0  0.844325175015312  0.28214964792782415  0.5308659515109267  1.0000
  H   H341      1.0  0.8767610250946348  0.2822864273168535  0.5185811842168109  1.0000
  H   H342      1.0  0.8751155766403808  0.31472078170329776  0.5153203534421656  1.0000
  H   H343      1.0  0.815935462861604  0.24444976342043553  0.4803607784355655  1.0000
  H   H344      1.0  0.8474374015033009  0.24249380647802896  0.4687586973359388  1.0000
  H   H345      1.0  0.8277468558675448  0.24828327495808128  0.42872648161912275  1.0000
  H   H346      1.0  0.8172580647993799  0.29143610444806384  0.4758105245723331  1.0000
  H   H347      1.0  0.828303828145341  0.2945168567595422  0.4239023067317634  1.0000
  H   H348      1.0  0.8493069071609337  0.32278201417399943  0.45919590260426046  1.0000
  N   N18       1.0  0.5639810466568879  0.05478195817328829  0.2891803698345299  1.0000
  C   C285      1.0  0.5768751086077879  0.03775934075559172  0.2751106918324127  1.0000
  C   C286      1.0  0.5846635240482939  0.08559729419444281  0.284019939521116  1.0000
  C   C287      1.0  0.5566559951590795  0.048596222463288014  0.3326805423553423  1.0000
  C   C288      1.0  0.5378468935297083  0.04734804637194537  0.26496021148947957  1.0000
  H   H349      1.0  0.5970747858057686  0.04345265162821883  0.29213035519581687  1.0000
  H   H350      1.0  0.582495790978268  0.04177450117083119  0.2423045325585668  1.0000
  H   H351      1.0  0.5621834248926936  0.014362057725718235  0.27911419165914036  1.0000
  H   H352      1.0  0.575252589067269  0.09913830708773383  0.29234849179756633  1.0000
  H   H353      1.0  0.6038335522368196  0.09213373427176441  0.30373249327821394  1.0000
  H   H354      1.0  0.5922571755625916  0.09088415722271749  0.2520889706880932  1.0000
  H   H355      1.0  0.5411229501218522  0.025533419444992645  0.33791406510631533  1.0000
  H   H356      1.0  0.5470907506886117  0.061275271328991084  0.3443326389673522  1.0000
  H   H357      1.0  0.5759929993221654  0.05424597642351734  0.3518824618316168  1.0000
  H   H358      1.0  0.5275861947742063  0.05980501708020315  0.2750773519526406  1.0000
  H   H359      1.0  0.5217920958310818  0.02419018556428402  0.2678980110589605  1.0000
  H   H360      1.0  0.5427737886009727  0.052141008415489715  0.23206078499671087  1.0000
  N   N19       1.0  0.6112348191896144  0.10281554099038562  0.5554041958098427  1.0000
  C   C289      1.0  0.6121820943274434  0.0907488721838347  0.5156099046763978  1.0000
  C   C290      1.0  0.5849224838233675  0.10485483856970625  0.5576140604019897  1.0000
  C   C291      1.0  0.6364512172205053  0.1317405273468939  0.5599103752919328  1.0000
  C   C292      1.0  0.6113376821648677  0.08402740340953022  0.5886005952108424  1.0000
  H   H361      1.0  0.6315829738016812  0.08856168035833026  0.513046854410597  1.0000
  H   H362      1.0  0.6125277982389046  0.10462624158534092  0.4898817505739879  1.0000
  H   H363      1.0  0.5932623572692186  0.06911588549124623  0.5107869893504519  1.0000
  H   H364      1.0  0.5837679106406568  0.11415280438902224  0.5872222946733916  1.0000
  H   H365      1.0  0.583967669130657  0.11866188790288072  0.5327647948112406  1.0000
  H   H366      1.0  0.5654166951950026  0.08339576816424114  0.5547707257069001  1.0000
  H   H367      1.0  0.6567131906844704  0.1311345332552025  0.5580900110541863  1.0000
  H   H368      1.0  0.6365656733045707  0.14137320532841646  0.5898149002795231  1.0000
  H   H369      1.0  0.6368525998701758  0.14653288534107983  0.5355644213389325  1.0000
  H   H370      1.0  0.6104042222490624  0.09248863054677678  0.6189693138636548  1.0000
  H   H371      1.0  0.6309481687841302  0.08208636805404876  0.588311984545578  1.0000
  H   H372      1.0  0.5927144476910978  0.061962113892941165  0.5860753842840022  1.0000
  N   N20       1.0  0.6915998997569454  0.013561474412997172  0.08837801443181414  1.0000
  C   C293      1.0  0.6971094770712349  0.002696236302495963  0.0504194903694795  1.0000
  C   C294      1.0  0.7170226971658875  0.04107974714812326  0.0996141209542779  1.0000
  C   C295      1.0  0.6852503447014258  0.9924842994361429  0.12158937872713374  1.0000
  C   C296      1.0  0.666893436286939  0.018023543504597908  0.08193207593003578  1.0000
  H   H373      1.0  0.6781535300859572  0.9821681405059299  0.04076963154577539  1.0000
  H   H374      1.0  0.7154462995016003  0.9987868743740009  0.05408677683609485  1.0000
  H   H375      1.0  0.7017766296277405  0.01799878321125751  0.0246321725210423  1.0000
  H   H376      1.0  0.7135038562867645  0.049697650140043625  0.1283030105017432  1.0000
  H   H377      1.0  0.7361582135142357  0.03857554997548203  0.10450795206515226  1.0000
  H   H378      1.0  0.7221388054580562  0.057530975469721364  0.07537724842518082  1.0000
  H   H379      1.0  0.7035342056524938  0.9888467921965051  0.12797742407090068  1.0000
  H   H380      1.0  0.6663171423016142  0.971337341286282  0.11394100291819705  1.0000
  H   H381      1.0  0.6800789875782064  0.9996256204835572  0.1503720046266428  1.0000
  H   H382      1.0  0.6629885659466213  0.027584001230172267  0.10921539347662673  1.0000
  H   H383      1.0  0.6470817896059892  0.9973661077080748  0.07605231779054969  1.0000
  H   H384      1.0  0.6699452736290086  0.032271989249478716  0.055341129716484465  1.0000
  N   N21       1.0  0.9710114270055847  0.4705444192886022  0.25791620568568285  1.0000
  C   C297      1.0  0.9632752570045798  0.49327745642059223  0.25345789433599253  1.0000
  C   C298      1.0  0.9785164552966973  0.4687645780889761  0.30095252271798695  1.0000
  C   C299      1.0  0.9957670278944298  0.477251363264101  0.23207977669048888  1.0000
  C   C300      1.0  0.946468737575782  0.44276883316441845  0.24526947221288067  1.0000
  H   H385      1.0  0.9446868143461131  0.4887617630788421  0.2727435351566402  1.0000
  H   H386      1.0  0.9573447091500188  0.4952304035352526  0.2214379812976737  1.0000
  H   H387      1.0  0.9812204370968794  0.5145551089607854  0.26291913403715517  1.0000
  H   H388      1.0  0.960189364312904  0.46342352392966313  0.32131476958138183  1.0000
  H   H389      1.0  0.9847196064290266  0.4519539897523945  0.30535747318330864  1.0000
  H   H390      1.0  0.9967786289718972  0.48942953496830394  0.31165414664275454  1.0000
  H   H391      1.0  0.014765522963850808  0.49803262724082564  0.24075643614464512  1.0000
  H   H392      1.0  0.9908803939607177  0.47864997601124043  0.19933955468004305  1.0000
  H   H393      1.0  0.0019774997965085195  0.4603427243307709  0.2349671063007223  1.0000
  H   H394      1.0  0.9275538032322632  0.4367563442714631  0.264535082634401  1.0000
  H   H395      1.0  0.9516470531783796  0.42515612303466976  0.24787963130900298  1.0000
  H   H396      1.0  0.9399224639825581  0.4433962308205169  0.21314767441388333  1.0000
  N   N22       1.0  0.3437714880357545  0.020290799895979525  0.006007387001564668  1.0000
  C   C301      1.0  0.321696707349976  0.00365029089821981  0.03658042208581187  1.0000
  C   C302      1.0  0.35193001184186556  0.05085220408363174  0.008540086966958516  1.0000
  C   C303      1.0  0.3323887436520583  0.009457227361881227  0.9647257739874361  1.0000
  C   C304      1.0  0.36918078271119587  0.0172441984562978  0.014226365753846617  1.0000
  H   H397      1.0  0.3148039912347653  0.9804383795647887  0.03523430770494348  1.0000
  H   H398      1.0  0.30226120746968316  0.005627732986511522  0.031808228154480915  1.0000
  H   H399      1.0  0.3298015966769077  0.010727399750018988  0.0681981686701034  1.0000
  H   H400      1.0  0.36874367282343906  0.0640099786165939  0.9860622294616453  1.0000
  H   H401      1.0  0.33327506457555983  0.05395132929382427  0.0022015371016428364  1.0000
  H   H402      1.0  0.3604861089259739  0.0596418462266115  0.03938789760263821  1.0000
  H   H403      1.0  0.31279574686340383  0.010751595341128382  0.9576409352291969  1.0000
  H   H404      1.0  0.32680530830567206  0.9866765281915494  0.9613114395503173  1.0000
  H   H405      1.0  0.34841371861987014  0.021791034103911623  0.9408853930261399  1.0000
  H   H406      1.0  0.38594575346562243  0.02863086163845854  0.990921441571323  1.0000
  H   H407      1.0  0.3635378337016143  0.9943638488059314  0.013433326600636787  1.0000
  H   H408      1.0  0.3787788726822806  0.025761672599011635  0.04473400562962449  1.0000
  N   N23       1.0  0.5662644920732409  0.02073408364739837  0.9449057806174963  1.0000
  C   C305      1.0  0.5570833620487398  0.03505291880602068  0.9143482521946188  1.0000
  C   C306      1.0  0.5561759645909107  0.9909315862174252  0.9319602922584242  1.0000
  C   C307      1.0  0.5539602601005363  0.020479486897916566  0.9848653593850296  1.0000
  C   C308      1.0  0.597808584846731  0.03643554631948298  0.948425186747761  1.0000
  H   H409      1.0  0.566154995205679  0.035584401002819455  0.8838464893084401  1.0000
  H   H410      1.0  0.564317715475754  0.05760153721543215  0.9230252709455669  1.0000
  H   H411      1.0  0.5333775750594582  0.023632796209290152  0.9108470507974202  1.0000
  H   H412      1.0  0.5323954045051401  0.9780099324732868  0.9312076372958686  1.0000
  H   H413      1.0  0.5636767289924343  0.9901221838446455  0.9010273383951016  1.0000
  H   H414      1.0  0.5638566204065063  0.9797909641316125  0.9531911604800681  1.0000
  H   H415      1.0  0.5607266777313632  0.042513142666069204  0.9955368766557091  1.0000
  H   H416      1.0  0.560684470692374  0.009893002191376787  0.00851279660758486  1.0000
  H   H417      1.0  0.5301439033795382  0.008245442210192966  0.9836308259629294  1.0000
  H   H418      1.0  0.607830766285684  0.0387769758638854  0.9183049563413365  1.0000
  H   H419      1.0  0.6056596366708799  0.02507419072425532  0.9689735772368488  1.0000
  H   H420      1.0  0.6060509373031466  0.058417499687335006  0.9605310558855159  1.0000
  N   N24       1.0  0.8873253919239897  0.46625821938027007  0.6115330107646776  1.0000
  C   C309      1.0  0.8844310660749095  0.47238561720063643  0.5682389212722387  1.0000
  C   C310      1.0  0.9170696498283176  0.48524571149955653  0.6255858926173591  1.0000
  C   C311      1.0  0.88015133675785  0.4360029256066483  0.6161497731848791  1.0000
  C   C312      1.0  0.8677199892444101  0.4715026853747829  0.636224769966688  1.0000
  H   H421      1.0  0.862188614064136  0.4585713428403151  0.5566898849911691  1.0000
  H   H422      1.0  0.8988909697219761  0.4686022410993709  0.5486704148427295  1.0000
  H   H423      1.0  0.8897857725537174  0.4950997478317195  0.5637402182310524  1.0000
  H   H424      1.0  0.9229625261938831  0.508203400524491  0.6231800952586016  1.0000
  H   H425      1.0  0.9200681028486265  0.48083019765477514  0.6579718000182747  1.0000
  H   H426      1.0  0.9325031343917166  0.48200564319621364  0.6075088350601117  1.0000
  H   H427      1.0  0.8817223844148001  0.43057420295076715  0.6485653397324899  1.0000
  H   H428      1.0  0.8949891123105912  0.43143313703688285  0.5987642143233503  1.0000
  H   H429      1.0  0.8579797191079181  0.4209947415747673  0.6054142429244639  1.0000
  H   H430      1.0  0.8697667942477472  0.4675866167333825  0.6690887208016799  1.0000
  H   H431      1.0  0.8450014778321645  0.45725204051176005  0.6270761358885257  1.0000
  H   H432      1.0  0.8723393087713273  0.49406800961972946  0.6331751406050816  1.0000
  N   N25       1.0  0.18881423399286257  0.7024137506959014  0.0013167623493772762  1.0000
  C   C313      1.0  0.20603844470512114  0.7303733578338351  0.021769959369460194  1.0000
  C   C314      1.0  0.1754357541074361  0.679494817128377  0.03230928930350912  1.0000
  C   C315      1.0  0.2073553829721487  0.6966152722298995  0.975127562061478  1.0000
  C   C316      1.0  0.16625039335199324  0.7031104811707443  0.9759732831226676  1.0000
  H   H433      1.0  0.22386997287994037  0.7310387044001818  0.0402027653996205  1.0000
  H   H434      1.0  0.19272918825674906  0.7348753858529089  0.042745272319338806  1.0000
  H   H435      1.0  0.21544111561306659  0.7484072239043981  0.9994162038878525  1.0000
  H   H436      1.0  0.191767362468154  0.6776537366749024  0.05125517772475448  1.0000
  H   H437      1.0  0.1620099998847716  0.6837963404753459  0.05329440817382982  1.0000
  H   H438      1.0  0.16125876871872022  0.6582252978430275  0.017985529088116795  1.0000
  H   H439      1.0  0.21770573460800255  0.7135600860099449  0.9514092171651424  1.0000
  H   H440      1.0  0.19481979226864082  0.6756660263674852  0.9592468956872525  1.0000
  H   H441      1.0  0.22464540237121575  0.6958644857308216  0.993194216802437  1.0000
  H   H442      1.0  0.15262468394750647  0.6822811867180918  0.9603030851935394  1.0000
  H   H443      1.0  0.17543082117834988  0.7201877607446497  0.9522722085569798  1.0000
  H   H444      1.0  0.15196722721019043  0.7075110450371334  0.994812424344384  1.0000
  N   N26       1.0  0.3510106063933047  0.07130637876994053  0.42577878749800774  1.0000
  C   C317      1.0  0.3372132780132547  0.051557291705791104  0.3911906890124403  1.0000
  C   C318      1.0  0.35459195432893503  0.05546680699585768  0.4604142876334199  1.0000
  C   C319      1.0  0.33311185052259507  0.08357153176323165  0.43820536098372037  1.0000
  C   C320      1.0  0.3792611263311067  0.09472197175598136  0.41315052451919193  1.0000
  H   H445      1.0  0.35032473492926536  0.041948670420195955  0.38136507021769445  1.0000
  H   H446      1.0  0.33460496716061233  0.06292705171813567  0.3642786994152717  1.0000
  H   H447      1.0  0.31573683351002524  0.033623161151694426  0.3993714032411996  1.0000
  H   H448      1.0  0.36641773846627995  0.06997604310844788  0.4863559458548656  1.0000
  H   H449      1.0  0.3336529203301689  0.038434161621796165  0.4719731559311666  1.0000
  H   H450      1.0  0.36686739062778556  0.044818606499851456  0.4514450297953481  1.0000
  H   H451      1.0  0.3114711706154875  0.06652181600680913  0.44755044838183183  1.0000
  H   H452      1.0  0.3303503507812845  0.09601611550211524  0.4128821198468456  1.0000
  H   H453      1.0  0.3429951532477707  0.09838264765971878  0.4644915141580211  1.0000
  H   H454      1.0  0.3905208057775113  0.1100349695263437  0.4384389433723057  1.0000
  H   H455      1.0  0.3773282312294446  0.10715760188074555  0.3871764292882816  1.0000
  H   H456      1.0  0.3932222050216813  0.08620682966921947  0.4032089131652561  1.0000
  N   N27       1.0  0.4558800873847287  0.42093851794212434  0.8322302902555035  1.0000
  C   C321      1.0  0.44364574873199725  0.4305844146789904  0.799095747417953  1.0000
  C   C322      1.0  0.48693312395061633  0.4411232255139123  0.8358584923977996  1.0000
  C   C323      1.0  0.4510917554217164  0.3921082465660192  0.8226737556861519  1.0000
  C   C324      1.0  0.44188105613243595  0.4198082108503667  0.8710452252500605  1.0000
  H   H457      1.0  0.42018287224730677  0.4159985183235887  0.7957360606217133  1.0000
  H   H458      1.0  0.45324955698860486  0.43089351695016975  0.7691771571426586  1.0000
  H   H459      1.0  0.4471871840586428  0.4524609801820601  0.8047965157496019  1.0000
  H   H460      1.0  0.49720462440984897  0.4336540743323795  0.8589420273108661  1.0000
  H   H461      1.0  0.49779042063926937  0.4432018187414155  0.8064693702604164  1.0000
  H   H462      1.0  0.4913899178468099  0.46286703611133434  0.8445696236224287  1.0000
  H   H463      1.0  0.46012346267545595  0.3839658383758303  0.8466719227626299  1.0000
  H   H464      1.0  0.46143280238703605  0.3923134418750001  0.7936902694640134  1.0000
  H   H465      1.0  0.4279416905629805  0.3763124105328065  0.8191973280076232  1.0000
  H   H466      1.0  0.4507746595351059  0.4127782845459311  0.8966846128408642  1.0000
  H   H467      1.0  0.4185225169107701  0.4043162924615879  0.8693871375007661  1.0000
  H   H468      1.0  0.4444501651646215  0.44103614956716647  0.8789566312247855  1.0000
  N   N28       1.0  0.030941544087847536  0.4822005287443257  0.933275563473161  1.0000
  C   C325      1.0  0.05970438351486183  0.4856319315527319  0.9392557609941001  1.0000
  C   C326      1.0  0.029328396549328097  0.5051523557109645  0.955397572211928  1.0000
  C   C327      1.0  0.00925829792525768  0.453928453081256  0.9491810501111796  1.0000
  C   C328      1.0  0.02559102646412879  0.4840216057595569  0.889329328269825  1.0000
  H   H469      1.0  0.061817024841424095  0.4688354171885086  0.9228252349521889  1.0000
  H   H470      1.0  0.06428431972365917  0.48404745195603915  0.9720494894810068  1.0000
  H   H471      1.0  0.07665360427621426  0.5068453992814368  0.9280084190207722  1.0000
  H   H472      1.0  0.008121414377587385  0.5036783220040241  0.9510396498287261  1.0000
  H   H473      1.0  0.03279906237508224  0.5039433994946063  0.9887711676407511  1.0000
  H   H474      1.0  0.0459923781122548  0.5268601695510334  0.9450764595011996  1.0000
  H   H475      1.0  0.012181731791281614  0.45216651431752913  0.9825418526436853  1.0000
  H   H476      1.0  0.010619729195856577  0.4361573324720801  0.9341607713676137  1.0000
  H   H477      1.0  0.9871950330459327  0.45017014134891675  0.9440412011560131  1.0000
  H   H478      1.0  0.004035427805668033  0.48150423977863505  0.8835811767175351  1.0000
  H   H479      1.0  0.02664995911689051  0.46687455373402204  0.8719523258582995  1.0000
  H   H480      1.0  0.041644900774812095  0.5050561247270885  0.8762928999135658  1.0000
  N   N29       1.0  0.8084458650843417  0.3057335265559173  0.24061142249316306  1.0000
  C   C329      1.0  0.7794135626659333  0.2935277607411638  0.2225951553542453  1.0000
  C   C330      1.0  0.8161747165025979  0.28296961207675025  0.24472097345723773  1.0000
  C   C331      1.0  0.8089456692435124  0.3176182394935029  0.28114337157053343  1.0000
  C   C332      1.0  0.8292174855684878  0.32887137737092875  0.2140611710312114  1.0000
  H   H481      1.0  0.7728930634948258  0.31013286460655376  0.21915266791413673  1.0000
  H   H482      1.0  0.7632539228396755  0.2760319105020131  0.2420911235966931  1.0000
  H   H483      1.0  0.7781804689109605  0.28427940435006577  0.19200297091227103  1.0000
  H   H484      1.0  0.8374218912471697  0.29101468420023235  0.26001956116483144  1.0000
  H   H485      1.0  0.8002311112323635  0.26455628530182645  0.26308371599204977  1.0000
  H   H486      1.0  0.8172220012582311  0.27435241205647176  0.21458602133454283  1.0000
  H   H487      1.0  0.7930083293352955  0.30102813653392374  0.30173789436575454  1.0000
  H   H488      1.0  0.8041871495463221  0.3355430284083076  0.2790245233400434  1.0000
  H   H489      1.0  0.8303723145331361  0.32648067845538936  0.2959739127993784  1.0000
  H   H490      1.0  0.8513272264984194  0.3383997792697407  0.2268252534331937  1.0000
  H   H491      1.0  0.8244235211572533  0.34674160274690435  0.2110633806658459  1.0000
  H   H492      1.0  0.8293294055560971  0.32091435717056954  0.18301497681803225  1.0000
  N   N30       1.0  0.3967362955234249  0.9298613268701048  0.15109794496403728  1.0000
  C   C333      1.0  0.40476803571797654  0.907781265631213  0.16048632028970544  1.0000
  C   C334      1.0  0.36640164730239244  0.9157317157438694  0.1379748258337337  1.0000
  C   C335      1.0  0.4149350805742821  0.9485996946991458  0.1180436014543718  1.0000
  C   C336      1.0  0.4007948722549334  0.9472728655098922  0.18772648139581397  1.0000
  H   H493      1.0  0.39121491892803567  0.8929175438108307  0.18484810434473145  1.0000
  H   H494      1.0  0.42751230358711556  0.917578089392205  0.1705743956113652  1.0000
  H   H495      1.0  0.4021222558662021  0.8945023327458347  0.13316898200142183  1.0000
  H   H496      1.0  0.3597285857974134  0.9316509081277475  0.12944640066842997  1.0000
  H   H497      1.0  0.3624362526899404  0.9018615545275032  0.11102805133990716  1.0000
  H   H498      1.0  0.3519249403852019  0.9018963074750858  0.1624064039808622  1.0000
  H   H499      1.0  0.4116110534956105  0.936270720645622  0.08957752706393964  1.0000
  H   H500      1.0  0.43804527440449587  0.9588026521116815  0.12624449611242244  1.0000
  H   H501      1.0  0.410061040234043  0.9659719574223014  0.11076938465372688  1.0000
  H   H502      1.0  0.42354792362486116  0.9587703328076379  0.1980523178928559  1.0000
  H   H503      1.0  0.38765984170550377  0.9337542878210837  0.21345327270576545  1.0000
  H   H504      1.0  0.39433401411562763  0.9637398664230394  0.18172390824843132  1.0000
  N   N31       1.0  0.9702026667410745  0.6928420593914297  0.33244396727533176  1.0000
  C   C337      1.0  0.9772839447895993  0.7115086306903241  0.3684534227581139  1.0000
  C   C338      1.0  0.9400464766059545  0.6821644263552044  0.3203354247918973  1.0000
  C   C339      1.0  0.9744082633844832  0.6683374926252635  0.34272720286993  1.0000
  C   C340      1.0  0.9889623116199001  0.7091832290566636  0.2982815993262505  1.0000
  H   H505      1.0  0.9999143443128471  0.7200048483112177  0.3784150384477454  1.0000
  H   H506      1.0  0.9634810723921386  0.6995010148737291  0.3946912421828959  1.0000
  H   H507      1.0  0.9741367963648884  0.7301395228265989  0.36195622414997725  1.0000
  H   H508      1.0  0.9340678927697539  0.6681960540317722  0.2929696347350955  1.0000
  H   H509      1.0  0.9252435203469959  0.6693271958402852  0.3452038515561866  1.0000
  H   H510      1.0  0.9359675189558359  0.7000380922737512  0.3126075136365375  1.0000
  H   H511      1.0  0.9699868162899006  0.6542560027433917  0.3158726305494624  1.0000
  H   H512      1.0  0.959939299287943  0.6549341463523001  0.3675654727585411  1.0000
  H   H513      1.0  0.9967501434843551  0.6755137900431712  0.35287298889913066  1.0000
  H   H514      1.0  0.983946680288456  0.6954747574446157  0.2707016550432903  1.0000
  H   H515      1.0  0.011891137098944318  0.7173531180144529  0.30613154807162407  1.0000
  H   H516      1.0  0.9863336962431518  0.7278150342371865  0.2895191705812407  1.0000
  N   N32       1.0  0.8484853682383823  0.27938938531943536  0.8498570352808329  1.0000
  C   C341      1.0  0.8536386495249627  0.3090823388716482  0.8487723658545802  1.0000
  C   C342      1.0  0.861699413684431  0.2751197080780706  0.8871484271329103  1.0000
  C   C343      1.0  0.8614040644585919  0.27439574331167493  0.813860516950769  1.0000
  C   C344      1.0  0.8173494427115053  0.2590964831251574  0.8493037693398526  1.0000
  H   H517      1.0  0.8437956536379585  0.3129694833288723  0.8210457033020021  1.0000
  H   H518      1.0  0.8769602209220717  0.32496180318570184  0.8483892092230789  1.0000
  H   H519      1.0  0.844438606736371  0.31380861653005304  0.8756296811116188  1.0000
  H   H520      1.0  0.858430976988787  0.25299648448921397  0.8887664486892255  1.0000
  H   H521      1.0  0.885246699816961  0.29029643723433635  0.8879854114177117  1.0000
  H   H522      1.0  0.8525672371515591  0.2787895211314887  0.9150321547497785  1.0000
  H   H523      1.0  0.8575010127171954  0.2520545858311112  0.812968041375642  1.0000
  H   H524      1.0  0.8849705530385481  0.28912740944297605  0.8134047140815104  1.0000
  H   H525      1.0  0.8522900338013026  0.2780610460489586  0.7853328533870488  1.0000
  H   H526      1.0  0.8126042952063444  0.23644015057271767  0.8492357873331075  1.0000
  H   H527      1.0  0.8069737301158569  0.26215274897294166  0.8214479970143904  1.0000
  H   H528      1.0  0.8067930493786132  0.2620965187033437  0.8760868765411142  1.0000
  N   N33       1.0  0.11346869706951096  0.3907100095764618  0.15954583641565923  1.0000
  C   C345      1.0  0.09357017394368625  0.39845288203221  0.17860559149368108  1.0000
  C   C346      1.0  0.14077749548920002  0.4169931696147684  0.15051443806902728  1.0000
  C   C347      1.0  0.10056720032939846  0.37502496559707404  0.12131538525582411  1.0000
  C   C348      1.0  0.11888610094162538  0.37222260551973896  0.18772688050810535  1.0000
  H   H529      1.0  0.08887235702460625  0.4123118567690059  0.1582127723438827  1.0000
  H   H530      1.0  0.10240064130288075  0.4102179516417389  0.207668998793673  1.0000
  H   H531      1.0  0.07257305079542285  0.37910671268131163  0.18521692238674514  1.0000
  H   H532      1.0  0.15620494033023916  0.41195742920393413  0.13572225647790742  1.0000
  H   H533      1.0  0.13757507003869016  0.4314521636980426  0.12922117845191008  1.0000
  H   H534      1.0  0.1511845225617946  0.42944940833680845  0.17860817412244145  1.0000
  H   H535      1.0  0.11493281248743399  0.36887925111323655  0.10587378651439214  1.0000
  H   H536      1.0  0.09604357359402454  0.3883181918684545  0.0995840949725815  1.0000
  H   H537      1.0  0.07975634731660196  0.355183425080259  0.12683685248838697  1.0000
  H   H538      1.0  0.13378096696482175  0.3659167998457957  0.17430511907349744  1.0000
  H   H539      1.0  0.09868117446942586  0.3521922970998316  0.19506837081014025  1.0000
  H   H540      1.0  0.12857788770084072  0.38336881620732155  0.21697261291816083  1.0000
  N   N34       1.0  0.7564840290052789  0.10162808765285668  0.6395444661335292  1.0000
  C   C349      1.0  0.7370034055752842  0.0703155276003711  0.6369658792269999  1.0000
  C   C350      1.0  0.780276370565291  0.11027644993973111  0.6109408648878051  1.0000
  C   C351      1.0  0.7679480621962687  0.10932376458812434  0.6815599093618366  1.0000
  C   C352      1.0  0.740590492063101  0.11664130035082111  0.6286640861185114  1.0000
  H   H541      1.0  0.7188745483433326  0.06303891797936878  0.6584306817609478  1.0000
  H   H542      1.0  0.7482371682131302  0.058167119451530046  0.644422369911084  1.0000
  H   H543      1.0  0.7273709833987764  0.06385049399558944  0.6058899861524665  1.0000
  H   H544      1.0  0.7951698815941599  0.133846390491532  0.611884800529643  1.0000
  H   H545      1.0  0.7928671862405343  0.0994726518118306  0.6183426629419213  1.0000
  H   H546      1.0  0.7721929930402265  0.10459253249173577  0.5789950022634129  1.0000
  H   H547      1.0  0.7825817350886985  0.1328587595646937  0.6846847663779857  1.0000
  H   H548      1.0  0.7799209014844523  0.09827356289541088  0.6911171974112146  1.0000
  H   H549      1.0  0.7504866799810536  0.10343065873250357  0.7037776668761959  1.0000
  H   H550      1.0  0.732519394229816  0.11225626209155531  0.5966568321641379  1.0000
  H   H551      1.0  0.7540552349670377  0.14027764585509836  0.6324764404216746  1.0000
  H   H552      1.0  0.7217523605317273  0.10944993177430681  0.6484322161683332  1.0000
  N   N35       1.0  0.4134983777347148  0.2584122845438277  0.5968897563474552  1.0000
  C   C353      1.0  0.3979679929229831  0.2725034138258184  0.6121645103504187  1.0000
  C   C354      1.0  0.39545169986505135  0.22701729275587312  0.601543823827199  1.0000
  C   C355      1.0  0.4403292925655485  0.26835842355776895  0.6206205502421985  1.0000
  C   C356      1.0  0.4202239682126434  0.2659033706836141  0.5534622562923232  1.0000
  H   H553      1.0  0.41182218143637134  0.2962080453485269  0.6124690384046964  1.0000
  H   H554      1.0  0.390627486615049  0.265695593038797  0.6438045379366657  1.0000
  H   H555      1.0  0.37867646449387893  0.2672439853767408  0.5931922071780232  1.0000
  H   H556      1.0  0.3748376183448291  0.21882079395295836  0.5845216316984463  1.0000
  H   H557      1.0  0.40641621094208474  0.21556806611082444  0.5903293219679675  1.0000
  H   H558      1.0  0.39026147571043335  0.2208982748458281  0.6341940527238247  1.0000
  H   H559      1.0  0.45225966676242246  0.2575621942124235  0.6108102584102669  1.0000
  H   H560      1.0  0.43599620112042725  0.26381301477192515  0.6537111636708816  1.0000
  H   H561      1.0  0.45471298298519913  0.2919149086750294  0.6172204947476423  1.0000
  H   H562      1.0  0.400477506512618  0.2590453830198138  0.5346556903335606  1.0000
  H   H563      1.0  0.4319352664324244  0.25566434037588515  0.5407270725757555  1.0000
  H   H564      1.0  0.43376270343855444  0.2895209280881093  0.5492134767957667  1.0000
  N   N36       1.0  0.5596468741167584  0.5584974186944954  0.8397994098991801  1.0000
  C   C357      1.0  0.5630952073573513  0.5750803458163829  0.8020080110478397  1.0000
  C   C358      1.0  0.5588523936161348  0.5748317321235868  0.8751599192128648  1.0000
  C   C359      1.0  0.5839643147396252  0.5532098756966326  0.8446933925658487  1.0000
  C   C360      1.0  0.5326980898192551  0.530813689280585  0.8372381505801735  1.0000
  H   H565      1.0  0.583552806891653  0.5957657306185744  0.8023598915632628  1.0000
  H   H566      1.0  0.5454822476671338  0.5800233249687355  0.7976230316503302  1.0000
  H   H567      1.0  0.5633263351816027  0.5631372998439971  0.7746689519383398  1.0000
  H   H568      1.0  0.5414702064383948  0.5802453530274994  0.8719772193275348  1.0000
  H   H569      1.0  0.5556094168470593  0.5627129975529808  0.9041266677463383  1.0000
  H   H570      1.0  0.5792678665430561  0.5953408581643777  0.8786610027385166  1.0000
  H   H571      1.0  0.5826130912380161  0.541422594605618  0.8733732378903454  1.0000
  H   H572      1.0  0.6047443547916547  0.5736361763177836  0.8454883927220015  1.0000
  H   H573      1.0  0.5848299478874842  0.5403882926514125  0.8190135512900757  1.0000
  H   H574      1.0  0.5295463976669612  0.5176805251982053  0.8651257931255523  1.0000
  H   H575      1.0  0.5327260974474636  0.5181004858457281  0.8106710602066344  1.0000
  H   H576      1.0  0.5139360856756633  0.5340754951277564  0.8334899676580478  1.0000
