data_image0
_chemical_formula_structural       FeS2FeS2FeSFeS3FeS2FeS2FeSFeS3FeS2FeS2FeSFeS3FeS2FeS2FeSFeS3FeS2FeS2FeSFeS3FeS2FeS2FeSFeS3FeS2FeS2FeSFeS3FeS2FeS2FeSFeS3FeS2FeS2FeSFeS3FeS2FeS2FeSFeS3FeS2FeS2FeSFeS3FeS2FeS2FeSFeS3FeS2FeS2FeSFeS3FeS2FeS2FeSFeS3FeS2FeS2FeSFeS3FeS2FeS2FeSFeS3FeS2FeS2FeSFeS3FeS2FeS2FeSFeS3FeS2FeS2FeSFeS3FeS2FeS2FeSFeS3C6H4C6H4C6H4C6H4C6H4C6H4C6H4C6H4C6H4C6H4C6H4C6H4C6H4C6H4C6H4C6H4C6H4C6H4C6H4C6H4C6H4C6H4C6H4C6H4C6H4C6H4C6H4C6H4C6H4C6H4C6H4C6H4C6H4C6H4C6H4C6H4C6H4C6H4C6H4C6H4NC4H12NC4H12NC4H12NC4H12NC4H12NC4H12NC4H12NC4H12NC4H12NC4H12NC4H12NC4H12NC4H12NC4H12NC4H12NC4H12NC4H12NC4H12NC4H12NC4H12NC4H12NC4H12NC4H12NC4H12NC4H12NC4H12NC4H12NC4H12NC4H12NC4H12NC4H12NC4H12NC4H12NC4H12NC4H12NC4H12NC4H12NC4H12NC4H12NC4H12
_chemical_formula_sum              "Fe80 S160 C400 H640 N40"
_cell_length_a       38.380869933594425
_cell_length_b       42.01133927914512
_cell_length_c       45.30270901678298
_cell_angle_alpha    90.4109851609574
_cell_angle_beta     91.4529787201067
_cell_angle_gamma    91.19079496085921

_space_group_name_H-M_alt    "P 1"
_space_group_IT_number       1

loop_
  _space_group_symop_operation_xyz
  'x, y, z'

loop_
  _atom_site_type_symbol
  _atom_site_label
  _atom_site_symmetry_multiplicity
  _atom_site_fract_x
  _atom_site_fract_y
  _atom_site_fract_z
  _atom_site_occupancy
  Fe  Fe1       1.0  0.44961231699220466  0.371592256756164  0.19880177343675126  1.0000
  S   S1        1.0  0.48323899736394194  0.3287172238854957  0.20305051985292388  1.0000
  S   S2        1.0  0.46311518086203907  0.41441828424375043  0.17151496477514683  1.0000
  Fe  Fe2       1.0  0.391577367844715  0.34130501276567776  0.2341190043477229  1.0000
  S   S3        1.0  0.4203464425075365  0.29614324897133554  0.24141664926983505  1.0000
  S   S4        1.0  0.33742832019976565  0.3425213094259481  0.25115470386539007  1.0000
  Fe  Fe3       1.0  0.46626458315793096  0.3287430290895342  0.25001594323826676  1.0000
  S   S5        1.0  0.5038088083649555  0.32076271381311766  0.28752534948943703  1.0000
  Fe  Fe4       1.0  0.43387650046062104  0.30078431144430057  0.1938845700566951  1.0000
  S   S6        1.0  0.4315365089440692  0.2577513296638486  0.16424419895495732  1.0000
  S   S7        1.0  0.43654145766578467  0.37398622190086744  0.24673751733525034  1.0000
  S   S8        1.0  0.4013405013070837  0.3435678054559421  0.18568762793692714  1.0000
  Fe  Fe5       1.0  0.5264520597036335  0.1602743110471077  0.34315399602884766  1.0000
  S   S9        1.0  0.47162209200478156  0.1677175545277211  0.35630565114542423  1.0000
  S   S10       1.0  0.5451384726188503  0.17710137347635274  0.29942690228275476  1.0000
  Fe  Fe6       1.0  0.5467243643258307  0.13079604875591747  0.401413032102507  1.0000
  S   S11       1.0  0.49359273158113903  0.13596930781243352  0.4203826299301619  1.0000
  S   S12       1.0  0.5922831083543052  0.10771572487943148  0.4240188496606436  1.0000
  Fe  Fe7       1.0  0.4745866394136868  0.11912777154564846  0.37568133840481593  1.0000
  S   S13       1.0  0.4260847372133536  0.08982240123320277  0.3671995488951627  1.0000
  Fe  Fe8       1.0  0.4949507918535256  0.18419146812148057  0.39945975809413264  1.0000
  S   S14       1.0  0.4705946420325802  0.228056146529622  0.41737315298193167  1.0000
  S   S15       1.0  0.5276551162106164  0.1096884922752803  0.3582972540292044  1.0000
  S   S16       1.0  0.5501154060883129  0.1810327072432087  0.38484402350534674  1.0000
  Fe  Fe9       1.0  0.2812762888790953  0.11235634545923708  0.25659237037406785  1.0000
  S   S17       1.0  0.3101465425946139  0.07069092273558338  0.23945872557850864  1.0000
  S   S18       1.0  0.2675429512437074  0.11547971118382372  0.30439708631653173  1.0000
  Fe  Fe10      1.0  0.28887604867001965  0.14939453628126  0.1997008539182215  1.0000
  S   S19       1.0  0.3189933562271708  0.11099351857170078  0.17771838209572804  1.0000
  S   S20       1.0  0.28121815746224643  0.19862005003119823  0.1820898601082909  1.0000
  Fe  Fe11      1.0  0.27925099147648685  0.07816220021712736  0.1976093706456506  1.0000
  S   S21       1.0  0.258191980937002  0.034433802164478576  0.17413884542107405  1.0000
  Fe  Fe12      1.0  0.34691645051322256  0.10738656522823052  0.221540602283221  1.0000
  S   S22       1.0  0.4046390251760777  0.10598983022169119  0.22988881786980978  1.0000
  S   S23       1.0  0.24648112871135264  0.11688781991156609  0.21627735662813113  1.0000
  S   S24       1.0  0.3203278576737397  0.14856505365923614  0.24175954966759522  1.0000
  Fe  Fe13      1.0  0.29395912177084327  0.309204978332149  0.4018983453554021  1.0000
  S   S25       1.0  0.2372422842066504  0.3171039436625916  0.39217840143091637  1.0000
  S   S26       1.0  0.336950239224073  0.3435322061472826  0.3903047115905568  1.0000
  Fe  Fe14      1.0  0.28157024304859163  0.24147046442822281  0.42199124135422245  1.0000
  S   S27       1.0  0.22364778384951794  0.24330424227639721  0.4145708617938549  1.0000
  S   S28       1.0  0.3104728377279717  0.19674362920853608  0.43161599506829806  1.0000
  Fe  Fe15      1.0  0.23691416755997613  0.26803353403931013  0.3724762734011016  1.0000
  S   S29       1.0  0.2159069998460743  0.25450758544860264  0.3273249417563618  1.0000
  Fe  Fe16      1.0  0.2293218703026089  0.2920044527270523  0.4351132459931224  1.0000
  S   S30       1.0  0.18944561938493898  0.3115446485116479  0.4653607443954815  1.0000
  S   S31       1.0  0.2942954695163481  0.26245288101157876  0.37838508762982875  1.0000
  S   S32       1.0  0.286383594530783  0.28806871832173053  0.4466183231335165  1.0000
  Fe  Fe17      1.0  0.740688797257387  0.41068324813628054  0.853132830508  1.0000
  S   S33       1.0  0.7546798045355199  0.3671139699539521  0.8785395221321156  1.0000
  S   S34       1.0  0.6945588570281077  0.43743516122679604  0.8686490366260339  1.0000
  Fe  Fe18      1.0  0.7984838929512363  0.4031040199796775  0.8104747256252148  1.0000
  S   S35       1.0  0.8181676613556599  0.35894438909593307  0.8318061744007792  1.0000
  S   S36       1.0  0.8248443881247626  0.4201301809526041  0.7698374886681032  1.0000
  Fe  Fe19      1.0  0.7619190039960418  0.34457643506189456  0.8343025752176668  1.0000
  S   S37       1.0  0.7487145540269341  0.29268017510414784  0.8282174860804171  1.0000
  Fe  Fe20      1.0  0.8096544987167532  0.3846334984719974  0.8742799867948672  1.0000
  S   S38       1.0  0.8483480544871315  0.3777910095646985  0.9114890714203605  1.0000
  S   S39       1.0  0.7424782399193851  0.3864657074978554  0.8088531185548392  1.0000
  S   S40       1.0  0.7954245978257675  0.4307197550278896  0.8528772782365479  1.0000
  Fe  Fe21      1.0  0.991977405911425  0.3471910397811955  0.6969214658553005  1.0000
  S   S41       1.0  0.046579353922629796  0.32986885522654763  0.6932938467424399  1.0000
  S   S42       1.0  0.9475897136619824  0.3323408071615767  0.6664343510690952  1.0000
  Fe  Fe22      1.0  0.008289934085797812  0.38483001338477063  0.7529787758793712  1.0000
  S   S43       1.0  0.06420576936728684  0.37079605232896384  0.7545934590400456  1.0000
  S   S44       1.0  0.9874517355488116  0.41440599300995373  0.7895908254409487  1.0000
  Fe  Fe23      1.0  0.062006378281725505  0.37991873894414924  0.7059337146268525  1.0000
  S   S45       1.0  0.10567769759459522  0.4079154135304849  0.6860885561289215  1.0000
  Fe  Fe24      1.0  0.04335411891137908  0.3222275835293037  0.7421332692827391  1.0000
  S   S46       1.0  0.05956211105649345  0.2766317196119505  0.7632790620603744  1.0000
  S   S47       1.0  0.0075526663231451074  0.39829143970294084  0.7052328584947151  1.0000
  S   S48       1.0  0.987352957110606  0.33538903587837715  0.7448030673544259  1.0000
  Fe  Fe25      1.0  0.8232686811029388  0.155383616217582  0.7462327064877954  1.0000
  S   S49       1.0  0.775020563246718  0.15583330486798203  0.7172193543107657  1.0000
  S   S50       1.0  0.8200723266321939  0.14568140788127976  0.7946646565194956  1.0000
  Fe  Fe26      1.0  0.8703881466840112  0.17618532459579808  0.6968146161787924  1.0000
  S   S51       1.0  0.8262065847561352  0.17994606865115612  0.6641286395214185  1.0000
  S   S52       1.0  0.9252193723486949  0.18467686058846983  0.6828168011533912  1.0000
  Fe  Fe27      1.0  0.797717595292829  0.20211819889273172  0.7012265099936935  1.0000
  S   S53       1.0  0.7680281660598441  0.24728471873943006  0.6969233684991685  1.0000
  Fe  Fe28      1.0  0.8086861648784842  0.1335138235014788  0.683247453139938  1.0000
  S   S54       1.0  0.7989911621544319  0.09289935974612366  0.6516149747626013  1.0000
  S   S55       1.0  0.8440477534064562  0.20306351881048926  0.7323660130998347  1.0000
  S   S56       1.0  0.8548254407440431  0.12842768244247613  0.7140537876250657  1.0000
  Fe  Fe29      1.0  0.9857486950911906  0.18443620569862473  0.9547652888247804  1.0000
  S   S57       1.0  0.021638037398252985  0.18657569356498646  0.9163884760058959  1.0000
  S   S58       1.0  0.0009931263874149998  0.16331309924693654  0.9983911110441536  1.0000
  Fe  Fe30      1.0  0.9269114332675257  0.21675733442374734  0.922005235877577  1.0000
  S   S59       1.0  0.9575392342699892  0.22248609042093068  0.8809514899899785  1.0000
  S   S60       1.0  0.8706727169943314  0.23000730877383513  0.9206565369705583  1.0000
  Fe  Fe31      1.0  0.9737389829311419  0.17239482394689404  0.8895183736180481  1.0000
  S   S61       1.0  0.9707844057990199  0.1365833756189866  0.8524626695123493  1.0000
  Fe  Fe32      1.0  0.0020000439112599633  0.2362741921282087  0.9115388049083792  1.0000
  S   S62       1.0  0.03405410204247361  0.2794583732181525  0.9002321715238392  1.0000
  S   S63       1.0  0.9396833575066684  0.16554026839249827  0.9284005797204942  1.0000
  S   S64       1.0  0.9697818201647039  0.23547274837650564  0.9521606386320219  1.0000
  Fe  Fe33      1.0  0.775302606353672  0.8824164834386619  0.35074134797090106  1.0000
  S   S65       1.0  0.7586287957421366  0.8310666538385948  0.3477784248238965  1.0000
  S   S66       1.0  0.8290035596658177  0.8969945549703029  0.3373629039359606  1.0000
  Fe  Fe34      1.0  0.7081445899388148  0.9031067577248302  0.37694770381356724  1.0000
  S   S67       1.0  0.6848960848407154  0.8536282324840732  0.37646174570667856  1.0000
  S   S68       1.0  0.6762799412200868  0.9435036754062786  0.39359891038268596  1.0000
  Fe  Fe35      1.0  0.7376326589142324  0.8387476698355606  0.3928445881380248  1.0000
  S   S69       1.0  0.7420306104562894  0.8001156117310328  0.4268136503359284  1.0000
  Fe  Fe36      1.0  0.7075642453594755  0.8499969621285984  0.3315300996595625  1.0000
  S   S70       1.0  0.681383645273714  0.8255727430558885  0.2925412441005541  1.0000
  S   S71       1.0  0.7590938773806295  0.8885403709303168  0.39761297235883564  1.0000
  S   S72       1.0  0.726132317908091  0.9009263218539667  0.33027206176455587  1.0000
  Fe  Fe37      1.0  0.9399674571090483  0.6749080575026608  0.40520610310552785  1.0000
  S   S73       1.0  0.9267544272319183  0.6314510346243498  0.43125937611848564  1.0000
  S   S74       1.0  0.9651435577694154  0.6697005751857367  0.36124912725517816  1.0000
  Fe  Fe38      1.0  0.9092686370116945  0.7196620461673227  0.4498618269963253  1.0000
  S   S75       1.0  0.8931736528383668  0.680281493918953  0.4801326981467809  1.0000
  S   S76       1.0  0.8997456156722838  0.7716930582797784  0.45617040203554815  1.0000
  Fe  Fe39      1.0  0.945633081106812  0.6602547778696223  0.4704583882545905  1.0000
  S   S77       1.0  0.9820848745664156  0.6412839630777406  0.5054918539564133  1.0000
  Fe  Fe40      1.0  0.8758155002410679  0.6550154522325381  0.43831553088654707  1.0000
  S   S78       1.0  0.8253399017879414  0.6277652524448363  0.4315044283126178  1.0000
  S   S79       1.0  0.9633712877181638  0.7020283815045948  0.44376055937111225  1.0000
  S   S80       1.0  0.8873579377293592  0.6963057589021877  0.4087710517065555  1.0000
  Fe  Fe41      1.0  0.6921161400581993  0.5943244439314617  0.24649767357899516  1.0000
  S   S81       1.0  0.7455531803886367  0.6044702560260535  0.22986448437830692  1.0000
  S   S82       1.0  0.664363262445467  0.5501266195242327  0.22964035797009735  1.0000
  Fe  Fe42      1.0  0.6933306171081832  0.6511971295937297  0.28675967940276637  1.0000
  S   S83       1.0  0.7469910749754403  0.6668051376730112  0.2744513239711029  1.0000
  S   S84       1.0  0.6661034123142562  0.6793308031613584  0.3210275935468778  1.0000
  Fe  Fe43      1.0  0.7290722192975005  0.6552279512722812  0.2282022810912404  1.0000
  S   S85       1.0  0.7476726239375826  0.6875458382122751  0.19224577549650007  1.0000
  Fe  Fe44      1.0  0.7598619314129051  0.6152448658267037  0.2770966497023124  1.0000
  S   S86       1.0  0.8134581525979794  0.6037902793928954  0.2941658853514154  1.0000
  S   S87       1.0  0.6736969487997324  0.6442950255415598  0.24005778089192484  1.0000
  S   S88       1.0  0.707810797557548  0.6003648669531662  0.294302310640891  1.0000
  Fe  Fe45      1.0  0.904587687405903  0.8167932744574041  0.21267439849998673  1.0000
  S   S89       1.0  0.9578669967094772  0.8376749702785204  0.2217092581853538  1.0000
  S   S90       1.0  0.8571946435025332  0.84680290810432  0.20899318613575418  1.0000
  Fe  Fe46      1.0  0.9295119730975371  0.7490118590378309  0.21147979383809862  1.0000
  S   S91       1.0  0.9854768984207712  0.7635961814608474  0.2197676521715537  1.0000
  S   S92       1.0  0.911090908228789  0.6980044291049078  0.21074053635306006  1.0000
  Fe  Fe47      1.0  0.9639705105987436  0.7971039881480217  0.25320260052020327  1.0000
  S   S93       1.0  0.9838594216356635  0.8029352418250248  0.2999726498419953  1.0000
  Fe  Fe48      1.0  0.9744567297829249  0.8026352288994871  0.18749987857441097  1.0000
  S   S94       1.0  0.009620282394398494  0.8147599201448131  0.15009554633005087  1.0000
  S   S95       1.0  0.9088114278988484  0.7795256437593828  0.24739417658661395  1.0000
  S   S96       1.0  0.9202042087619084  0.7847214572215787  0.17589443794136672  1.0000
  Fe  Fe49      1.0  0.49311632473056904  0.6551473471668401  0.9345928573911803  1.0000
  S   S97       1.0  0.46773202802703107  0.6231518344349897  0.9002779197039874  1.0000
  S   S98       1.0  0.531313944534754  0.6386989227999634  0.96934326561711  1.0000
  Fe  Fe50      1.0  0.45385463343304355  0.7129417887021673  0.914250397401712  1.0000
  S   S99       1.0  0.4248401976843966  0.6861950816009031  0.8781965776009162  1.0000
  S   S100      1.0  0.44484111864139375  0.7651638428598325  0.9191192254172061  1.0000
  Fe  Fe51      1.0  0.41876126864020746  0.647887710271782  0.9118023060141672  1.0000
  S   S101      1.0  0.36754903003057554  0.6213806398735602  0.9142413422021641  1.0000
  Fe  Fe52      1.0  0.4762042234397021  0.6640971889166197  0.8696566093435556  1.0000
  S   S102      1.0  0.4900310581016592  0.6562609893664304  0.8223648841229364  1.0000
  S   S103      1.0  0.4431476604663916  0.6766885238005912  0.9489693242989942  1.0000
  S   S104      1.0  0.5061880844448429  0.6942140231481425  0.9029549641801765  1.0000
  Fe  Fe53      1.0  0.4026512739483997  0.8052684729876726  0.6943354092106279  1.0000
  S   S105      1.0  0.41105668755007757  0.7782054247564749  0.6523564220951446  1.0000
  S   S106      1.0  0.35168429405676194  0.8282574440496117  0.7025375694555887  1.0000
  Fe  Fe54      1.0  0.47205890042626597  0.786490052456438  0.7215391201712437  1.0000
  S   S107      1.0  0.4860506377289428  0.7574314020893055  0.6821677401002438  1.0000
  S   S108      1.0  0.5081024287715753  0.7896101351306775  0.7613255285613921  1.0000
  Fe  Fe55      1.0  0.465651612658044  0.7986694530335995  0.656305137471871  1.0000
  S   S109      1.0  0.49669590225151583  0.8147047354049636  0.6173528908569215  1.0000
  Fe  Fe56      1.0  0.43055940071384347  0.7399743796720026  0.6823982053609446  1.0000
  S   S110      1.0  0.41386307540825096  0.6884444806009946  0.6814153478166511  1.0000
  S   S111      1.0  0.4553909895254962  0.8291613410555574  0.6959558713257474  1.0000
  S   S112      1.0  0.4181903139972306  0.7655920891658762  0.7241169581388778  1.0000
  Fe  Fe57      1.0  0.27582738530339623  0.6007564161772819  0.7694110771763024  1.0000
  S   S113      1.0  0.26295962367416664  0.6521107255491928  0.7739532002869752  1.0000
  S   S114      1.0  0.33070707305137076  0.5873543940065947  0.7810227284385888  1.0000
  Fe  Fe58      1.0  0.2048879813574241  0.5832095510587361  0.742660856277272  1.0000
  S   S115      1.0  0.18568164344918528  0.6332671291562078  0.7448140730257047  1.0000
  S   S116      1.0  0.17475339784521673  0.5430578204799518  0.7203156114539134  1.0000
  Fe  Fe59      1.0  0.2387471401530807  0.6467740084480547  0.7288145908676777  1.0000
  S   S117      1.0  0.25054622637179963  0.6833227875382577  0.6943483976733752  1.0000
  Fe  Fe60      1.0  0.21158662692238878  0.6340337817380427  0.7898283728963091  1.0000
  S   S118      1.0  0.19117808403811276  0.6596450912426005  0.829203569133674  1.0000
  S   S119      1.0  0.25583525678006364  0.5966586512467257  0.7227073692774307  1.0000
  S   S120      1.0  0.22639558631237533  0.5825495727085586  0.7892978226413568  1.0000
  Fe  Fe61      1.0  0.27080418082955854  0.8263602015465192  0.8958361240578083  1.0000
  S   S121      1.0  0.28764073588648104  0.8776646552148571  0.8975632235484942  1.0000
  S   S122      1.0  0.2849235287114303  0.79105794043195  0.9308187579198405  1.0000
  Fe  Fe62      1.0  0.23379482086495715  0.8323683372124395  0.8366415607995894  1.0000
  S   S123      1.0  0.24677804226000902  0.8844864974060068  0.8330415732785527  1.0000
  S   S124      1.0  0.20792156021193026  0.805240849501598  0.799006980614131  1.0000
  Fe  Fe63      1.0  0.2997508621947684  0.8709536447059937  0.8498680985654943  1.0000
  S   S125      1.0  0.3500971919180262  0.8876296043412716  0.8305641251645316  1.0000
  Fe  Fe64      1.0  0.2332565229193903  0.8866700413385611  0.8808476190351044  1.0000
  S   S126      1.0  0.2060139831011934  0.9289993569246688  0.8991623620727887  1.0000
  S   S127      1.0  0.28800231363018813  0.8185651637063263  0.8496513896818529  1.0000
  S   S128      1.0  0.21512002306964617  0.83558526519256  0.8830857957589631  1.0000
  Fe  Fe65      1.0  0.06648851106899195  0.9723779074691673  0.09006697151958433  1.0000
  S   S129      1.0  0.05113730814544626  0.9490208003188743  0.04681448881670325  1.0000
  S   S130      1.0  0.04557204567620454  0.9607123220030641  0.13471393155393116  1.0000
  Fe  Fe66      1.0  0.11872343818348038  0.017276382265301038  0.06232830011289379  1.0000
  S   S131      1.0  0.10852509817291131  0.9975871931499222  0.01691321103198895  1.0000
  S   S132      1.0  0.15249583040339068  0.06094644856200726  0.06972063431971808  1.0000
  Fe  Fe67      1.0  0.052346280088686255  0.9984707624356469  0.02865119710689701  1.0000
  S   S133      1.0  0.016292593336177053  0.014285907656241312  0.9920418360757807  1.0000
  Fe  Fe68      1.0  0.10859716287128617  0.9499848890779541  0.0388963237346176  1.0000
  S   S134      1.0  0.1319062057259982  0.9060130880596288  0.019795282830971095  1.0000
  S   S135      1.0  0.062441981562733576  0.022008405248976626  0.07266795867591899  1.0000
  S   S136      1.0  0.12395284874282521  0.9695002448686024  0.08364451336100881  1.0000
  Fe  Fe69      1.0  0.18392154570642358  0.48503281649218266  0.5100612683953547  1.0000
  S   S137      1.0  0.12873855764552014  0.47990881484392023  0.4928746823485264  1.0000
  S   S138      1.0  0.2284386778208459  0.45438604742633204  0.49677415343206366  1.0000
  Fe  Fe70      1.0  0.16682474105310116  0.538345192459027  0.552263682852735  1.0000
  S   S139      1.0  0.1103927275099233  0.5376547617999285  0.538815048952374  1.0000
  S   S140      1.0  0.18481936201189753  0.5755496253396876  0.5853139096473073  1.0000
  Fe  Fe71      1.0  0.11449533048986996  0.48481865127433216  0.5402680921682941  1.0000
  S   S141      1.0  0.07010958883163418  0.45549244092844204  0.5577925926225906  1.0000
  Fe  Fe72      1.0  0.12956788375998574  0.5332036140195292  0.4928133296063464  1.0000
  S   S142      1.0  0.10281476113109106  0.5586052569462341  0.45550758543082537  1.0000
  S   S143      1.0  0.16975537918504455  0.4854973918634078  0.5576950387584065  1.0000
  S   S144      1.0  0.1861163863990652  0.5383215847288276  0.5058977485635459  1.0000
  Fe  Fe73      1.0  0.616236911750492  0.9576866069789253  0.5986228192264746  1.0000
  S   S145      1.0  0.667829999838544  0.9836297795343909  0.6008161616404587  1.0000
  S   S146      1.0  0.6021224376493843  0.930438295679078  0.6391834146908394  1.0000
  Fe  Fe74      1.0  0.5945637996988612  0.9887644717256245  0.540855540961435  1.0000
  S   S147      1.0  0.643659580421468  0.01842833679080264  0.5393272594045758  1.0000
  S   S148      1.0  0.5522135105031695  0.9935685429619132  0.5061568285059315  1.0000
  Fe  Fe75      1.0  0.6692692940286776  0.9731144897558907  0.5523718910487236  1.0000
  S   S149      1.0  0.7166360152237895  0.9590579289556649  0.5281289458579935  1.0000
  Fe  Fe76      1.0  0.6368621663040525  0.02600294850850582  0.5874775492350883  1.0000
  S   S150      1.0  0.6425144351566423  0.07382804529745522  0.6094975540725309  1.0000
  S   S151      1.0  0.6205403463006759  0.9426226982737824  0.5511785386016562  1.0000
  S   S152      1.0  0.5850707093006419  0.0008334072366682488  0.5881794790708426  1.0000
  Fe  Fe77      1.0  0.6138881743040854  0.44446070446755825  0.07169628707512148  1.0000
  S   S153      1.0  0.6646769044530129  0.4716580684931535  0.07742772878580868  1.0000
  S   S154      1.0  0.6026679884453275  0.40359072523401057  0.10209143050651306  1.0000
  Fe  Fe78      1.0  0.5909741345300898  0.48266072362783297  0.018829636965254578  1.0000
  S   S155      1.0  0.6393507224635615  0.5132615897590933  0.020023662073461495  1.0000
  S   S156      1.0  0.5514867858174293  0.4908819024231654  0.9824735528136017  1.0000
  Fe  Fe79      1.0  0.6671360785172618  0.46788669940540845  0.028222279962235763  1.0000
  S   S157      1.0  0.7175277262091628  0.4608855841528011  0.005196350193491073  1.0000
  Fe  Fe80      1.0  0.6323909643281982  0.5146164212875828  0.06885443312489982  1.0000
  S   S158      1.0  0.6379486353884569  0.5616158985054391  0.0925720727172759  1.0000
  S   S159      1.0  0.6192469428792775  0.4366675843545064  0.023017102699726788  1.0000
  S   S160      1.0  0.5811917169468542  0.48797930580329196  0.06717547460264175  1.0000
  C   C1        1.0  0.18589486705720157  0.9221996411896453  0.932738272210276  1.0000
  C   C2        1.0  0.17341510706163357  0.8918391408877522  0.9400246349467423  1.0000
  C   C3        1.0  0.15672648215454968  0.8870430074127362  0.9668529398199198  1.0000
  C   C4        1.0  0.1530662202256315  0.9124473425066112  0.9865865929742429  1.0000
  C   C5        1.0  0.16590422649283457  0.9427025860963812  0.9794316068062866  1.0000
  C   C6        1.0  0.1819304918610459  0.9476585120636536  0.9523609574884322  1.0000
  H   H1        1.0  0.17581712683109726  0.8722471942861733  0.9247060808940953  1.0000
  H   H2        1.0  0.1463894695196063  0.8636795800348892  0.9722269503671599  1.0000
  H   H3        1.0  0.16414703116982432  0.9621640232517056  0.99495711647867  1.0000
  H   H4        1.0  0.19186990236408838  0.9711169829112011  0.9468318984859061  1.0000
  C   C7        1.0  0.20004638062196378  0.7651709616315262  0.8077617160694293  1.0000
  C   C8        1.0  0.19599988668551593  0.7555816190500196  0.8370377987718661  1.0000
  C   C9        1.0  0.19087408126116592  0.7231701061083449  0.8435242965305583  1.0000
  C   C10       1.0  0.1914013466778705  0.7003310994867297  0.8209058197162366  1.0000
  C   C11       1.0  0.19512177769227407  0.7100529595577426  0.7917215261225174  1.0000
  C   C12       1.0  0.19869152127863404  0.7423760134467903  0.7851148803646755  1.0000
  H   H5        1.0  0.19643854874742198  0.7731138321166675  0.8546054098144328  1.0000
  H   H6        1.0  0.18752883652880217  0.7157212943613984  0.8661016306750063  1.0000
  H   H7        1.0  0.1952917026813526  0.6926962320670483  0.7741060092867486  1.0000
  H   H8        1.0  0.2010880170390868  0.7494491703249434  0.7624475403035698  1.0000
  C   C13       1.0  0.17289988536578768  0.5516893857677261  0.6824904900342021  1.0000
  C   C14       1.0  0.17113558200857537  0.5271313720954827  0.6614252497661409  1.0000
  C   C15       1.0  0.17302573583641528  0.534237099749756  0.6312203396645886  1.0000
  C   C16       1.0  0.1762197632286057  0.5659350107818807  0.6221371989963268  1.0000
  C   C17       1.0  0.17618964632239634  0.590414010057313  0.6431919209166723  1.0000
  C   C18       1.0  0.17503905685426457  0.5833115642429351  0.6732644003279753  1.0000
  H   H9        1.0  0.16989791439542787  0.5026403488100918  0.6685261005325577  1.0000
  H   H10       1.0  0.17339217524039155  0.5151622260782338  0.6151928595933138  1.0000
  H   H11       1.0  0.17748290524163904  0.6149950221169478  0.6363245382712753  1.0000
  H   H12       1.0  0.17581163291646537  0.6024311061555307  0.6892798451553818  1.0000
  C   C19       1.0  0.36841731654386173  0.6872291358842378  0.6844428577325368  1.0000
  C   C20       1.0  0.3474351623278277  0.7080461162670649  0.6682340838702484  1.0000
  C   C21       1.0  0.31106685840910875  0.7068423550226507  0.6710516931753494  1.0000
  C   C22       1.0  0.2958484951526143  0.6854518389816533  0.690733859555356  1.0000
  C   C23       1.0  0.3169523483207938  0.6651025971728726  0.7071865794881211  1.0000
  C   C24       1.0  0.3529954620566391  0.6656079015149226  0.7036563625409478  1.0000
  H   H13       1.0  0.35918025373412993  0.724724469702875  0.6531811836713466  1.0000
  H   H14       1.0  0.2949157345822799  0.7225536545162135  0.6580943764465488  1.0000
  H   H15       1.0  0.3056358859743437  0.6486586878776761  0.722552320359968  1.0000
  H   H16       1.0  0.3688017822426892  0.6497496162911526  0.7164527936566513  1.0000
  C   C25       1.0  0.3518556429076097  0.8474435289796348  0.7370109209920224  1.0000
  C   C26       1.0  0.32018085704185006  0.8528435432973595  0.7505128953374204  1.0000
  C   C27       1.0  0.3196895881117489  0.8654720279259379  0.7791141738481269  1.0000
  C   C28       1.0  0.3508183750634959  0.8743950755884901  0.7938066817631693  1.0000
  C   C29       1.0  0.38257037975342006  0.8707019365397488  0.7797019304247323  1.0000
  C   C30       1.0  0.38314686713834833  0.8564932343264308  0.7515628715832062  1.0000
  H   H17       1.0  0.2959491551473601  0.8468386544341939  0.7391500544503682  1.0000
  H   H18       1.0  0.29509795654903326  0.8685061818590571  0.7896431323946183  1.0000
  H   H19       1.0  0.40670862978673394  0.8781201152432295  0.79077505922927  1.0000
  H   H20       1.0  0.40769332751025944  0.8529179597331422  0.7410236348696737  1.0000
  C   C31       1.0  0.5238586478733748  0.8486061446839592  0.6226649190056203  1.0000
  C   C32       1.0  0.5455723018670011  0.8586255762545999  0.5999714476257574  1.0000
  C   C33       1.0  0.5690810195144204  0.8843816840905504  0.6045448620319578  1.0000
  C   C34       1.0  0.571187814480322  0.8998911277744805  0.6319735735452305  1.0000
  C   C35       1.0  0.5492517600779901  0.8901459235855761  0.6544960352445154  1.0000
  C   C36       1.0  0.5254838608292898  0.864741834256352  0.649765654341834  1.0000
  H   H21       1.0  0.5443585862502283  0.8463109807313046  0.5788972067638796  1.0000
  H   H22       1.0  0.5859913075218788  0.8917636361319251  0.5870498507988077  1.0000
  H   H23       1.0  0.5503954935276745  0.9024651725026936  0.6755579576124046  1.0000
  H   H24       1.0  0.5086925041026559  0.8575838387453691  0.667199758170606  1.0000
  C   C37       1.0  0.3566714491692895  0.6094278840837485  0.8779243576550243  1.0000
  C   C38       1.0  0.3219939635891362  0.602904309345976  0.8690801884037301  1.0000
  C   C39       1.0  0.3136104819724403  0.5963434794872388  0.8392113414880287  1.0000
  C   C40       1.0  0.34008037360900223  0.5951673112981276  0.8185100232705306  1.0000
  C   C41       1.0  0.37463250995443187  0.6009322587340309  0.8276892347049043  1.0000
  C   C42       1.0  0.382815107981961  0.6085370625609767  0.8571078099103657  1.0000
  H   H25       1.0  0.30155955426110376  0.6036024509703518  0.885073353807109  1.0000
  H   H26       1.0  0.2867873506998041  0.5918306747822725  0.8323061095778858  1.0000
  H   H27       1.0  0.39517772438797394  0.6002858826934853  0.8120548467719948  1.0000
  H   H28       1.0  0.40952195443037764  0.6137709159225927  0.8634852608662298  1.0000
  C   C43       1.0  0.4011244083581624  0.7730758107433816  0.9258157010425621  1.0000
  C   C44       1.0  0.3784857993811165  0.7491335605827076  0.9356892274004599  1.0000
  C   C45       1.0  0.34303844002391837  0.7554222733110237  0.9390608167988796  1.0000
  C   C46       1.0  0.32990603277503844  0.7849728208705027  0.9308213994072683  1.0000
  C   C47       1.0  0.35259786409767335  0.8089609296980271  0.9211939979955088  1.0000
  C   C48       1.0  0.3883522127027493  0.8032936284703787  0.9196288992249334  1.0000
  H   H29       1.0  0.38833025263694754  0.7258846581697502  0.9409442693054358  1.0000
  H   H30       1.0  0.3256553410528346  0.7370687663145127  0.9471686722884758  1.0000
  H   H31       1.0  0.34272884045832097  0.8319465845066656  0.9150351088927904  1.0000
  H   H32       1.0  0.40599166564286593  0.8220689697777702  0.9127006126470946  1.0000
  C   C49       1.0  0.49810323321194466  0.6929279298407464  0.8052940552288641  1.0000
  C   C50       1.0  0.5130603401022659  0.7187520933763677  0.8210944537949613  1.0000
  C   C51       1.0  0.5180960789204104  0.7481913539389985  0.8071380034887092  1.0000
  C   C52       1.0  0.5068998989635257  0.7520466141886881  0.7777796176055487  1.0000
  C   C53       1.0  0.49233999212926904  0.7261619351997322  0.7620202479165085  1.0000
  C   C54       1.0  0.48849359990839014  0.6966196500569166  0.7756080198881734  1.0000
  H   H33       1.0  0.5211072665273003  0.7159854018734874  0.8439247160326758  1.0000
  H   H34       1.0  0.5297397794684493  0.768109069340065  0.8193368851686407  1.0000
  H   H35       1.0  0.483602169579736  0.7288143544076566  0.7393804551328621  1.0000
  H   H36       1.0  0.4770322148599203  0.67700607815722  0.7632433259998952  1.0000
  C   C55       1.0  0.5375081349231297  0.5976234796538636  0.9721645448988316  1.0000
  C   C56       1.0  0.5527035096370884  0.585582658282785  0.9980398421827148  1.0000
  C   C57       1.0  0.5569638353941756  0.5527509224838453  0.001262663218047022  1.0000
  C   C58       1.0  0.5460252253350811  0.5318525668076022  0.978584975188329  1.0000
  C   C59       1.0  0.531187812955899  0.5438314357941161  0.9525192892985946  1.0000
  C   C60       1.0  0.5272459898475049  0.5767484019601783  0.9492196973039994  1.0000
  H   H37       1.0  0.5608853612477808  0.6016650655190886  0.015802787318208278  1.0000
  H   H38       1.0  0.5683238514111287  0.5436758099353073  0.021525474162127616  1.0000
  H   H39       1.0  0.5231158488570194  0.5276928868446565  0.9347935987138271  1.0000
  H   H40       1.0  0.516810759585831  0.5859460532529426  0.9287912635193986  1.0000
  C   C61       1.0  0.023437068162789343  0.8547170501817458  0.1472861031086909  1.0000
  C   C62       1.0  0.035606692052651434  0.8658175979762314  0.12029953374627156  1.0000
  C   C63       1.0  0.04386710969905528  0.8982025049330882  0.11668498999023867  1.0000
  C   C64       1.0  0.03973978386193133  0.9196454041728798  0.13999802902414157  1.0000
  C   C65       1.0  0.028948791719727085  0.9083946604060326  0.1673882832533629  1.0000
  C   C66       1.0  0.020993964025395773  0.8759156090559286  0.17105877863790409  1.0000
  H   H41       1.0  0.03803462126115664  0.8494245072663387  0.10195479069044777  1.0000
  H   H42       1.0  0.052844802932523034  0.9065115267119784  0.09567161717226622  1.0000
  H   H43       1.0  0.02626204161354373  0.9248230604781877  0.1856469774185418  1.0000
  H   H44       1.0  0.013070073020205797  0.8673108622162923  0.19226595744440728  1.0000
  C   C67       1.0  0.7932806291173685  0.6899981425946228  0.19568841610577598  1.0000
  C   C68       1.0  0.8105375183203767  0.6699587264801105  0.21538181085440972  1.0000
  C   C69       1.0  0.846655755493389  0.6722718200196798  0.21932314873705772  1.0000
  C   C70       1.0  0.8659028061858102  0.6951700239839922  0.20421454407766426  1.0000
  C   C71       1.0  0.8487876356326068  0.7155065207108222  0.18449716893020396  1.0000
  C   C72       1.0  0.8124648496646808  0.7125173686935482  0.17983177251356403  1.0000
  H   H45       1.0  0.796225932152772  0.6526847740286501  0.2279327895312831  1.0000
  H   H46       1.0  0.8594051692773055  0.6567851622387555  0.23476578158263045  1.0000
  H   H47       1.0  0.8635888629523142  0.7331221493907624  0.17251556807020177  1.0000
  H   H48       1.0  0.7992474588343444  0.72804687528308  0.1644507821175582  1.0000
  C   C73       1.0  0.6432150584881493  0.5576671705468199  0.1307865356782873  1.0000
  C   C74       1.0  0.6531670456590251  0.5287111664818722  0.14306585511450232  1.0000
  C   C75       1.0  0.6599195598027721  0.5265273824437543  0.1735115756887606  1.0000
  C   C76       1.0  0.6566760302675628  0.5532904428062648  0.1916663288960929  1.0000
  C   C77       1.0  0.6465439014131532  0.5822098432190999  0.17943992659301858  1.0000
  C   C78       1.0  0.6395127447369521  0.5843077882672723  0.149039606810991  1.0000
  H   H49       1.0  0.6562812631343812  0.5081261354806591  0.129120669787211  1.0000
  H   H50       1.0  0.6680644322727783  0.504195950595241  0.18295487796288135  1.0000
  H   H51       1.0  0.6433672891210429  0.6027920176508362  0.19347607665521915  1.0000
  H   H52       1.0  0.6312528594151686  0.6066236439667115  0.13964830013961424  1.0000
  C   C79       1.0  0.8222158882161285  0.6179331933266897  0.39388333447126095  1.0000
  C   C80       1.0  0.7912779522488605  0.6051360021200126  0.38123443672338936  1.0000
  C   C81       1.0  0.7882889444272464  0.600494841226656  0.3504801408790396  1.0000
  C   C82       1.0  0.8165364668417977  0.6079693943068817  0.33264763194786634  1.0000
  C   C83       1.0  0.8476759511059845  0.6195693571201457  0.3456009418034142  1.0000
  C   C84       1.0  0.8504602446479097  0.624635142812274  0.376008111505466  1.0000
  H   H53       1.0  0.769526881958892  0.599302458573539  0.3950626212501005  1.0000
  H   H54       1.0  0.7643198230889817  0.5909085852108199  0.3406433582145716  1.0000
  H   H55       1.0  0.8695231450340775  0.6255424114905492  0.3322481653365002  1.0000
  H   H56       1.0  0.8746143496060107  0.6338878448139077  0.3854800020292661  1.0000
  C   C85       1.0  0.9720912533949169  0.7068184106521981  0.344753057293739  1.0000
  C   C86       1.0  0.9735829057469854  0.7086054457277979  0.31404467587284285  1.0000
  C   C87       1.0  0.9775218960802742  0.7380960770302601  0.3003197607154883  1.0000
  C   C88       1.0  0.9818477299580827  0.7658445975704921  0.31726924009812246  1.0000
  C   C89       1.0  0.982045633575883  0.7640044111662203  0.34810216669999633  1.0000
  C   C90       1.0  0.9760868202720052  0.734602712131323  0.36184964054022684  1.0000
  H   H57       1.0  0.9708952629416319  0.6873931640351502  0.3006691845563082  1.0000
  H   H58       1.0  0.9772847743558171  0.7392486166771002  0.2765683835490548  1.0000
  H   H59       1.0  0.9856825607458874  0.7854658748342327  0.36125477274649287  1.0000
  H   H60       1.0  0.9747538646196235  0.7335387328453251  0.3856038378727628  1.0000
  C   C91       1.0  0.015480498215507676  0.6182343385022036  0.49146506020826697  1.0000
  C   C92       1.0  0.04727621449092356  0.61654100492594  0.5071514469574091  1.0000
  C   C93       1.0  0.07436288449195994  0.5984246696347816  0.49604536376535324  1.0000
  C   C94       1.0  0.06943384311270254  0.5815291019531673  0.4694930106333335  1.0000
  C   C95       1.0  0.037459906659296216  0.5827486688337229  0.4541180606393159  1.0000
  C   C96       1.0  0.010576889237801089  0.6011964290784655  0.4650174455632516  1.0000
  H   H61       1.0  0.0511788895378007  0.6296824118284274  0.5276567051696025  1.0000
  H   H62       1.0  0.09922454072263776  0.5979225593450573  0.5078184117846316  1.0000
  H   H63       1.0  0.0333476655910021  0.5691097886636245  0.43392278350370633  1.0000
  H   H64       1.0  0.9858557554492655  0.6015909024097682  0.45325789514476855  1.0000
  C   C97       1.0  0.6678809425483192  0.7199598457182257  0.31257861078182697  1.0000
  C   C98       1.0  0.6651845432204156  0.7426082304157413  0.3351617344960139  1.0000
  C   C99       1.0  0.6695157167868999  0.7750806163847199  0.3290783607556013  1.0000
  C   C100      1.0  0.6745367820733399  0.7850915415406206  0.30011019505325703  1.0000
  C   C101      1.0  0.67551865549633  0.7625162319529328  0.277265935197162  1.0000
  C   C102      1.0  0.6731539263221991  0.7299189733903054  0.28360683319380164  1.0000
  H   H65       1.0  0.6601922904309302  0.7351411608384256  0.35744989032372537  1.0000
  H   H66       1.0  0.6681848599835233  0.7924063525811561  0.3467156549827408  1.0000
  H   H67       1.0  0.67854658177254  0.7701696029123258  0.2547306372858014  1.0000
  H   H68       1.0  0.6746946853277046  0.7125391813552345  0.26599549787736465  1.0000
  C   C103      1.0  0.836940410821684  0.8850747200752336  0.3010883496172848  1.0000
  C   C104      1.0  0.810070408941402  0.8840994209864973  0.27962344955955626  1.0000
  C   C105      1.0  0.8168147681011689  0.8739424018662065  0.25077571522439074  1.0000
  C   C106      1.0  0.8499190344870543  0.8632346865796454  0.24386370155665746  1.0000
  C   C107      1.0  0.8766291277708304  0.863892783124388  0.26543387801036356  1.0000
  C   C108      1.0  0.8703531793202928  0.8755028061804768  0.2938012843087868  1.0000
  H   H69       1.0  0.7842726248292898  0.891744086889881  0.2851229664030201  1.0000
  H   H70       1.0  0.7961529849826585  0.8736801586735989  0.2340709286465553  1.0000
  H   H71       1.0  0.9022772912291623  0.8557273727591423  0.26031434094431954  1.0000
  H   H72       1.0  0.8913248680473874  0.8766217180527638  0.3102046605291563  1.0000
  C   C109      1.0  0.7855138358240682  0.7929836958119928  0.4371466977387826  1.0000
  C   C110      1.0  0.795079725825347  0.7624694037387607  0.4460756160480527  1.0000
  C   C111      1.0  0.8301655706308959  0.7558283926974021  0.4522125999322881  1.0000
  C   C112      1.0  0.8555096930315321  0.7801393324160141  0.4509561125816249  1.0000
  C   C113      1.0  0.8456610072319399  0.8110687499987979  0.4436188209112097  1.0000
  C   C114      1.0  0.8108186837917908  0.8173229733934666  0.43600338075315886  1.0000
  H   H73       1.0  0.7755335798028314  0.7437945829823757  0.44785066627130293  1.0000
  H   H74       1.0  0.8375928383410806  0.7319770202417812  0.4582163708542218  1.0000
  H   H75       1.0  0.8651409319295817  0.8300371778823563  0.4430598723329711  1.0000
  H   H76       1.0  0.8035558029246773  0.8410676826794954  0.4296123112233005  1.0000
  C   C115      1.0  0.6884681458598173  0.9532943692092452  0.4300816049201024  1.0000
  C   C116      1.0  0.6626254484877695  0.9589410660492708  0.4505553448946416  1.0000
  C   C117      1.0  0.6715747139190974  0.962245509558225  0.4805884948881189  1.0000
  C   C118      1.0  0.7063307857325488  0.9598542126871201  0.4902382325397948  1.0000
  C   C119      1.0  0.7324056450019328  0.9559234336659156  0.4695808844388103  1.0000
  C   C120      1.0  0.723473948008227  0.9527707043073632  0.439456103222199  1.0000
  H   H77       1.0  0.6354946557292953  0.9592536593228349  0.44347567908928504  1.0000
  H   H78       1.0  0.6512758103903432  0.9652310516964687  0.49634195463562025  1.0000
  H   H79       1.0  0.7593793390086931  0.9545040248962104  0.47692176061571107  1.0000
  H   H80       1.0  0.7436245338158272  0.949373270417017  0.4235748202800661  1.0000
  C   C121      1.0  0.0021959574515273417  0.12168397101130916  0.9964917423052823  1.0000
  C   C122      1.0  0.007601786474929373  0.10441877331649085  0.02241970963475471  1.0000
  C   C123      1.0  0.010907642502554271  0.07129855098602934  0.021155673690463176  1.0000
  C   C124      1.0  0.00908630153321699  0.05534141385245727  0.9939677682370008  1.0000
  C   C125      1.0  0.00302427097104796  0.0725227847337045  0.96803136776203  1.0000
  C   C126      1.0  0.9997540812609202  0.10572861082620681  0.9692688514333748  1.0000
  H   H81       1.0  0.009201905836904611  0.11668359142358133  0.04351431080140505  1.0000
  H   H82       1.0  0.014313918211038112  0.05813045217906941  0.04129731391026359  1.0000
  H   H83       1.0  0.0014239506499320598  0.06029508795804684  0.9469275437673488  1.0000
  H   H84       1.0  0.9957489831492995  0.11897836336015767  0.9491271699160106  1.0000
  C   C127      1.0  0.8617944293069632  0.14181064143087294  0.8106538620672145  1.0000
  C   C128      1.0  0.8711906178570596  0.16028137104627135  0.8354287080766365  1.0000
  C   C129      1.0  0.9040978028534727  0.15755611033507627  0.8488486127248197  1.0000
  C   C130      1.0  0.9282619083445438  0.13675995080779  0.8373037004339974  1.0000
  C   C131      1.0  0.9189346759848552  0.11792169080897459  0.8125619890819633  1.0000
  C   C132      1.0  0.885648521919826  0.12051857951126958  0.799145298849086  1.0000
  H   H85       1.0  0.8534278254368755  0.17733127388191045  0.8439824551945877  1.0000
  H   H86       1.0  0.9107056908507137  0.17187419653860464  0.8680657134531072  1.0000
  H   H87       1.0  0.9374965083004433  0.10164152308670847  0.8036181637389415  1.0000
  H   H88       1.0  0.8783928738543768  0.10599448004903954  0.7800606723315578  1.0000
  C   C133      1.0  0.7559061129486598  0.08979896815208267  0.6381709532476757  1.0000
  C   C134      1.0  0.7467144719271497  0.06566730929337311  0.6178387400209522  1.0000
  C   C135      1.0  0.7120691782025118  0.06176403696418163  0.607844417711097  1.0000
  C   C136      1.0  0.6864793717751693  0.08174229664032177  0.6184532829973842  1.0000
  C   C137      1.0  0.695798325353137  0.10658348614966501  0.638036091152292  1.0000
  C   C138      1.0  0.7305709914122623  0.11062222514938577  0.6479127573256523  1.0000
  H   H89       1.0  0.7663321422398724  0.04971901514792778  0.6100386534570449  1.0000
  H   H90       1.0  0.7052287470787635  0.04304840757737925  0.5921467000456178  1.0000
  H   H91       1.0  0.676069617653679  0.12220111340991882  0.6461695296865323  1.0000
  H   H92       1.0  0.7376397541621716  0.12954786742879185  0.663344017592681  1.0000
  C   C139      1.0  0.9416804467932319  0.29095435016004  0.6684336674267494  1.0000
  C   C140      1.0  0.9081771245589617  0.27730307978390994  0.6654597509687582  1.0000
  C   C141      1.0  0.902966959729263  0.24460494171660624  0.6700446942128476  1.0000
  C   C142      1.0  0.9315105880684796  0.2252909154279191  0.6760114431579428  1.0000
  C   C143      1.0  0.9651612511470383  0.23864636507902096  0.6773881407152214  1.0000
  C   C144      1.0  0.9701372873191992  0.2715634415011864  0.674388016943628  1.0000
  H   H93       1.0  0.8861691183779263  0.29204195354494106  0.6601782390517121  1.0000
  H   H94       1.0  0.8769004695223072  0.23440452116231456  0.6686606329544217  1.0000
  H   H95       1.0  0.9873982217416515  0.22373182527441315  0.6812788236136342  1.0000
  H   H96       1.0  0.9961090873834152  0.28182587125953285  0.6762190443643837  1.0000
  C   C145      1.0  0.05464700333311168  0.27777814258227734  0.8016337167526273  1.0000
  C   C146      1.0  0.05398670466842259  0.24932685297069918  0.8175243602682384  1.0000
  C   C147      1.0  0.04748667270172513  0.24970778435883004  0.847857538458891  1.0000
  C   C148      1.0  0.04358474280271141  0.2787155232933046  0.8626195102798602  1.0000
  C   C149      1.0  0.04565907497567556  0.3072622197577966  0.8469523845495792  1.0000
  C   C150      1.0  0.05033383434618233  0.30674751064095923  0.8163600583119562  1.0000
  H   H97       1.0  0.05787471793266885  0.2269330523721223  0.8062910080595334  1.0000
  H   H98       1.0  0.04612192817143135  0.22761421294284456  0.8599421061895457  1.0000
  H   H99       1.0  0.04306830794595862  0.32975307198513254  0.8583651623707826  1.0000
  H   H100      1.0  0.051113786384984206  0.32880324367990893  0.8042962086776568  1.0000
  C   C151      1.0  0.09333019721649238  0.4231658847998341  0.6516993574491573  1.0000
  C   C152      1.0  0.11379971924070133  0.4471644157803064  0.6392045507439168  1.0000
  C   C153      1.0  0.10542800441699789  0.45847943718922696  0.610981324300728  1.0000
  C   C154      1.0  0.07734890229111963  0.4450017764879952  0.5947571502999378  1.0000
  C   C155      1.0  0.05620167249148711  0.42160591137765807  0.6075611759957493  1.0000
  C   C156      1.0  0.06402722599272614  0.4108414696916252  0.6361806066465415  1.0000
  H   H101      1.0  0.13625981394640413  0.45688871220102045  0.6513074753375832  1.0000
  H   H102      1.0  0.1209672635407636  0.477413832664996  0.6017483341232107  1.0000
  H   H103      1.0  0.03426675800036438  0.41124565721287915  0.595150596178894  1.0000
  H   H104      1.0  0.048104937879127396  0.392246794646229  0.6457803345832579  1.0000
  C   C157      1.0  0.751327400822155  0.2803307470706904  0.7913059496522268  1.0000
  C   C158      1.0  0.7601578316286102  0.24892914278735015  0.7852950888663413  1.0000
  C   C159      1.0  0.7639466215368994  0.23856300057566338  0.7562226970610999  1.0000
  C   C160      1.0  0.7583535899447243  0.25943492227409237  0.7328151797366199  1.0000
  C   C161      1.0  0.7483948765927705  0.2907083976668615  0.7386013359692237  1.0000
  C   C162      1.0  0.7453760807571587  0.30132980839413004  0.7679330712084529  1.0000
  H   H105      1.0  0.7650271296869454  0.23276784256885777  0.8031265058929051  1.0000
  H   H106      1.0  0.7715215320784196  0.21439697009267356  0.7520494174844721  1.0000
  H   H107      1.0  0.7439117974251709  0.30689088237182854  0.7204924412198155  1.0000
  H   H108      1.0  0.7381341244560826  0.3255809272738954  0.772426719907816  1.0000
  C   C163      1.0  0.854545416585875  0.3367666121552432  0.9149077093890619  1.0000
  C   C164      1.0  0.8827284157230544  0.32531376587102534  0.9316232309526872  1.0000
  C   C165      1.0  0.8882738562553912  0.2924190218259721  0.9331610938565342  1.0000
  C   C166      1.0  0.8649210141899392  0.27107072812169875  0.9188161409733913  1.0000
  C   C167      1.0  0.836378408334847  0.28254071685992294  0.9027195746212062  1.0000
  C   C168      1.0  0.8315151550917176  0.3153005315684858  0.9004098580649051  1.0000
  H   H109      1.0  0.900570483224148  0.3418203327575657  0.9429717657714264  1.0000
  H   H110      1.0  0.9102227002604593  0.28354307826238095  0.9458467813905103  1.0000
  H   H111      1.0  0.8183965880808077  0.2661467951315754  0.8913988267923906  1.0000
  H   H112      1.0  0.8097573030525331  0.32373562942679346  0.887393919196497  1.0000
  C   C169      1.0  0.8701201763798364  0.4223964558080704  0.7754249236181824  1.0000
  C   C170      1.0  0.8916841173615058  0.42024169404895967  0.7511081493425803  1.0000
  C   C171      1.0  0.9278221204413759  0.4178063383926982  0.7553490891772743  1.0000
  C   C172      1.0  0.9426092418724182  0.4194905871559766  0.7838531983713644  1.0000
  C   C173      1.0  0.9212221478298365  0.4236862964124628  0.8080671634093041  1.0000
  C   C174      1.0  0.8848714389303933  0.42417480710538635  0.8039604881992247  1.0000
  H   H113      1.0  0.8803208436267843  0.41957523815763476  0.7290059954965822  1.0000
  H   H114      1.0  0.9442067338636231  0.41500799194773363  0.7365164713636907  1.0000
  H   H115      1.0  0.9327425200135921  0.42587514743309907  0.8300299315512473  1.0000
  H   H116      1.0  0.8682956326456006  0.42629862161881815  0.8228009126258939  1.0000
  C   C175      1.0  0.7006742950217915  0.44509815522065016  0.9063705430418436  1.0000
  C   C176      1.0  0.6723727118478344  0.44296164586002856  0.9251259973371145  1.0000
  C   C177      1.0  0.6772435212001577  0.4487600045495504  0.9554628781371551  1.0000
  C   C178      1.0  0.7104551841546811  0.4566228894821936  0.967048716384773  1.0000
  C   C179      1.0  0.7386057578066396  0.4594109994639528  0.9481721423235138  1.0000
  C   C180      1.0  0.7338134892163498  0.4532706235932549  0.9179000314447372  1.0000
  H   H117      1.0  0.6468351760201124  0.4361058629342639  0.9162569265928678  1.0000
  H   H118      1.0  0.6554048805451955  0.44647238539089323  0.9698577276108636  1.0000
  H   H119      1.0  0.7641876425254776  0.46622554026259455  0.9569237587233844  1.0000
  H   H120      1.0  0.755678162588548  0.45530927087872775  0.9034051867019073  1.0000
  C   C181      1.0  0.2001778034940236  0.3508459479795072  0.47536435280604294  1.0000
  C   C182      1.0  0.2349169001880422  0.36017660895471415  0.4808398790868793  1.0000
  C   C183      1.0  0.24321154318315621  0.3917318661528461  0.48897131836814034  1.0000
  C   C184      1.0  0.21693541071929878  0.41420557670203695  0.49083078315143486  1.0000
  C   C185      1.0  0.18215434633499544  0.40471562602235606  0.48576818196174654  1.0000
  C   C186      1.0  0.17376450434817609  0.37302346267277137  0.4781706877436685  1.0000
  H   H121      1.0  0.2553314286030206  0.342940757457664  0.4792746933057426  1.0000
  H   H122      1.0  0.27006600408622017  0.39876846980035263  0.49364731841393833  1.0000
  H   H123      1.0  0.16175142201096968  0.42184857207153387  0.4869305006247137  1.0000
  H   H124      1.0  0.1468795104258367  0.36581629189521153  0.4737656010267456  1.0000
  C   C187      1.0  0.2495866038970801  0.15269709037450893  0.3110046381774948  1.0000
  C   C188      1.0  0.2511620222578373  0.16561925028581864  0.3395030447897632  1.0000
  C   C189      1.0  0.2402524210515494  0.19668373516737614  0.34450818470405603  1.0000
  C   C190      1.0  0.22653166073029918  0.21462259012088686  0.32127061014095637  1.0000
  C   C191      1.0  0.22326803102563586  0.2010738088185547  0.2929918203591822  1.0000
  C   C192      1.0  0.23558942551403406  0.17042109771065922  0.28771505076424053  1.0000
  H   H125      1.0  0.26182134959997927  0.1521836736164539  0.35762153903435845  1.0000
  H   H126      1.0  0.24279059548231105  0.2067053108427402  0.3664040144854875  1.0000
  H   H127      1.0  0.211708942779126  0.21423645599419186  0.27504263974791543  1.0000
  H   H128      1.0  0.23395652171599526  0.16043144527085504  0.2656779132771786  1.0000
  C   C193      1.0  0.23331991612783132  0.042964751177927654  0.14243259275077222  1.0000
  C   C194      1.0  0.2209626885813949  0.017820653092771366  0.12439565847811311  1.0000
  C   C195      1.0  0.19729061753351543  0.02354048304062717  0.10112449697003674  1.0000
  C   C196      1.0  0.18578095063344657  0.054381614926383055  0.09596517451235695  1.0000
  C   C197      1.0  0.1992029379142876  0.07977386936687418  0.11323828904037904  1.0000
  C   C198      1.0  0.2229602603422778  0.07405811095878066  0.1365632862597735  1.0000
  H   H129      1.0  0.22925918938026058  0.9938101302392889  0.1287825543962583  1.0000
  H   H130      1.0  0.1879782011730031  0.004062764689448217  0.08721102484822366  1.0000
  H   H131      1.0  0.19041847251729385  0.10369851042373983  0.10924285740959205  1.0000
  H   H132      1.0  0.23249728843117204  0.09354579037783964  0.15047966535074578  1.0000
  C   C199      1.0  0.4262830477413379  0.2195152191737327  0.4225687956906776  1.0000
  C   C200      1.0  0.414055510628619  0.18793348173897897  0.4225833926613394  1.0000
  C   C201      1.0  0.3786690519832693  0.1809918059511118  0.42646604561304224  1.0000
  C   C202      1.0  0.3550942962143598  0.2056338476286798  0.4292807829680562  1.0000
  C   C203      1.0  0.36716471610266793  0.23729627739979697  0.42874250208795195  1.0000
  C   C204      1.0  0.4027872524503684  0.24424071312935564  0.4257730515816816  1.0000
  H   H133      1.0  0.4318197520096593  0.16870437187552006  0.4199436150083336  1.0000
  H   H134      1.0  0.36968547734604246  0.1565348010617891  0.427031099708231  1.0000
  H   H135      1.0  0.3491642355217375  0.25650048775156065  0.43090529913953707  1.0000
  H   H136      1.0  0.4119129157095259  0.2687367662878902  0.4258275784754213  1.0000
  C   C205      1.0  0.4199598594381423  0.0906871750506654  0.3288145137948212  1.0000
  C   C206      1.0  0.38653433658510905  0.0938317099929972  0.31655061544169977  1.0000
  C   C207      1.0  0.38198083487854445  0.09858457266749172  0.28621230239321976  1.0000
  C   C208      1.0  0.41066729999179596  0.09902787977405918  0.26776557269491935  1.0000
  C   C209      1.0  0.4440676591116393  0.0947002887429208  0.27989384107837384  1.0000
  C   C210      1.0  0.44871899072339616  0.0909931369138505  0.31044213039726054  1.0000
  H   H137      1.0  0.3641985225065954  0.09354316534641746  0.33041112007987433  1.0000
  H   H138      1.0  0.35617235427830407  0.10227293043990796  0.27735444241021434  1.0000
  H   H139      1.0  0.4663496525984584  0.0940012222642358  0.26582520487483036  1.0000
  H   H140      1.0  0.47454455940149687  0.08780070757649373  0.31964413843755757  1.0000
  C   C211      1.0  0.580617935437574  0.07363710984764003  0.44373376038639395  1.0000
  C   C212      1.0  0.60678642638209  0.055136136359907766  0.45637483732464884  1.0000
  C   C213      1.0  0.5979879067550459  0.028991077515164054  0.47383616317198857  1.0000
  C   C214      1.0  0.5631017383912663  0.02197102120035666  0.479635156886982  1.0000
  C   C215      1.0  0.5368385838327511  0.039500298758816256  0.46580787643018606  1.0000
  C   C216      1.0  0.5455974978549156  0.06519204830603882  0.44764963884578685  1.0000
  H   H141      1.0  0.6339354472141366  0.06115756622956641  0.4529158571325127  1.0000
  H   H142      1.0  0.6182499473327562  0.01428245083113372  0.4827958471425533  1.0000
  H   H143      1.0  0.5097422590211728  0.03384618298323256  0.4698990156925712  1.0000
  H   H144      1.0  0.5252113918297138  0.07885627412970242  0.43739460678580655  1.0000
  C   C217      1.0  0.5146078493517084  0.2805696108297035  0.28896749247630776  1.0000
  C   C218      1.0  0.5490251362305146  0.27167057019654006  0.28473764667965734  1.0000
  C   C219      1.0  0.5582076188973835  0.23968635628315327  0.2873060073216075  1.0000
  C   C220      1.0  0.5333019093948034  0.21683237824469842  0.2953544616596849  1.0000
  C   C221      1.0  0.4988383718270211  0.2257638695210665  0.2997203927489292  1.0000
  C   C222      1.0  0.48931650477164784  0.25753954902839077  0.29591092719621487  1.0000
  H   H145      1.0  0.5686265833842395  0.28950043126629166  0.2794878636602532  1.0000
  H   H146      1.0  0.5848503176996463  0.23280583429629623  0.28394316643354317  1.0000
  H   H147      1.0  0.47948825451196964  0.2080388236437967  0.3054459936591608  1.0000
  H   H148      1.0  0.462666136279095  0.26436671404858164  0.2989841259653336  1.0000
  C   C223      1.0  0.33788783893472707  0.3435937407541075  0.28979402991306463  1.0000
  C   C224      1.0  0.36842051741008963  0.3514081612815341  0.3060720893745754  1.0000
  C   C225      1.0  0.36805165730925693  0.35225124302542754  0.3370519073635654  1.0000
  C   C226      1.0  0.3375609057872087  0.3439347921603752  0.35167880857099854  1.0000
  C   C227      1.0  0.30735376581095003  0.3355325258375642  0.33533101213871885  1.0000
  C   C228      1.0  0.30728703167211724  0.33612960598837416  0.3045097733398687  1.0000
  H   H149      1.0  0.39211576689907945  0.35734543135205993  0.294839654182469  1.0000
  H   H150      1.0  0.39137465369648794  0.35902120519906566  0.34959748072007  1.0000
  H   H151      1.0  0.2837478495410457  0.3289176159976159  0.3463132119966088  1.0000
  H   H152      1.0  0.2834980707419609  0.33057041606889054  0.29216575021827146  1.0000
  C   C229      1.0  0.3889564992816372  0.24176731891505465  0.1657492802370895  1.0000
  C   C230      1.0  0.36170463139415976  0.2610070011920727  0.17445308075492696  1.0000
  C   C231      1.0  0.32818490679968576  0.24797454911377745  0.17769988649806467  1.0000
  C   C232      1.0  0.3220910399068677  0.2152981569324205  0.17381291470882784  1.0000
  C   C233      1.0  0.34920281297678746  0.19607261435422205  0.1646791292918818  1.0000
  C   C234      1.0  0.38240523448838376  0.20940481859207377  0.15999701185105308  1.0000
  H   H153      1.0  0.3662178686810928  0.28599160214940256  0.178665677551104  1.0000
  H   H154      1.0  0.30728653863548255  0.2631621042042994  0.18390073801683693  1.0000
  H   H155      1.0  0.34452236806110254  0.17098955808575148  0.16080756454999892  1.0000
  H   H156      1.0  0.40296666451847135  0.1943800661631955  0.1526012104891436  1.0000
  C   C235      1.0  0.5633750564316928  0.40603609911241606  0.1205992459901248  1.0000
  C   C236      1.0  0.5364676499657872  0.42507134386648765  0.10990595076000159  1.0000
  C   C237      1.0  0.5056913528010483  0.42760809588176535  0.12570484060667075  1.0000
  C   C238      1.0  0.501626312898774  0.4108080716489897  0.15199895070899386  1.0000
  C   C239      1.0  0.5284048286827527  0.3915998525603893  0.16255659646606535  1.0000
  C   C240      1.0  0.5591177737087785  0.38897326539018606  0.1467246230344031  1.0000
  H   H157      1.0  0.5392002641224706  0.43758718125277946  0.08934313647651405  1.0000
  H   H158      1.0  0.4849291170294655  0.4424236030301135  0.11742284104144544  1.0000
  H   H159      1.0  0.5259466634796492  0.37946619825973404  0.1833394219659048  1.0000
  H   H160      1.0  0.5800191005207794  0.3743902559877664  0.15514073798981487  1.0000
  N   N1        1.0  0.29509354450051967  0.7030699743857839  0.8705279547511073  1.0000
  C   C241      1.0  0.31412193496001295  0.730775555179937  0.8584253531664684  1.0000
  C   C242      1.0  0.31932151033202144  0.6838581192519492  0.8884666309945654  1.0000
  C   C243      1.0  0.280327815106872  0.6833027192357899  0.8459647009806196  1.0000
  C   C244      1.0  0.2667071011079105  0.7142664140574018  0.8891777836914807  1.0000
  H   H161      1.0  0.2965857119688039  0.7454333001128712  0.8443071998861621  1.0000
  H   H162      1.0  0.336023351178177  0.7230432092710126  0.8446784827486166  1.0000
  H   H163      1.0  0.32498943560270643  0.7465621543678708  0.8763938134577548  1.0000
  H   H164      1.0  0.30563753692672496  0.6630885733069288  0.8984104794533287  1.0000
  H   H165      1.0  0.3407074311676054  0.6745424091194058  0.8749454858818092  1.0000
  H   H166      1.0  0.3317408008123503  0.6979326443943492  0.906861762478564  1.0000
  H   H167      1.0  0.3010987138029636  0.673569158457134  0.8319886623690791  1.0000
  H   H168      1.0  0.26261398365674576  0.6972325646154381  0.8314351729072483  1.0000
  H   H169      1.0  0.2648388001111149  0.6626025880155728  0.8541791663986527  1.0000
  H   H170      1.0  0.25016653213427154  0.7316402849130049  0.8772738391454576  1.0000
  H   H171      1.0  0.27707756488833407  0.7265630696741262  0.9094535894890476  1.0000
  H   H172      1.0  0.24947185874028224  0.6942009034971589  0.8961775397039522  1.0000
  N   N2        1.0  0.0008091990415277639  0.5306772924883894  0.5476518999169184  1.0000
  C   C245      1.0  0.9766968056295928  0.5574255198787994  0.54376503846652  1.0000
  C   C246      1.0  0.0186552550183261  0.524748776854843  0.5196662636469719  1.0000
  C   C247      1.0  0.9810470098222944  0.5016724067888999  0.5559845469353762  1.0000
  C   C248      1.0  0.02694309035506226  0.5388512741064976  0.5711827856172249  1.0000
  H   H173      1.0  0.9573076169958264  0.5527059678429959  0.5254813792878745  1.0000
  H   H174      1.0  0.9909959435683199  0.5798735789788628  0.5383196206916772  1.0000
  H   H175      1.0  0.9620900486210209  0.5621375354788709  0.5641892076269974  1.0000
  H   H176      1.0  0.036909237783082416  0.5045669263801015  0.5216859080592319  1.0000
  H   H177      1.0  0.9997873044803518  0.5189566543363412  0.5012687830671522  1.0000
  H   H178      1.0  0.03418304723349519  0.5459475888008609  0.5129546557588408  1.0000
  H   H179      1.0  0.9611383380691297  0.494766615574929  0.5386965428531987  1.0000
  H   H180      1.0  0.9673673111442984  0.5051445512024164  0.5770981103816977  1.0000
  H   H181      1.0  0.9986578006115213  0.4810922604897476  0.5590330238894407  1.0000
  H   H182      1.0  0.042517981134320815  0.5605376867672818  0.56551190214524  1.0000
  H   H183      1.0  0.04554257159038433  0.5191414547227606  0.5747748593336162  1.0000
  H   H184      1.0  0.014411610667600439  0.5435597986333024  0.5926087789570943  1.0000
  N   N3        1.0  0.11568611290488717  0.12321518239255828  0.004732234877016017  1.0000
  C   C249      1.0  0.1404560591727757  0.1311359801146664  0.02934393185191829  1.0000
  C   C250      1.0  0.09884270507900661  0.09188759518167887  0.010087040546290726  1.0000
  C   C251      1.0  0.13458844108031465  0.12197574342131123  0.9767398162702489  1.0000
  C   C252      1.0  0.08881594289960404  0.14783712765268528  0.002688777645733831  1.0000
  H   H185      1.0  0.15276343705664597  0.15510614933472178  0.026655027224194165  1.0000
  H   H186      1.0  0.16176711553034417  0.11357946878324861  0.03087974638937088  1.0000
  H   H187      1.0  0.12726104301281205  0.13084535434559696  0.05097325971789719  1.0000
  H   H188      1.0  0.11833465872626991  0.07267283946283337  0.011421410484642848  1.0000
  H   H189      1.0  0.084867199939193  0.09175509128800251  0.03134130649586447  1.0000
  H   H190      1.0  0.07941308514626089  0.08541324232890281  0.9922693615435173  1.0000
  H   H191      1.0  0.11653584721101673  0.1160322775732206  0.9577544571356577  1.0000
  H   H192      1.0  0.15508448600112246  0.10359534772571775  0.977516934328656  1.0000
  H   H193      1.0  0.14751800539840265  0.14527834790237615  0.971975205255135  1.0000
  H   H194      1.0  0.10042733424984318  0.17201388780279608  0.9995433425456565  1.0000
  H   H195      1.0  0.07298975618398229  0.14865058319845323  0.02295640663116007  1.0000
  H   H196      1.0  0.07039152248658875  0.1431653589684183  0.9836944710407428  1.0000
  N   N4        1.0  0.14859960621825755  0.3703603227448392  0.5695935778560547  1.0000
  C   C253      1.0  0.11828857376683184  0.37340101152317134  0.5490779977102018  1.0000
  C   C254      1.0  0.17197622434100637  0.3457218971552857  0.5584259402554037  1.0000
  C   C255      1.0  0.13633282672167024  0.36123152409114007  0.5990964753585479  1.0000
  C   C256      1.0  0.16774389036753767  0.401206485287385  0.571804268530612  1.0000
  H   H197      1.0  0.12647091442246064  0.3809916308835371  0.5267796084503863  1.0000
  H   H198      1.0  0.09986176667011548  0.39147689766402377  0.5571021542988074  1.0000
  H   H199      1.0  0.10346591223918689  0.3504687422300301  0.5464435980245058  1.0000
  H   H200      1.0  0.19486660858858856  0.34248092449631634  0.5735956313874564  1.0000
  H   H201      1.0  0.1582028775987312  0.3222475085647565  0.5557771740807549  1.0000
  H   H202      1.0  0.18223575681663692  0.3521700735758479  0.5364663840103401  1.0000
  H   H203      1.0  0.11869248346623457  0.3793712613103381  0.6081217671029844  1.0000
  H   H204      1.0  0.15841016295106955  0.35896802762302416  0.6153119293663676  1.0000
  H   H205      1.0  0.12160142731545823  0.33812545610646755  0.5983263009183166  1.0000
  H   H206      1.0  0.15070635082172212  0.42027668567436904  0.579988928663091  1.0000
  H   H207      1.0  0.17747000375770425  0.4088941341133311  0.549961812752197  1.0000
  H   H208      1.0  0.1906489130752275  0.40000415910841214  0.5872787371550656  1.0000
  N   N5        1.0  0.6034863674599659  0.014199125884614838  0.3703899262893072  1.0000
  C   C257      1.0  0.608006387531672  0.0320899417049939  0.3427224833023964  1.0000
  C   C258      1.0  0.6027650351264957  0.9796502966187522  0.363927386134963  1.0000
  C   C259      1.0  0.570339975741509  0.02314276452124577  0.38380926785250274  1.0000
  C   C260      1.0  0.6328736474191347  0.021979108436232308  0.3911044366937716  1.0000
  H   H209      1.0  0.6086575694846103  0.058284333488684927  0.3469484320505151  1.0000
  H   H210      1.0  0.5862602828667189  0.026854343676891435  0.32657638023460445  1.0000
  H   H211      1.0  0.6328417493367196  0.025955078011167573  0.3320528928231601  1.0000
  H   H212      1.0  0.6005853444863747  0.9654801370541919  0.384530473545261  1.0000
  H   H213      1.0  0.580476228948057  0.9726566047579227  0.3489296124750079  1.0000
  H   H214      1.0  0.6271211105655867  0.9722048984562756  0.3531877975683562  1.0000
  H   H215      1.0  0.5474559386981726  0.016482742366847908  0.3693279311505318  1.0000
  H   H216      1.0  0.5694219297865243  0.04930398240473701  0.38764665767177486  1.0000
  H   H217      1.0  0.5668375899083848  0.011296611325346984  0.40550385279889656  1.0000
  H   H218      1.0  0.634461201078586  0.047955768266297265  0.39624675280140126  1.0000
  H   H219      1.0  0.6582671576658966  0.014879342106007406  0.38195002979519743  1.0000
  H   H220      1.0  0.6301498614013924  0.009158918534834859  0.4123652767269934  1.0000
  N   N6        1.0  0.9243311306642722  0.619358024823908  0.27462763892983194  1.0000
  C   C261      1.0  0.9164778339755398  0.593204569386762  0.2952542787695675  1.0000
  C   C262      1.0  0.9071349644981291  0.6486589069792185  0.2843848761876725  1.0000
  C   C263      1.0  0.9113036659162048  0.6104160691011616  0.24465784783677233  1.0000
  C   C264      1.0  0.9624173763823854  0.6251798890310237  0.2741986923630113  1.0000
  H   H221      1.0  0.9296126896168067  0.5709130605064717  0.28892427015398237  1.0000
  H   H222      1.0  0.8879421930776908  0.587698496730958  0.29555124100557684  1.0000
  H   H223      1.0  0.92509616757928  0.5995023892902566  0.3182849882369339  1.0000
  H   H224      1.0  0.9130168857623074  0.6690449116552366  0.26958930538081993  1.0000
  H   H225      1.0  0.8782674029371408  0.6453436330122748  0.28439036896449155  1.0000
  H   H226      1.0  0.9158511183634738  0.6558068170301373  0.30716769849931325  1.0000
  H   H227      1.0  0.9163272756027636  0.6298789595050824  0.22859498741546183  1.0000
  H   H228      1.0  0.8826446617393401  0.6054247905702425  0.24440020330387507  1.0000
  H   H229      1.0  0.9240351025924513  0.5886760778490371  0.23638729907986542  1.0000
  H   H230      1.0  0.9731017581980979  0.6312444804707662  0.29669760204334394  1.0000
  H   H231      1.0  0.9690848055926303  0.6453246944910274  0.25930649370736863  1.0000
  H   H232      1.0  0.9762374874587691  0.603861349601784  0.2662763109470016  1.0000
  N   N7        1.0  0.4730537107414321  0.18465443881373908  0.21703733290680977  1.0000
  C   C265      1.0  0.4973181080666867  0.21244113238207635  0.2167187904156625  1.0000
  C   C266      1.0  0.43883020189647726  0.19467095443470572  0.22764099766169293  1.0000
  C   C267      1.0  0.48715522293463415  0.16004514396792405  0.23689565720321895  1.0000
  C   C268      1.0  0.46878778284705624  0.1713239048577806  0.18685528239147112  1.0000
  H   H233      1.0  0.501005565031362  0.2231750614507398  0.23905480425500694  1.0000
  H   H234      1.0  0.487389926586895  0.2314210365962852  0.2019018980334574  1.0000
  H   H235      1.0  0.5235146252828592  0.20568440358873308  0.20912444003095168  1.0000
  H   H236      1.0  0.41990799257907174  0.17419868074749317  0.22807054378288494  1.0000
  H   H237      1.0  0.4412103598545368  0.20495329250275798  0.25028901083540683  1.0000
  H   H238      1.0  0.42731319454989575  0.21308419777341653  0.2131039439874849  1.0000
  H   H239      1.0  0.5144494967780413  0.15410832768524188  0.23166109112859967  1.0000
  H   H240      1.0  0.47129210413046474  0.1376781985123758  0.2351671224646036  1.0000
  H   H241      1.0  0.4871846817376951  0.16782287610421162  0.26038860003859926  1.0000
  H   H242      1.0  0.449092064094108  0.15137613874839845  0.1860404210639552  1.0000
  H   H243      1.0  0.4937205138026207  0.1618417491038273  0.17885106068320392  1.0000
  H   H244      1.0  0.45994862386011515  0.18974291278395453  0.17098649622840126  1.0000
  N   N8        1.0  0.7696030550359844  0.3699113314032363  0.976497140489456  1.0000
  C   C269      1.0  0.7909242963248202  0.3984744460898688  0.9695998465297134  1.0000
  C   C270      1.0  0.7328699750073266  0.3750893245493744  0.9674635764244083  1.0000
  C   C271      1.0  0.7718497286965827  0.36399686193763925  0.008604622408072249  1.0000
  C   C272      1.0  0.7828232363527952  0.3421667894391876  0.9603466290065442  1.0000
  H   H245      1.0  0.8191086697251089  0.3948166639971273  0.9746041040440983  1.0000
  H   H246      1.0  0.7827418756842893  0.4195364798695101  0.9825476233842078  1.0000
  H   H247      1.0  0.7886610393035236  0.40453354298362554  0.9457159812349745  1.0000
  H   H248      1.0  0.716356063759717  0.3533950379839207  0.9706780240821494  1.0000
  H   H249      1.0  0.7214672329380507  0.3945650815234504  0.9806081789590501  1.0000
  H   H250      1.0  0.7303993562120354  0.3818222645536303  0.943751098899757  1.0000
  H   H251      1.0  0.7560066643350155  0.34265191977543524  0.014651118856988886  1.0000
  H   H252      1.0  0.7620606109524586  0.38464107773732265  0.021369140494468364  1.0000
  H   H253      1.0  0.7992624798390404  0.36009113642084084  0.016132884741098155  1.0000
  H   H254      1.0  0.8106293765343048  0.33777276439321147  0.9663404961004012  1.0000
  H   H255      1.0  0.7814555819288577  0.3460648539338258  0.9361068079914732  1.0000
  H   H256      1.0  0.7675353676842592  0.3200655278370408  0.9649438628693431  1.0000
  N   N9        1.0  0.8882197521263155  0.12711288684426436  0.6079155631583095  1.0000
  C   C273      1.0  0.9011016995770563  0.1605512081248055  0.6087991941021953  1.0000
  C   C274      1.0  0.8895619310872982  0.11388910807029329  0.6380472380984529  1.0000
  C   C275      1.0  0.9104051039431531  0.10813529501333807  0.5885838113969079  1.0000
  C   C276      1.0  0.8518377419872807  0.1257768215310635  0.596311851847902  1.0000
  H   H257      1.0  0.9006603869612794  0.17138049622896467  0.586465558877275  1.0000
  H   H258      1.0  0.9283035141689638  0.16248731323902588  0.6179353777216726  1.0000
  H   H259      1.0  0.8849760711004014  0.17555550012051402  0.6232391542980767  1.0000
  H   H260      1.0  0.8797134001015153  0.08876462720359513  0.6384076682839142  1.0000
  H   H261      1.0  0.9164919594273587  0.11484080087614124  0.6477948981667543  1.0000
  H   H262      1.0  0.8729793079598807  0.12757875201352098  0.653034924819963  1.0000
  H   H263      1.0  0.9100065654154169  0.11741276799167122  0.5656238033461373  1.0000
  H   H264      1.0  0.9013570481114419  0.08277070750021176  0.5875346580722938  1.0000
  H   H265      1.0  0.938012641666002  0.10859877190244549  0.5967934389386071  1.0000
  H   H266      1.0  0.8411052439217518  0.10090916296097929  0.5958277609546094  1.0000
  H   H267      1.0  0.8496862559186434  0.13541992389834623  0.5735582669376967  1.0000
  H   H268      1.0  0.8343077880004185  0.13974518134441816  0.6104403509267575  1.0000
  N   N10       1.0  0.4240248665535042  0.5641681501854727  0.9728645368373952  1.0000
  C   C277      1.0  0.4299236432673231  0.554556608403982  0.941956252002672  1.0000
  C   C278      1.0  0.43369930352364683  0.5981647399046311  0.976976344318195  1.0000
  C   C279      1.0  0.44561957410175507  0.5447942773226924  0.9930611029523471  1.0000
  C   C280      1.0  0.386752754479838  0.5593050718095861  0.9793981612271576  1.0000
  H   H269      1.0  0.42276316389930907  0.5290614755149715  0.9379859647656218  1.0000
  H   H270      1.0  0.45770002790740116  0.5579328557728223  0.9361631112212443  1.0000
  H   H271      1.0  0.41414622583154825  0.568899549598563  0.9261447887487487  1.0000
  H   H272      1.0  0.4305989104542825  0.606127583697012  0.0002195789199892495  1.0000
  H   H273      1.0  0.46133515071352593  0.6030818840786607  0.9712732229112577  1.0000
  H   H274      1.0  0.41709293671668624  0.6134524302191577  0.9627670669135233  1.0000
  H   H275      1.0  0.44108517406255404  0.5508357125420242  0.01659196134504428  1.0000
  H   H276      1.0  0.47390666300253476  0.5489236640614481  0.9893917004368707  1.0000
  H   H277      1.0  0.4400836334543233  0.5188703899999998  0.989869054581011  1.0000
  H   H278      1.0  0.38113748974548023  0.5667985215741596  0.0023759346842224804  1.0000
  H   H279      1.0  0.37852428859560777  0.5338718059489802  0.9767047300857187  1.0000
  H   H280      1.0  0.36985902828883216  0.5734940484832555  0.9642456266249988  1.0000
  N   N11       1.0  0.26192211648230024  0.8632903067186761  0.9899972360151471  1.0000
  C   C281      1.0  0.2366874115487612  0.8413619197295427  0.9747291767063314  1.0000
  C   C282      1.0  0.2554368481085065  0.896331372265903  0.9806140255443665  1.0000
  C   C283      1.0  0.29775731377052295  0.8545589986121663  0.9824322386493815  1.0000
  C   C284      1.0  0.2577044533757393  0.8608606632834834  0.022255365510008396  1.0000
  H   H281      1.0  0.20950692349290417  0.8461489180302217  0.981056384619723  1.0000
  H   H282      1.0  0.2419217618707891  0.8160507099446077  0.9800979779480056  1.0000
  H   H283      1.0  0.2379566668860272  0.8436167599683577  0.9503054603756622  1.0000
  H   H284      1.0  0.2747711169105034  0.9134473334164582  0.9908277437214379  1.0000
  H   H285      1.0  0.25679718154814  0.8988554397095335  0.956195044720296  1.0000
  H   H286      1.0  0.229117265694553  0.9040335097029257  0.9870394037850249  1.0000
  H   H287      1.0  0.31761733443683465  0.8704278051099479  0.9936325410104752  1.0000
  H   H288      1.0  0.3017412879190753  0.8561535163612989  0.9582526105807982  1.0000
  H   H289      1.0  0.3033631946156208  0.8295661572829506  0.9887670690955419  1.0000
  H   H290      1.0  0.2763153139690742  0.877107715715965  0.034526595437762264  1.0000
  H   H291      1.0  0.2622557298804663  0.8361837679428461  0.030059448639571107  1.0000
  H   H292      1.0  0.23086252369710955  0.8673389765046376  0.028654665151631065  1.0000
  N   N12       1.0  0.3651257999427316  0.2078334863907732  0.32003062897860696  1.0000
  C   C285      1.0  0.3878041102510351  0.18694521356331678  0.3028928136880654  1.0000
  C   C286      1.0  0.3284649571698133  0.19681945105515283  0.3160984704345673  1.0000
  C   C287      1.0  0.3686523507598918  0.24098916828307854  0.3095572980957823  1.0000
  C   C288      1.0  0.37547680945576967  0.20650727311907052  0.35165583267978096  1.0000
  H   H293      1.0  0.4156529103679586  0.19462656141690832  0.30513459014016053  1.0000
  H   H294      1.0  0.3802312302332259  0.18662501884089425  0.27900052911332274  1.0000
  H   H295      1.0  0.3860971074104255  0.16189067887652814  0.31068551585706844  1.0000
  H   H296      1.0  0.31064892969008223  0.2114443170648703  0.3293780849120141  1.0000
  H   H297      1.0  0.31933357334053314  0.19815285037062744  0.2926301257047501  1.0000
  H   H298      1.0  0.324940376311912  0.17159574232737945  0.32294233487967106  1.0000
  H   H299      1.0  0.3610704570572932  0.24288211560982712  0.2857432643418117  1.0000
  H   H300      1.0  0.3959515203572041  0.250180217216825  0.3122853282221808  1.0000
  H   H301      1.0  0.35168641933376177  0.25728096951901597  0.32205910273412547  1.0000
  H   H302      1.0  0.3585781591111707  0.221555191089595  0.3654057620155082  1.0000
  H   H303      1.0  0.40293049034132034  0.21487381894515434  0.35563375169659395  1.0000
  H   H304      1.0  0.3734888549159232  0.18180956959061756  0.3602503121367726  1.0000
  N   N13       1.0  0.7780222250316482  0.7792768229915754  0.24799850800546402  1.0000
  C   C289      1.0  0.7615905684829272  0.7473395650662363  0.2507139731384262  1.0000
  C   C290      1.0  0.7545940946883164  0.8033867160977758  0.25986905449141257  1.0000
  C   C291      1.0  0.7843633566140696  0.7860047076196144  0.2165952807853305  1.0000
  C   C292      1.0  0.8114802367561289  0.7804080025811252  0.2648891330261508  1.0000
  H   H305      1.0  0.75470311180735  0.742147274937302  0.273931279654938  1.0000
  H   H306      1.0  0.7792148353987572  0.7284027943390827  0.24326498242776334  1.0000
  H   H307      1.0  0.7371017257951952  0.7450128126136034  0.23705313768261826  1.0000
  H   H308      1.0  0.7484342540064786  0.7986119349613212  0.28330756457131345  1.0000
  H   H309      1.0  0.7662746318306848  0.8277374302866349  0.25910367021010966  1.0000
  H   H310      1.0  0.7294659004325023  0.8039028062790748  0.24708852765142658  1.0000
  H   H311      1.0  0.8042093333125853  0.7699649419111293  0.20758058701416882  1.0000
  H   H312      1.0  0.7941623446581255  0.8108407269038921  0.21358042793677318  1.0000
  H   H313      1.0  0.7601126120599134  0.7829156661848479  0.20277496202842074  1.0000
  H   H314      1.0  0.8247797611619395  0.80405269482761  0.2628617122280907  1.0000
  H   H315      1.0  0.8296374064762354  0.7621982975240453  0.256637008658271  1.0000
  H   H316      1.0  0.8074782021572139  0.7760077349923601  0.2887476918460833  1.0000
  N   N14       1.0  0.8837508228774185  0.801291067842817  0.3603680667959697  1.0000
  C   C293      1.0  0.8639581578728522  0.8308942541276586  0.3627053393577787  1.0000
  C   C294      1.0  0.9132851986265792  0.8024603650600415  0.3819561331325107  1.0000
  C   C295      1.0  0.8970333545994211  0.7982606094424612  0.3301487108328803  1.0000
  C   C296      1.0  0.8606412462715758  0.7737163859964188  0.36664619947714394  1.0000
  H   H317      1.0  0.8527290115655259  0.8338513795862397  0.38490322953425393  1.0000
  H   H318      1.0  0.8419289258400345  0.8312790273849778  0.3463047784012465  1.0000
  H   H319      1.0  0.8808406283177851  0.8522676106976241  0.35887533563255425  1.0000
  H   H320      1.0  0.9262272310145383  0.7791158148493922  0.3836447414224495  1.0000
  H   H321      1.0  0.9332512415780424  0.8207523636790949  0.37599350621519584  1.0000
  H   H322      1.0  0.904579907260249  0.8085046642458512  0.4044744120159102  1.0000
  H   H323      1.0  0.9113108053390324  0.7757283586511947  0.32727718654045945  1.0000
  H   H324      1.0  0.9154468902051577  0.8182040293635936  0.32497041746990063  1.0000
  H   H325      1.0  0.8755940312727447  0.7986150776492358  0.313203104889752  1.0000
  H   H326      1.0  0.8746832951609425  0.7509094086175464  0.3646006724411279  1.0000
  H   H327      1.0  0.8375903924076052  0.7726825192351886  0.35128492118508836  1.0000
  H   H328      1.0  0.8508450120809616  0.7749625736094312  0.389508099618096  1.0000
  N   N15       1.0  0.06670042500154949  0.9549208438269898  0.9344504333023144  1.0000
  C   C297      1.0  0.08765491332178255  0.9845120116182228  0.9392416091635648  1.0000
  C   C298      1.0  0.0855794908238865  0.9331697047532647  0.9149823047312974  1.0000
  C   C299      1.0  0.032715584141725707  0.9627504126012884  0.9205425768205449  1.0000
  C   C300      1.0  0.060866177549329326  0.9393051079028255  0.9630993094114538  1.0000
  H   H329      1.0  0.0741038967488894  0.0015290522075350754  0.9537653844976101  1.0000
  H   H330      1.0  0.0927088707572552  0.9968062669805744  0.91805394942221  1.0000
  H   H331      1.0  0.11338303280012263  0.9795312629467209  0.9498946604231762  1.0000
  H   H332      1.0  0.09089657397184481  0.9442380081629386  0.8932534909148635  1.0000
  H   H333      1.0  0.1112049830735522  0.9267414960511521  0.925048879393497  1.0000
  H   H334      1.0  0.0705772979999475  0.9105711694058918  0.9107780483867041  1.0000
  H   H335      1.0  0.016069544926414325  0.9410272561559165  0.9167847797289017  1.0000
  H   H336      1.0  0.03605767787532188  0.9746050694479902  0.8988748667056339  1.0000
  H   H337      1.0  0.017972115196211114  0.9792550059557975  0.9347849054796152  1.0000
  H   H338      1.0  0.04580788827637883  0.9165260864630494  0.960341818614469  1.0000
  H   H339      1.0  0.046122400342538006  0.9547667792804487  0.9781643071271631  1.0000
  H   H340      1.0  0.08588947354950527  0.933783813526706  0.9746219148349033  1.0000
  N   N16       1.0  0.0929802248876308  0.482462035987127  0.7448961393585938  1.0000
  C   C301      1.0  0.06541081448222719  0.467490586908866  0.7257902569571689  1.0000
  C   C302      1.0  0.09214905777197968  0.5174248667309583  0.7416774578185448  1.0000
  C   C303      1.0  0.12739866696938273  0.4709732640677857  0.7361045638562934  1.0000
  C   C304      1.0  0.08695315123293446  0.4738697222985362  0.775973547732722  1.0000
  H   H341      1.0  0.06501508925078725  0.44118616677763706  0.7282816512870912  1.0000
  H   H342      1.0  0.06971026343267805  0.47250587687145373  0.7020293158571658  1.0000
  H   H343      1.0  0.03907187436441406  0.4759206921732921  0.7314057952397638  1.0000
  H   H344      1.0  0.11259186775496555  0.5294897197877394  0.755916813692322  1.0000
  H   H345      1.0  0.097299437754367  0.5246329802051978  0.7185333228265577  1.0000
  H   H346      1.0  0.06649343378911943  0.5269996644860238  0.7477877597943379  1.0000
  H   H347      1.0  0.12918373118067117  0.44469668038659893  0.7385193264052617  1.0000
  H   H348      1.0  0.14895376242362857  0.4823397961672332  0.7496006832409442  1.0000
  H   H349      1.0  0.1325119183137482  0.4765542695047688  0.7125765454999641  1.0000
  H   H350      1.0  0.10722007314446169  0.48484456062518194  0.7910706185103056  1.0000
  H   H351      1.0  0.08751897486760063  0.44758321769788095  0.7790692656010193  1.0000
  H   H352      1.0  0.06101120463976195  0.4818572046898694  0.7832368739527363  1.0000
  N   N17       1.0  0.9404903568651882  0.33615223440197756  0.8549464321317011  1.0000
  C   C305      1.0  0.9608919377466699  0.34236451978543503  0.828249898281405  1.0000
  C   C306      1.0  0.9291211295887547  0.36666524030318265  0.8675416303212248  1.0000
  C   C307      1.0  0.9623325110798311  0.3195543333193681  0.8770177001496122  1.0000
  C   C308      1.0  0.9096413493413511  0.31592022371581036  0.8470634905810553  1.0000
  H   H353      1.0  0.9704007639525633  0.31993200552086104  0.8183469653057758  1.0000
  H   H354      1.0  0.984318349189988  0.3577425958481381  0.8333819806515619  1.0000
  H   H355      1.0  0.9452310484249702  0.35492547470054675  0.8110979306929271  1.0000
  H   H356      1.0  0.9167173508283146  0.3632314010805731  0.8891966691920599  1.0000
  H   H357      1.0  0.95146596711918  0.3836865236153462  0.871167671375717  1.0000
  H   H358      1.0  0.9095445804612271  0.37824706830755156  0.8528864095648951  1.0000
  H   H359      1.0  0.985891504939351  0.33402604712536915  0.8837044788311523  1.0000
  H   H360      1.0  0.9714027068296289  0.2964567620677605  0.8682311813804955  1.0000
  H   H361      1.0  0.9478682557034862  0.3142078630028003  0.8974391238318571  1.0000
  H   H362      1.0  0.8938818906042544  0.3107441263129218  0.8667912245556263  1.0000
  H   H363      1.0  0.9173277828417341  0.29262226871466274  0.8376850179175076  1.0000
  H   H364      1.0  0.8922937943860483  0.3277639391161585  0.830662219690904  1.0000
  N   N18       1.0  0.9727453708604038  0.19418537975150407  0.7715334112283979  1.0000
  C   C309      1.0  0.9395758458185168  0.18199693465619501  0.7581000263851951  1.0000
  C   C310      1.0  0.995273520940815  0.16721841843221588  0.7792821895220053  1.0000
  C   C311      1.0  0.9653945605927621  0.2126958354700026  0.7984465823627356  1.0000
  C   C312      1.0  0.9908004895641886  0.21475407552622383  0.7502109856660781  1.0000
  H   H365      1.0  0.9237464648181788  0.2015886270273693  0.7487708517520608  1.0000
  H   H366      1.0  0.9233971707508121  0.16946175049984388  0.7745101335737765  1.0000
  H   H367      1.0  0.9441909738512033  0.16480491457559995  0.7399055663877138  1.0000
  H   H368      1.0  0.9816430345641296  0.14991453829245205  0.7935810338353578  1.0000
  H   H369      1.0  0.0031956255135534573  0.15397371782293826  0.7592738214186874  1.0000
  H   H370      1.0  0.019411610449763916  0.17541996280617295  0.7914818889501617  1.0000
  H   H371      1.0  0.9896981371031044  0.222754642710451  0.8089233294960605  1.0000
  H   H372      1.0  0.9527278192682462  0.19747456493372825  0.8152762204679094  1.0000
  H   H373      1.0  0.9478820962689204  0.23280313782222797  0.793460370142199  1.0000
  H   H374      1.0  0.9952327921277767  0.2017742851425313  0.7291997515272848  1.0000
  H   H375      1.0  0.016716094957136107  0.22299160670617527  0.7590853224497887  1.0000
  H   H376      1.0  0.975604039176877  0.23629340792978248  0.7447039056378646  1.0000
  N   N19       1.0  0.7727825723940304  0.1749167290109103  0.8775933723716249  1.0000
  C   C313      1.0  0.7385676809928068  0.17612109015836813  0.8917424258502826  1.0000
  C   C314      1.0  0.8004864597776195  0.18504366403331865  0.8990931864966368  1.0000
  C   C315      1.0  0.7728446945651484  0.196550597166868  0.8520185604503246  1.0000
  C   C316      1.0  0.7791479535615381  0.14204173632260939  0.8674944637748021  1.0000
  H   H377      1.0  0.7329661759172109  0.20074795204552698  0.8993041373978278  1.0000
  H   H378      1.0  0.7376042828577272  0.160313782220634  0.911329193895029  1.0000
  H   H379      1.0  0.7170996943713711  0.16849395203528883  0.8760961918789466  1.0000
  H   H380      1.0  0.8267175015308356  0.18430982091721632  0.8892388416735458  1.0000
  H   H381      1.0  0.7969230954377011  0.20991506515768868  0.9069379158933456  1.0000
  H   H382      1.0  0.8012947862718223  0.16943255073408672  0.9188122128283484  1.0000
  H   H383      1.0  0.7684736814703312  0.221726658895035  0.858724045753275  1.0000
  H   H384      1.0  0.7521836114184842  0.1895934249977195  0.8353756180008144  1.0000
  H   H385      1.0  0.7980256553958863  0.19613559861532473  0.8404380204457779  1.0000
  H   H386      1.0  0.7782892699459979  0.124872449038301  0.8860461033014612  1.0000
  H   H387      1.0  0.8052492839826009  0.14015659305195075  0.8575568745360334  1.0000
  H   H388      1.0  0.7597077742602043  0.13408511230202214  0.8501839457838765  1.0000
  N   N20       1.0  0.43573033106345804  0.6061184681312606  0.7454537723882487  1.0000
  C   C317      1.0  0.4329482723725482  0.5775313305448969  0.7641469441126848  1.0000
  C   C318      1.0  0.47289404431750437  0.6140738778943422  0.7408981795520452  1.0000
  C   C319      1.0  0.4190205322588672  0.6331682917191859  0.7601580274355337  1.0000
  C   C320      1.0  0.41804103451753744  0.5996975731013916  0.716603599060085  1.0000
  H   H389      1.0  0.4454752150925447  0.5567059645278555  0.7538618694251125  1.0000
  H   H390      1.0  0.4051488307344659  0.5707223603678333  0.7678033350781611  1.0000
  H   H391      1.0  0.44580531729739353  0.5817263798334597  0.7862132182931523  1.0000
  H   H392      1.0  0.48646829143252573  0.5940816729487344  0.7302018065562422  1.0000
  H   H393      1.0  0.47585859906663647  0.635326469798761  0.7265092970326692  1.0000
  H   H394      1.0  0.4868625499929839  0.6195199404005264  0.7623049260111856  1.0000
  H   H395      1.0  0.4208530808889382  0.6552361584528594  0.7467247405882924  1.0000
  H   H396      1.0  0.4314964689989555  0.6385552176918191  0.7821443716730887  1.0000
  H   H397      1.0  0.3908600471478292  0.6280829934168486  0.763811910398887  1.0000
  H   H398      1.0  0.4297538260124434  0.5792778045904328  0.7049858893826942  1.0000
  H   H399      1.0  0.4199677209218582  0.6207664816554967  0.7018457632471211  1.0000
  H   H400      1.0  0.38981926002858613  0.5939557179806572  0.7193626525786962  1.0000
  N   N21       1.0  0.47486985955264  0.3160709431011671  0.37899001505841706  1.0000
  C   C321      1.0  0.4706544838288704  0.3187605372536526  0.41125662541034347  1.0000
  C   C322      1.0  0.4448999857239014  0.29797140649473597  0.3656908802793914  1.0000
  C   C323      1.0  0.507479476082688  0.2993256661078576  0.3729184921297782  1.0000
  C   C324      1.0  0.4764480180996521  0.3482652453496768  0.36605766125381795  1.0000
  H   H401      1.0  0.44577279054283736  0.33039282030321965  0.4166787934354333  1.0000
  H   H402      1.0  0.49244220676796613  0.3328452371359065  0.4219176523101321  1.0000
  H   H403      1.0  0.47034845540762427  0.29492745994248903  0.4218237275144148  1.0000
  H   H404      1.0  0.4438639778028683  0.2731202879852791  0.37404597498023867  1.0000
  H   H405      1.0  0.4196904814921724  0.3091297681611696  0.37095493686290887  1.0000
  H   H406      1.0  0.4466632385379711  0.2967713782012857  0.34122961852012423  1.0000
  H   H407      1.0  0.5306320658513347  0.3119922533722175  0.3829745659890393  1.0000
  H   H408      1.0  0.5118015997839221  0.297347451924251  0.34881065916713916  1.0000
  H   H409      1.0  0.5069671310811886  0.27468156888311523  0.3818538810356315  1.0000
  H   H410      1.0  0.47913291490099236  0.3471041300873533  0.341641554988932  1.0000
  H   H411      1.0  0.4991811651307287  0.36238995012780795  0.3751010389828787  1.0000
  H   H412      1.0  0.45244773486062534  0.36170038927683734  0.3705533346582868  1.0000
  N   N22       1.0  0.5903323433405666  0.11119862848664086  0.5367554782537829  1.0000
  C   C325      1.0  0.5721986142059429  0.08164466570899002  0.5459808435792864  1.0000
  C   C326      1.0  0.5919006579685915  0.13423395293322796  0.5615964103461694  1.0000
  C   C327      1.0  0.5711268423814743  0.1251517730952234  0.5114551235131931  1.0000
  C   C328      1.0  0.626127510819796  0.10375621764186535  0.527995281788796  1.0000
  H   H413      1.0  0.5710638132812108  0.06350879439867727  0.5279334193839029  1.0000
  H   H414      1.0  0.544911404495322  0.0861234529444838  0.5523082229115885  1.0000
  H   H415      1.0  0.5857656031778311  0.07070350870676512  0.5652521016098861  1.0000
  H   H416      1.0  0.6054241157582001  0.1568024854892895  0.5553706818184498  1.0000
  H   H417      1.0  0.5653572955856727  0.1401884354542618  0.5689563874375312  1.0000
  H   H418      1.0  0.6063991102390862  0.12450917781210606  0.5810220365165676  1.0000
  H   H419      1.0  0.5441084244892913  0.1313887257665994  0.5172965167823567  1.0000
  H   H420      1.0  0.5690004519409668  0.10819836090443655  0.4925687813363449  1.0000
  H   H421      1.0  0.5844620716458493  0.14706330020905156  0.5033362806322427  1.0000
  H   H422      1.0  0.6404929098895655  0.1253765098890709  0.5204904410489427  1.0000
  H   H423      1.0  0.6259216801240555  0.08610904094579601  0.5095616907434013  1.0000
  H   H424      1.0  0.6414734895268646  0.09348927801681868  0.5467042020083418  1.0000
  N   N23       1.0  0.8517054500763677  0.32700635409679646  0.7311745182630799  1.0000
  C   C329      1.0  0.8603777247539636  0.3306602374770816  0.7629982685287354  1.0000
  C   C330      1.0  0.8203516609202464  0.34549507406868013  0.7237779585249292  1.0000
  C   C331      1.0  0.8449958591045567  0.29297459140031135  0.7241595288982502  1.0000
  C   C332      1.0  0.881202408315921  0.33891428278979585  0.7137933009377547  1.0000
  H   H425      1.0  0.8387895615658606  0.3212987421863191  0.7766986939110498  1.0000
  H   H426      1.0  0.8646182676080273  0.3561701190725323  0.7691380184258952  1.0000
  H   H427      1.0  0.8844475305047035  0.3177487326992227  0.7691506771740387  1.0000
  H   H428      1.0  0.825549584301129  0.37153506259650537  0.726397591907374  1.0000
  H   H429      1.0  0.8111452502320768  0.34115376477859827  0.7005771982369662  1.0000
  H   H430      1.0  0.7984836416027191  0.3393338253893115  0.738448847058408  1.0000
  H   H431      1.0  0.8243552968548403  0.28270775846106405  0.7382065269548872  1.0000
  H   H432      1.0  0.8687587094955354  0.2786338333124168  0.7276962302554845  1.0000
  H   H433      1.0  0.8361233425364  0.28938284554688465  0.7007388138967745  1.0000
  H   H434      1.0  0.8750806826348191  0.3376807687553529  0.6896743615935729  1.0000
  H   H435      1.0  0.905105113309225  0.32496163134998  0.7180799849070407  1.0000
  H   H436      1.0  0.8879646502323826  0.36413222570677756  0.7191275987387737  1.0000
  N   N24       1.0  0.9178864906157052  0.8992245639010996  0.1499491137290707  1.0000
  C   C333      1.0  0.9287278364051171  0.9076532884357662  0.18061867971113546  1.0000
  C   C334      1.0  0.8811226763601387  0.9079565163972004  0.1448618550825695  1.0000
  C   C335      1.0  0.9213596069848821  0.8645948767133619  0.14528362551063848  1.0000
  C   C336      1.0  0.9402665074724642  0.9165735918076162  0.12909494273820496  1.0000
  H   H437      1.0  0.9124073345686605  0.8948338191024188  0.1969114976919397  1.0000
  H   H438      1.0  0.9264582084849958  0.9336090429780372  0.18497953920959304  1.0000
  H   H439      1.0  0.9562806503183656  0.9013278763069069  0.18531845282544085  1.0000
  H   H440      1.0  0.8718328008415204  0.9015146319976464  0.12208587109075428  1.0000
  H   H441      1.0  0.8636904657442998  0.895370226597459  0.1605206757204886  1.0000
  H   H442      1.0  0.8775764606390577  0.9339750690889662  0.14801640105661418  1.0000
  H   H443      1.0  0.9040209463645571  0.8508183454603334  0.16001159349570784  1.0000
  H   H444      1.0  0.9485156896713799  0.856895155229151  0.14993627474279916  1.0000
  H   H445      1.0  0.9145138196112129  0.8574041415939593  0.12214618234384918  1.0000
  H   H446      1.0  0.9397001859378276  0.9427839125584656  0.13275801194758935  1.0000
  H   H447      1.0  0.9321104865259329  0.9115891057359401  0.10574575898015556  1.0000
  H   H448      1.0  0.9678946705362533  0.9093823180664508  0.1315555946337167  1.0000
  N   N25       1.0  0.6468887227073716  0.013553043286451924  0.6877422520734672  1.0000
  C   C337      1.0  0.6781389839961307  0.031563801055990375  0.6783149592882097  1.0000
  C   C338      1.0  0.6542117053654576  0.9791414363016889  0.6878806283838005  1.0000
  C   C339      1.0  0.6174421558399  0.019552250149204035  0.6670056931599369  1.0000
  C   C340      1.0  0.6376882171184088  0.023988417943083287  0.7177193741384902  1.0000
  H   H449      1.0  0.6857844687739817  0.024306924874865778  0.6557449922537324  1.0000
  H   H450      1.0  0.7009851498372633  0.02777341549823522  0.6933962374342083  1.0000
  H   H451      1.0  0.673419580516493  0.05761327669851704  0.6776811208221128  1.0000
  H   H452      1.0  0.6613058792665195  0.9705488974249911  0.6655509670201285  1.0000
  H   H453      1.0  0.6761581215511118  0.9735969519754117  0.7033693903154764  1.0000
  H   H454      1.0  0.6309450207907779  0.9647454138438808  0.6943165092878707  1.0000
  H   H455      1.0  0.5934950738391578  0.005910042072359456  0.6730236533479342  1.0000
  H   H456      1.0  0.6236646628933793  0.012207568516249932  0.6442080110679762  1.0000
  H   H457      1.0  0.6111662570334511  0.04530095216495805  0.6661400773661814  1.0000
  H   H458      1.0  0.6141401815755395  0.010886244696221237  0.7254469658008726  1.0000
  H   H459      1.0  0.6320002819805854  0.04988330297991665  0.7182590840286207  1.0000
  H   H460      1.0  0.6593540803175951  0.019872999755398992  0.7339593388478309  1.0000
  N   N26       1.0  0.2821602969817123  0.6047440972062512  0.6289381214661758  1.0000
  C   C341      1.0  0.2683301845251312  0.5724484134461203  0.6352645972926234  1.0000
  C   C342      1.0  0.29379159159477664  0.6059579638200844  0.5981043652486309  1.0000
  C   C343      1.0  0.3118801830641074  0.6123505762361876  0.6493100973211545  1.0000
  C   C344      1.0  0.2545663773103716  0.6282750371473965  0.6330311306392943  1.0000
  H   H461      1.0  0.2567983751631295  0.5712108318232992  0.6575729283038275  1.0000
  H   H462      1.0  0.2889424693613107  0.5543064231726513  0.6342039037891306  1.0000
  H   H463      1.0  0.24744053393601093  0.5651115970406557  0.619041583076278  1.0000
  H   H464      1.0  0.31450810361213566  0.5884265629000303  0.5940880337268745  1.0000
  H   H465      1.0  0.27173084501989264  0.6003730754132585  0.5822484734003781  1.0000
  H   H466      1.0  0.30429227178707524  0.6300453044685447  0.5926140948813671  1.0000
  H   H467      1.0  0.3038315612709745  0.6111447006197541  0.6726980443123043  1.0000
  H   H468      1.0  0.3225368579519625  0.6368352901061843  0.6456050210032754  1.0000
  H   H469      1.0  0.33350337115028034  0.5954694673536911  0.6465643991119819  1.0000
  H   H470      1.0  0.2645960295838697  0.6531171707804388  0.6303837863227645  1.0000
  H   H471      1.0  0.24352012917555202  0.6267576525826547  0.655501030645179  1.0000
  H   H472      1.0  0.23271614698770232  0.6244504272425995  0.6166851425380777  1.0000
  N   N27       1.0  0.561879548572929  0.4927102077272438  0.1883208808780286  1.0000
  C   C345      1.0  0.5262630933099789  0.47969615002004373  0.1924927025830316  1.0000
  C   C346      1.0  0.5598347906006602  0.5253904267083845  0.17659203772555399  1.0000
  C   C347      1.0  0.5801207389785801  0.47236285641616593  0.16719100433678188  1.0000
  C   C348      1.0  0.5812662616597422  0.4933434535849587  0.21695552473174137  1.0000
  H   H473      1.0  0.526715368869841  0.4549091197276141  0.20106407388638922  1.0000
  H   H474      1.0  0.5108619267816549  0.47888782328767754  0.17131908822301123  1.0000
  H   H475      1.0  0.5116822301640904  0.4942976989888567  0.20840543874453127  1.0000
  H   H476      1.0  0.5862160610220575  0.535938591063973  0.17322709276539813  1.0000
  H   H477      1.0  0.5456483456049346  0.5257666762942851  0.1548523800107795  1.0000
  H   H478      1.0  0.5462908923062577  0.5414708601533637  0.19197186973021838  1.0000
  H   H479      1.0  0.6074389681232946  0.48066359742431797  0.16421702722996628  1.0000
  H   H480      1.0  0.5670642355232595  0.4723879846421943  0.14500092012478666  1.0000
  H   H481      1.0  0.5811262444492269  0.4472716572434386  0.17479272405088614  1.0000
  H   H482      1.0  0.5832059297507256  0.4690778561030815  0.22648244167191492  1.0000
  H   H483      1.0  0.5685627096806551  0.5088156596148669  0.23338261872380603  1.0000
  H   H484      1.0  0.6083487387584462  0.5028483084476286  0.21460248263735482  1.0000
  N   N28       1.0  0.4815158836910941  0.31920183075336206  0.10500501960995771  1.0000
  C   C349      1.0  0.467248930255897  0.2916801395625555  0.0877645276012175  1.0000
  C   C350      1.0  0.4991768195753581  0.3417684501703012  0.08512843544780736  1.0000
  C   C351      1.0  0.5068358197528768  0.3079649598789665  0.12754510965910795  1.0000
  C   C352      1.0  0.4527483822543646  0.33536618566177295  0.11968501579533164  1.0000
  H   H485      1.0  0.4538247871043636  0.2742074672607989  0.10228705897092895  1.0000
  H   H486      1.0  0.4881825938722021  0.27888007769271206  0.07632341683047623  1.0000
  H   H487      1.0  0.4478045986419507  0.2992492396888868  0.07070934271028577  1.0000
  H   H488      1.0  0.5214512054939832  0.33062014584271304  0.073997693576544  1.0000
  H   H489      1.0  0.4809733184104713  0.35068781896791645  0.06770826711864705  1.0000
  H   H490      1.0  0.5098439532841393  0.3628793460356875  0.0975406172366204  1.0000
  H   H491      1.0  0.5180885839428149  0.3281204171672946  0.1409818309962726  1.0000
  H   H492      1.0  0.5289361078425976  0.2956594101752333  0.1172752077323745  1.0000
  H   H493      1.0  0.4943351470564689  0.2909888893737848  0.1430202726987599  1.0000
  H   H494      1.0  0.46254822313470256  0.3556283995985861  0.1337364614058223  1.0000
  H   H495      1.0  0.43824554328514337  0.3187066507253672  0.13413790504690254  1.0000
  H   H496      1.0  0.43362547607992386  0.34504074554907316  0.10339547938822853  1.0000
  N   N29       1.0  0.1297040528963816  0.006704844037311419  0.17672305903430385  1.0000
  C   C353      1.0  0.14267141007824452  0.9768943695125649  0.16385500204639145  1.0000
  C   C354      1.0  0.10188738177368593  0.9990470086799186  0.19766563462037756  1.0000
  C   C355      1.0  0.11562746896699327  0.026942535061682538  0.15284795089925973  1.0000
  C   C356      1.0  0.15863170809517954  0.023911289857881934  0.19251320419113943  1.0000
  H   H497      1.0  0.15394259214749248  0.9611822333761112  0.1811342821155947  1.0000
  H   H498      1.0  0.1633852075723459  0.9818199134765705  0.14764817410722833  1.0000
  H   H499      1.0  0.12134236428791603  0.9631284082121685  0.15208509894856911  1.0000
  H   H500      1.0  0.11165099894283272  0.9837626655117916  0.21592186829588125  1.0000
  H   H501      1.0  0.09130808734454769  0.020990034163897997  0.20764259232268775  1.0000
  H   H502      1.0  0.07969785490862094  0.9859334721955325  0.18647860456077908  1.0000
  H   H503      1.0  0.13589552900747623  0.032990043482369114  0.13655375067234427  1.0000
  H   H504      1.0  0.10576012925801759  0.049744471397097145  0.16162915398205657  1.0000
  H   H505      1.0  0.09370406373513894  0.014714349272967997  0.1404959174310837  1.0000
  H   H506      1.0  0.14983448941191768  0.04641561473217992  0.20274522157945604  1.0000
  H   H507      1.0  0.17979283446094443  0.030429579437401877  0.17729634142143613  1.0000
  H   H508      1.0  0.17056603366948478  0.009161111761280871  0.21024041104261093  1.0000
  N   N30       1.0  0.6408365817982843  0.5389017124855598  0.928018504446332  1.0000
  C   C357      1.0  0.6176694991130061  0.510451940056265  0.9296069036726372  1.0000
  C   C358      1.0  0.6416570087146277  0.5500445291207048  0.8971604677828691  1.0000
  C   C359      1.0  0.6764467122191402  0.5306327868302825  0.9380768208463517  1.0000
  C   C360      1.0  0.6275581458451674  0.5643940056540534  0.9471192995535225  1.0000
  H   H509      1.0  0.6177435686835547  0.5003281187481788  0.9522629102620263  1.0000
  H   H510      1.0  0.6258164832308036  0.49136482408734544  0.9142812313239062  1.0000
  H   H511      1.0  0.5902008013820204  0.5160697760461765  0.9236550585955038  1.0000
  H   H512      1.0  0.6587565305792896  0.5715999754503353  0.895120840796668  1.0000
  H   H513      1.0  0.6517630410789597  0.5313530146152875  0.8822022295646216  1.0000
  H   H514      1.0  0.6151242853650265  0.5561934816837403  0.8887843748607338  1.0000
  H   H515      1.0  0.6946107926417983  0.5515841211979104  0.9375928176877025  1.0000
  H   H516      1.0  0.6873923482408102  0.5117933641847787  0.9238182622264753  1.0000
  H   H517      1.0  0.6767657055613496  0.5214568598992284  0.9610926636422293  1.0000
  H   H518      1.0  0.6448590453281601  0.5859701768785359  0.9471750616745137  1.0000
  H   H519      1.0  0.6254180080615759  0.556417379020922  0.9703789042965313  1.0000
  H   H520      1.0  0.6011195697572542  0.5718169851036105  0.9396667397005624  1.0000
  N   N31       1.0  0.26645634439853266  0.41905338968183287  0.40330426111213286  1.0000
  C   C361      1.0  0.2906851986249567  0.4064492231562926  0.4260364112011686  1.0000
  C   C362      1.0  0.2721039156111179  0.4538435789868271  0.40090945201552125  1.0000
  C   C363      1.0  0.23008648565634357  0.4123028025281328  0.4117582586786979  1.0000
  C   C364      1.0  0.27300061706249434  0.4036662835953997  0.37459308577799033  1.0000
  H   H521      1.0  0.3183503309341966  0.4093731594535258  0.41955179336526377  1.0000
  H   H522      1.0  0.28594043537114533  0.3805049498442554  0.42961707173719965  1.0000
  H   H523      1.0  0.2878717028316048  0.4189008854906792  0.4475663518361769  1.0000
  H   H524      1.0  0.2542066940807129  0.4641887199668964  0.3839886585857567  1.0000
  H   H525      1.0  0.26728041503855654  0.4661055079644171  0.42231539839160925  1.0000
  H   H526      1.0  0.29933915995008054  0.45979993553786974  0.3947079934646865  1.0000
  H   H527      1.0  0.21107992395948855  0.41982706265845565  0.39436572721441976  1.0000
  H   H528      1.0  0.2237119680037094  0.42520876127425955  0.4323873835086027  1.0000
  H   H529      1.0  0.22536829806784078  0.38644085738231804  0.4157627414249288  1.0000
  H   H530      1.0  0.30040541496009315  0.40775153098034206  0.3677607993923881  1.0000
  H   H531      1.0  0.25541325432731304  0.41261520676039315  0.35676096913917554  1.0000
  H   H532      1.0  0.2688601943480166  0.3774704606808173  0.3758014821341529  1.0000
  N   N32       1.0  0.7430587826790982  0.6122864340981712  0.13159984747813577  1.0000
  C   C365      1.0  0.7750610999136186  0.6242047693884029  0.14721209142525749  1.0000
  C   C366      1.0  0.7135117113093292  0.6325625036831493  0.13919252389500592  1.0000
  C   C367      1.0  0.7355126185806724  0.5791265542676296  0.14054819072223676  1.0000
  C   C368      1.0  0.7480493761544033  0.613267252952009  0.09936590773063854  1.0000
  H   H533      1.0  0.7980339706902684  0.6097298322905221  0.14187868707114734  1.0000
  H   H534      1.0  0.7720978889311598  0.6236331542683514  0.17156380512256167  1.0000
  H   H535      1.0  0.7812120462473086  0.6493803213658403  0.14136682858773658  1.0000
  H   H536      1.0  0.6894014323941613  0.6253270743714058  0.12652135835410092  1.0000
  H   H537      1.0  0.7077597482424794  0.631208073380101  0.16314804876360253  1.0000
  H   H538      1.0  0.7190846361380404  0.6580762393360461  0.13428774362888238  1.0000
  H   H539      1.0  0.7127838571446584  0.5688385389769133  0.12781442311709312  1.0000
  H   H540      1.0  0.7293017787171616  0.5776590491589683  0.16441131944705067  1.0000
  H   H541      1.0  0.7579587373842028  0.5634504581468398  0.13664219574322534  1.0000
  H   H542      1.0  0.7700865352192657  0.5981791881292297  0.0927765768476367  1.0000
  H   H543      1.0  0.7536269796966292  0.6379923375226324  0.09186376924234768  1.0000
  H   H544      1.0  0.7242433391306531  0.6043644039371731  0.0869910697531151  1.0000
  N   N33       1.0  0.735747269557115  0.6891480196609204  0.39316607350423777  1.0000
  C   C369      1.0  0.738595226649531  0.7241933015632888  0.3913531998921557  1.0000
  C   C370      1.0  0.7578995962586283  0.6780107100100236  0.4179952552860872  1.0000
  C   C371      1.0  0.7473085193887407  0.6748523065806045  0.3652316810991719  1.0000
  C   C372      1.0  0.6991237903773546  0.6795443249028582  0.3982539589638115  1.0000
  H   H545      1.0  0.7235713674299363  0.7334060687937554  0.3720450088342062  1.0000
  H   H546      1.0  0.7661361592127793  0.7324677997155055  0.38924467871087337  1.0000
  H   H547      1.0  0.7281246650482939  0.7357232680145983  0.4113334723852575  1.0000
  H   H548      1.0  0.7561155526870674  0.6516597118382385  0.4201578599657138  1.0000
  H   H549      1.0  0.785883264199949  0.6844443229904451  0.4149615981357695  1.0000
  H   H550      1.0  0.7501838200835299  0.6884999875515346  0.43940488614109774  1.0000
  H   H551      1.0  0.7758625861015699  0.6782854760591204  0.3624001500442628  1.0000
  H   H552      1.0  0.7337777391052054  0.6853513604472846  0.3457387638702994  1.0000
  H   H553      1.0  0.7414358605381383  0.6488472406392899  0.36430757635278577  1.0000
  H   H554      1.0  0.6958330024942169  0.6531691182955245  0.3989525713913381  1.0000
  H   H555      1.0  0.681473428196937  0.6880875156050877  0.380363076227803  1.0000
  H   H556      1.0  0.6897879480589899  0.6894344023205059  0.4194054524423244  1.0000
  N   N34       1.0  0.24559711546068466  0.7874010029187184  0.7039403645829976  1.0000
  C   C373      1.0  0.2645574191073947  0.8057424599020238  0.6814539914725636  1.0000
  C   C374      1.0  0.2231609925878731  0.8089998882238882  0.7205751674324429  1.0000
  C   C375      1.0  0.27093700485054195  0.7724275624395378  0.7244042429374096  1.0000
  C   C376      1.0  0.22368518519312428  0.7623702353252193  0.6891863332511232  1.0000
  H   H557      1.0  0.24653664496561464  0.8152189425520755  0.664208218117339  1.0000
  H   H558      1.0  0.28413966771177945  0.7909083936893464  0.6703166028334139  1.0000
  H   H559      1.0  0.27905985211869483  0.8264560663916041  0.691516177479647  1.0000
  H   H560      1.0  0.205651421433617  0.8225968659553128  0.7056102648407256  1.0000
  H   H561      1.0  0.2063427725698247  0.7956978203257749  0.736038888384686  1.0000
  H   H562      1.0  0.23879394404446241  0.8264818005355057  0.7342190517327968  1.0000
  H   H563      1.0  0.25762343478121885  0.759339413298579  0.7423107550207594  1.0000
  H   H564      1.0  0.28893464219008985  0.7904333064926791  0.7350134684086703  1.0000
  H   H565      1.0  0.28735177454682054  0.7551012968179012  0.7126804268855337  1.0000
  H   H566      1.0  0.23947810264280758  0.7469176369437144  0.6749185734051488  1.0000
  H   H567      1.0  0.20279592526158  0.7727153376548562  0.6750144200770055  1.0000
  H   H568      1.0  0.21096481536088096  0.7465303699362733  0.7055503046334375  1.0000
  N   N35       1.0  0.3145322060736589  0.0960254728064065  0.3936450211885344  1.0000
  C   C377      1.0  0.2760261360361945  0.09673647875823121  0.39309616322130164  1.0000
  C   C378      1.0  0.32841622575130014  0.12368102774132139  0.37739385492433947  1.0000
  C   C379      1.0  0.3259114002388992  0.06631255166517636  0.379469049484242  1.0000
  C   C380      1.0  0.32781469313511913  0.0974791865558231  0.42454872424765905  1.0000
  H   H569      1.0  0.2646052418636056  0.07630927806070997  0.4052876457153657  1.0000
  H   H570      1.0  0.2652026435968926  0.0955311736016895  0.37000955837275173  1.0000
  H   H571      1.0  0.2665968810455751  0.11904125769909246  0.4034066071642036  1.0000
  H   H572      1.0  0.32004734305445953  0.14651509174938027  0.38734412245677813  1.0000
  H   H573      1.0  0.35746790782003757  0.12394096418274825  0.377567735773566  1.0000
  H   H574      1.0  0.3190141276437694  0.12315816514721911  0.35395184463200485  1.0000
  H   H575      1.0  0.3549085828608719  0.0650837626289189  0.37935776404702914  1.0000
  H   H576      1.0  0.31629290339760857  0.06456283415451547  0.35606087516492213  1.0000
  H   H577      1.0  0.31603156053636405  0.04489524622063579  0.3911633889066242  1.0000
  H   H578      1.0  0.35685797849461576  0.09697781402951922  0.4256459147087696  1.0000
  H   H579      1.0  0.3178713741558685  0.0770170444403444  0.4375642406656891  1.0000
  H   H580      1.0  0.3197351048829971  0.11977140569992129  0.43578883363880616  1.0000
  N   N36       1.0  0.585664100722146  0.804547912102255  0.7003638303350529  1.0000
  C   C381      1.0  0.5624575301179523  0.8286064662887181  0.7127427045616662  1.0000
  C   C382      1.0  0.6223546439442295  0.8150785732303847  0.7052125664545766  1.0000
  C   C383      1.0  0.5781845486089031  0.8008542381039288  0.6683145671763272  1.0000
  C   C384      1.0  0.5796976921608044  0.7737704873732304  0.7152480561990642  1.0000
  H   H581      1.0  0.5345376611433149  0.8221140295775857  0.7083064339152543  1.0000
  H   H582      1.0  0.5672959041400545  0.852464908231006  0.7030748084321083  1.0000
  H   H583      1.0  0.5660360224190003  0.8308845520759809  0.7371420896342403  1.0000
  H   H584      1.0  0.6406093587739508  0.7974507391440515  0.6961647654492868  1.0000
  H   H585      1.0  0.6276732328050901  0.8382590902824368  0.6941976307408354  1.0000
  H   H586      1.0  0.6287896521986859  0.8182608710386351  0.7291729349447098  1.0000
  H   H587      1.0  0.5943081646114066  0.7821372490656882  0.6583048370091436  1.0000
  H   H588      1.0  0.5834038502928351  0.8234324466115258  0.6563042577665179  1.0000
  H   H589      1.0  0.5503361981361072  0.7941452532948424  0.6636653890794656  1.0000
  H   H590      1.0  0.5966580666864755  0.7549200051746541  0.7065351764523171  1.0000
  H   H591      1.0  0.5522111996635485  0.7652894940824251  0.7122195399244934  1.0000
  H   H592      1.0  0.5846628405959785  0.7758285455247033  0.7395347724090536  1.0000
  N   N37       1.0  0.24317990505557616  0.28182483606579556  0.23483247092409587  1.0000
  C   C385      1.0  0.21648764303356427  0.2895215069228845  0.2566005561088527  1.0000
  C   C386      1.0  0.2725488111596412  0.26567106321625356  0.24977278386415167  1.0000
  C   C387      1.0  0.256047355393899  0.3115872243305413  0.22125527364419548  1.0000
  C   C388      1.0  0.22756443846240798  0.26058991669639475  0.2116854100827456  1.0000
  H   H593      1.0  0.20422134042271706  0.2676401971160651  0.2657097281002293  1.0000
  H   H594      1.0  0.19518589373718445  0.30375139950443764  0.24660038334679676  1.0000
  H   H595      1.0  0.22791426953736607  0.30324169505161414  0.2757482891271123  1.0000
  H   H596      1.0  0.28613198047130156  0.28153778927188844  0.26629221486053656  1.0000
  H   H597      1.0  0.2635280431170816  0.2440229661783433  0.2615157929490344  1.0000
  H   H598      1.0  0.29223879092991656  0.2580068455651241  0.23375353609777544  1.0000
  H   H599      1.0  0.26564607139769775  0.32904403373637403  0.23832962730204227  1.0000
  H   H600      1.0  0.23522769114767417  0.32323743959897255  0.20796472620196446  1.0000
  H   H601      1.0  0.2782222197341604  0.30717693283063996  0.20650081912525592  1.0000
  H   H602      1.0  0.22012465988236193  0.2368803431080011  0.22074918989311143  1.0000
  H   H603      1.0  0.24615763100514806  0.25614621217900435  0.1937512852691058  1.0000
  H   H604      1.0  0.2038347715768906  0.2709314910657805  0.20131752921028068  1.0000
  N   N38       1.0  0.4210839024229  0.7957666719705755  0.8293970256622245  1.0000
  C   C389      1.0  0.4256473741990169  0.7972813640765243  0.7971555356332071  1.0000
  C   C390      1.0  0.40883482744991156  0.76346554040629  0.8373779625658657  1.0000
  C   C391      1.0  0.3951458104613789  0.8192810080366747  0.8381129565429686  1.0000
  C   C392      1.0  0.45467126190099233  0.8031121379426708  0.8448951873793936  1.0000
  H   H605      1.0  0.4372154185080335  0.8205696712711396  0.7904522198108831  1.0000
  H   H606      1.0  0.4003541594848126  0.7941210891631442  0.7847882658173545  1.0000
  H   H607      1.0  0.4431545628805991  0.7783798083187422  0.7895311560601579  1.0000
  H   H608      1.0  0.40495069525213123  0.7615781456930163  0.8615860841277533  1.0000
  H   H609      1.0  0.3837805504702916  0.7571699977559221  0.8257448360362372  1.0000
  H   H610      1.0  0.42817655659305287  0.7452149019479253  0.8313895870988086  1.0000
  H   H611      1.0  0.3888756040339941  0.8174216507368326  0.8617645080149492  1.0000
  H   H612      1.0  0.370174803640315  0.8162597163876614  0.825257706794673  1.0000
  H   H613      1.0  0.40502375194484946  0.8440042202097324  0.8346663366609598  1.0000
  H   H614      1.0  0.4657602503805093  0.8265295938962328  0.8380703302939793  1.0000
  H   H615      1.0  0.4742540344683762  0.7847502252424927  0.8403222133164416  1.0000
  H   H616      1.0  0.45162561360287523  0.8040800676720763  0.8692380033451818  1.0000
  N   N39       1.0  0.6869384420580008  0.8579960117343297  0.48331761228651987  1.0000
  C   C393      1.0  0.6669419308560319  0.8804947259821178  0.5011696288246362  1.0000
  C   C394      1.0  0.6631516712411853  0.8414033627704472  0.4618193025065928  1.0000
  C   C395      1.0  0.7037196234654339  0.8344878963490507  0.5028571005309274  1.0000
  C   C396      1.0  0.7140756413078825  0.8757134826288849  0.4672975210961594  1.0000
  H   H617      1.0  0.6842205427192151  0.8941475148495128  0.5170973241412244  1.0000
  H   H618      1.0  0.6465793606022059  0.8680065511511746  0.5140581145552557  1.0000
  H   H619      1.0  0.6535875607400244  0.8982276579812628  0.4869474885592546  1.0000
  H   H620      1.0  0.6774371850828667  0.8243326607294922  0.44790079657613385  1.0000
  H   H621      1.0  0.642227370035683  0.8278092720241913  0.47307916377688114  1.0000
  H   H622      1.0  0.6503749220722684  0.8585617114004211  0.44655896864608485  1.0000
  H   H623      1.0  0.7190585828467545  0.8172291006980394  0.48991972402124634  1.0000
  H   H624      1.0  0.6840921251236054  0.8206315627786768  0.5153943611507669  1.0000
  H   H625      1.0  0.7220374036287107  0.8463909088842929  0.5191231455766842  1.0000
  H   H626      1.0  0.7022597850477396  0.8921087297362676  0.45093060092491843  1.0000
  H   H627      1.0  0.7310439422177496  0.8594358955430954  0.4549807210748972  1.0000
  H   H628      1.0  0.7312801246049305  0.890142449946602  0.4826395879986208  1.0000
  N   N40       1.0  0.06260766543749993  0.6676874733723069  0.4090614297556066  1.0000
  C   C397      1.0  0.06304182025787664  0.6687972759525181  0.4417036507958327  1.0000
  C   C398      1.0  0.0984144780386353  0.6631689989251952  0.39875318021750955  1.0000
  C   C399      1.0  0.04899430541335548  0.6978367718084567  0.39731325479814916  1.0000
  C   C400      1.0  0.03996044964860723  0.6408766619645306  0.3984612867911465  1.0000
  H   H629      1.0  0.03629009002887118  0.6710607869347218  0.4504035320309331  1.0000
  H   H630      1.0  0.07902045314565191  0.6892789541922557  0.4505381620449092  1.0000
  H   H631      1.0  0.07411986917502524  0.6467694336790062  0.45124444421958015  1.0000
  H   H632      1.0  0.09898318742781931  0.6620536953855266  0.37420882035799385  1.0000
  H   H633      1.0  0.11621323000796432  0.6830073486367012  0.4063241695383904  1.0000
  H   H634      1.0  0.1094311799942724  0.6405859302840706  0.40737368191393786  1.0000
  H   H635      1.0  0.04788220936640197  0.6977649249804654  0.3727123221287536  1.0000
  H   H636      1.0  0.06527951793711315  0.7187173648684451  0.40481489255750047  1.0000
  H   H637      1.0  0.022028720820949532  0.70171091064564  0.40467685802000913  1.0000
  H   H638      1.0  0.03697044392837734  0.6406596136088956  0.37395486408693995  1.0000
  H   H639      1.0  0.013265852589761984  0.6423552684445262  0.40744292877820276  1.0000
  H   H640      1.0  0.050752030782872604  0.6175886530598939  0.4051508693240927  1.0000
