data_image0
_chemical_formula_structural       FeS2FeS2FeSFeS3FeS2FeS2FeSFeS3FeS2FeS2FeSFeS3FeS2FeS2FeSFeS3FeS2FeS2FeSFeS3FeS2FeS2FeSFeS3FeS2FeS2FeSFeS3FeS2FeS2FeSFeS3FeS2FeS2FeSFeS3FeS2FeS2FeSFeS3FeS2FeS2FeSFeS3FeS2FeS2FeSFeS3FeS2FeS2FeSFeS3FeS2FeS2FeSFeS3FeS2FeS2FeSFeS3FeS2FeS2FeSFeS3C6H4C6H4C6H4C6H4C6H4C6H4C6H4C6H4C6H4C6H4C6H4C6H4C6H4C6H4C6H4C6H4C6H4C6H4C6H4C6H4C6H4C6H4C6H4C6H4C6H4C6H4C6H4C6H4C6H4C6H4C6H4C6H4NC4H12NC4H12NC4H12NC4H12NC4H12NC4H12NC4H12NC4H12NC4H12NC4H12NC4H12NC4H12NC4H12NC4H12NC4H12NC4H12NC4H12NC4H12NC4H12NC4H12NC4H12NC4H12NC4H12NC4H12NC4H12NC4H12NC4H12NC4H12NC4H12NC4H12NC4H12NC4H12
_chemical_formula_sum              "Fe64 S128 C320 H512 N32"
_cell_length_a       36.24216032217025
_cell_length_b       36.35611112298062
_cell_length_c       36.01692668731326
_cell_angle_alpha    89.4251523398248
_cell_angle_beta     89.77280778852779
_cell_angle_gamma    86.32597528879684

_space_group_name_H-M_alt    "P 1"
_space_group_IT_number       1

loop_
  _space_group_symop_operation_xyz
  'x, y, z'

loop_
  _atom_site_type_symbol
  _atom_site_label
  _atom_site_symmetry_multiplicity
  _atom_site_fract_x
  _atom_site_fract_y
  _atom_site_fract_z
  _atom_site_occupancy
  Fe  Fe1       1.0  0.6892771110652276  0.3577902714758825  0.532156493727535  1.0000
  S   S1        1.0  0.6543982541399435  0.4022215605597712  0.5034797924617246  1.0000
  S   S2        1.0  0.6681375320328147  0.32585547518735586  0.5801322876721775  1.0000
  Fe  Fe2       1.0  0.7583703698288855  0.37308718749523656  0.4885104791725  1.0000
  S   S3        1.0  0.7297076753844385  0.4186253296120434  0.45514211174184427  1.0000
  S   S4        1.0  0.8192975946269475  0.3609875848501235  0.47996893311461364  1.0000
  Fe  Fe3       1.0  0.7036807283512526  0.43576566001754957  0.5094163581304455  1.0000
  S   S5        1.0  0.7011656764459021  0.4932357241044914  0.5313299090691764  1.0000
  Fe  Fe4       1.0  0.6833876452133233  0.3808269164583412  0.45200095166470117  1.0000
  S   S6        1.0  0.6526644334557653  0.36872491875360086  0.40010897357424746  1.0000
  S   S7        1.0  0.736048412346507  0.39330178362826673  0.5429857463344002  1.0000
  S   S8        1.0  0.7143210820880801  0.3332956240726261  0.4804063917320371  1.0000
  Fe  Fe5       1.0  0.3737496121711227  0.4279607209864153  0.42025067515687875  1.0000
  S   S9        1.0  0.4214608465322025  0.4301589791943313  0.4588005884104654  1.0000
  S   S10       1.0  0.322094792597128  0.46401514612826256  0.42908509895178004  1.0000
  Fe  Fe6       1.0  0.4116319984883353  0.3679937581697745  0.3741262488602582  1.0000
  S   S11       1.0  0.46347294522409055  0.36495879093168976  0.40856942546043795  1.0000
  S   S12       1.0  0.40403549574044717  0.3299211233286192  0.3264633468707515  1.0000
  Fe  Fe7       1.0  0.42435277036625346  0.3686528074062293  0.45675406176030414  1.0000
  S   S13       1.0  0.4338723863666023  0.33646025807554575  0.5096141125838548  1.0000
  Fe  Fe8       1.0  0.4563241003024776  0.4267870218429522  0.407470175136528  1.0000
  S   S14       1.0  0.5022471894986801  0.465614860319036  0.40610494524823965  1.0000
  S   S15       1.0  0.37302258061316995  0.366450683373072  0.4228128423195993  1.0000
  S   S16       1.0  0.4080705698230395  0.42972172257331676  0.36845818145571874  1.0000
  Fe  Fe9       1.0  0.8052210532465184  0.35586252881449615  0.7119520226024488  1.0000
  S   S17       1.0  0.7534967494164893  0.39264865768555113  0.7081777840891481  1.0000
  S   S18       1.0  0.8170173328324313  0.3143540335619958  0.6672517529788793  1.0000
  Fe  Fe10      1.0  0.828407701353208  0.38881406049760675  0.7840223427056314  1.0000
  S   S19       1.0  0.7784463692780924  0.42859583038334786  0.7866833550446429  1.0000
  S   S20       1.0  0.8678974871835251  0.38736300221534936  0.8320886292380285  1.0000
  Fe  Fe11      1.0  0.7475330887441183  0.3806072202298203  0.7686959741773236  1.0000
  S   S21       1.0  0.694265208118021  0.36397768017155935  0.7934391468045764  1.0000
  Fe  Fe12      1.0  0.789011526675255  0.43723024636524394  0.7258777496430204  1.0000
  S   S22       1.0  0.7787390122376281  0.49151137354916813  0.6961453774912418  1.0000
  S   S23       1.0  0.7963898312718422  0.33988420815202475  0.771117931232345  1.0000
  S   S24       1.0  0.8419605858023645  0.40163654490672296  0.7244487040198536  1.0000
  Fe  Fe13      1.0  0.4974401527488398  0.4356951376767747  0.6706130871103917  1.0000
  S   S25       1.0  0.493054135758163  0.49056915736093454  0.6980532811082645  1.0000
  S   S26       1.0  0.5221834676987874  0.4360860133035614  0.6135986872615256  1.0000
  Fe  Fe14      1.0  0.4685238612252611  0.39617777814725397  0.737950052041361  1.0000
  S   S27       1.0  0.4634350067010945  0.4475419800480123  0.7717518905207066  1.0000
  S   S28       1.0  0.45102930878417913  0.3451200031243745  0.7669943973101598  1.0000
  Fe  Fe15      1.0  0.4389998272895178  0.47330633462571464  0.7198635159074407  1.0000
  S   S29       1.0  0.3886120423743432  0.5124600245090986  0.7217262929196948  1.0000
  Fe  Fe16      1.0  0.5179852473414627  0.4599765541268694  0.7468580685796958  1.0000
  S   S30       1.0  0.5647260291215297  0.48697739483190206  0.7738880286733153  1.0000
  S   S31       1.0  0.4403417290133662  0.4211210913926778  0.6873056342927583  1.0000
  S   S32       1.0  0.5260522644342772  0.4057148803194198  0.717963540546751  1.0000
  Fe  Fe17      1.0  0.34903406215563443  0.6329835038904592  0.5232099195886424  1.0000
  S   S33       1.0  0.35104969844935097  0.6368467747171206  0.4610847184626752  1.0000
  S   S34       1.0  0.3333606564535355  0.5825267778040113  0.5540747406865552  1.0000
  Fe  Fe18      1.0  0.37496345356785515  0.7087544712795133  0.5343095339880547  1.0000
  S   S35       1.0  0.379849013313757  0.720239379877489  0.47333842194787523  1.0000
  S   S36       1.0  0.3944894502464001  0.7472743136827344  0.5772998345141926  1.0000
  Fe  Fe19      1.0  0.3257703410710338  0.6942920238543412  0.4687833573063454  1.0000
  S   S37       1.0  0.2839631582331088  0.7156784420466974  0.4265530212271463  1.0000
  Fe  Fe20      1.0  0.40464638884163495  0.6624636939948357  0.4698324670409288  1.0000
  S   S38       1.0  0.4532415972383294  0.6483457365790725  0.4327915188434755  1.0000
  S   S39       1.0  0.31815234992134467  0.68781851832011  0.5303838641332511  1.0000
  S   S40       1.0  0.4053640438823711  0.6531803564340498  0.5312260381855349  1.0000
  Fe  Fe21      1.0  0.3904628130549927  0.68151904863919  0.8328150792237756  1.0000
  S   S41       1.0  0.40538879600172417  0.7305515968311136  0.8649627774653025  1.0000
  S   S42       1.0  0.4161203911295796  0.6258535345908479  0.848051456407021  1.0000
  Fe  Fe22      1.0  0.3455548490551345  0.7273849333035094  0.7772012937313171  1.0000
  S   S43       1.0  0.3570549978750227  0.7808318006261903  0.8037003835143024  1.0000
  S   S44       1.0  0.30872734798553103  0.725416362622453  0.7275369167406656  1.0000
  Fe  Fe23      1.0  0.4150144005256036  0.7560198804514835  0.8094029240558474  1.0000
  S   S45       1.0  0.46381804761304396  0.789782568716451  0.7988781614728079  1.0000
  Fe  Fe24      1.0  0.34645470567871034  0.7510800003738624  0.8571921327884907  1.0000
  S   S46       1.0  0.3198509734398533  0.7764658854245242  0.9082020969090038  1.0000
  S   S47       1.0  0.40473046304575083  0.7051903282772439  0.7773718208582593  1.0000
  S   S48       1.0  0.3301357425823644  0.6990971938238684  0.8303205513418079  1.0000
  Fe  Fe25      1.0  0.6740864141368523  0.6651266090650726  0.42403985857667076  1.0000
  S   S49       1.0  0.6481898979086074  0.716794991897283  0.39804944642939094  1.0000
  S   S50       1.0  0.666206313451392  0.6083806583008435  0.40269343610774944  1.0000
  Fe  Fe26      1.0  0.7066870758568213  0.7047288572338816  0.48792258750716355  1.0000
  S   S51       1.0  0.6837422305321164  0.7602019292331698  0.4684696956068462  1.0000
  S   S52       1.0  0.7415739365535409  0.6992810476024528  0.5394356225519359  1.0000
  Fe  Fe27      1.0  0.6321644538054509  0.7320429927418777  0.45618343802220407  1.0000
  S   S53       1.0  0.5764948154563294  0.7554026096571922  0.4745654062097774  1.0000
  Fe  Fe28      1.0  0.7018678187345355  0.7409601106612779  0.411938523820792  1.0000
  S   S54       1.0  0.7239687877963711  0.7831627550875961  0.37336292870343324  1.0000
  S   S55       1.0  0.6529990659832166  0.6783870874549897  0.48115401081163467  1.0000
  S   S56       1.0  0.7296769753545428  0.6876310488222241  0.43233738343522155  1.0000
  Fe  Fe29      1.0  0.7293302218629765  0.6655204880855115  0.7980524096003982  1.0000
  S   S57       1.0  0.6692405429499123  0.6613564998080006  0.7863523119535683  1.0000
  S   S58       1.0  0.7690887116743135  0.6185314194792964  0.8149511725654159  1.0000
  Fe  Fe30      1.0  0.7264844231744007  0.7479226647224156  0.7842591266548955  1.0000
  S   S59       1.0  0.6659900612791183  0.7514773785791734  0.7702916346695028  1.0000
  S   S60       1.0  0.7629213411031659  0.7961236918737679  0.7819719313811468  1.0000
  Fe  Fe31      1.0  0.6605598980753413  0.713245164483176  0.8190062057328156  1.0000
  S   S61       1.0  0.6140758389604618  0.7155487525634158  0.8605378118336683  1.0000
  Fe  Fe32      1.0  0.6788707851283774  0.6994961918715822  0.7385933105416579  1.0000
  S   S62       1.0  0.6484994509371901  0.687144333316946  0.6864299559657059  1.0000
  S   S63       1.0  0.7200152386209691  0.7137622350261155  0.8357818584258763  1.0000
  S   S64       1.0  0.740178327628318  0.6993146310878198  0.7473999406264081  1.0000
  Fe  Fe33      1.0  0.932537754950027  0.22519475918053578  0.9558764042093011  1.0000
  S   S65       1.0  0.9789311719559126  0.18582162457066548  0.9758269922827629  1.0000
  S   S66       1.0  0.9174470922268451  0.22977470023809973  0.8953773921727609  1.0000
  Fe  Fe34      1.0  0.9125799706873966  0.2513231998535885  0.03313688528732728  1.0000
  S   S67       1.0  0.9566648984560843  0.21464649421345344  0.06021820689683821  1.0000
  S   S68       1.0  0.873472203281312  0.29243160356007186  0.06124377997695385  1.0000
  Fe  Fe35      1.0  0.9926739353141948  0.23191094764129772  0.013350078521291886  1.0000
  S   S69       1.0  0.048672634070004106  0.2514940192237453  0.026489768950435755  1.0000
  Fe  Fe36      1.0  0.9390348688772165  0.1717947874025512  0.02074485251106606  1.0000
  S   S70       1.0  0.9343086360191848  0.11426359798505455  0.04287236427123853  1.0000
  S   S71       1.0  0.950083829865375  0.27250391938562  0.9894121001562319  1.0000
  S   S72       1.0  0.8913443585941159  0.20704588346485106  0.9977391211229293  1.0000
  Fe  Fe37      1.0  0.2647769773881159  0.33535365594992594  0.8676656034364305  1.0000
  S   S73       1.0  0.21526860358685326  0.35636502313191926  0.9008074783758268  1.0000
  S   S74       1.0  0.2852575431766318  0.3702612115834785  0.8207571063780409  1.0000
  Fe  Fe38      1.0  0.270832213176391  0.26211329870348654  0.9085349369057878  1.0000
  S   S75       1.0  0.22257014498394626  0.2767339153705226  0.9454936436344448  1.0000
  S   S76       1.0  0.30047276953172525  0.20627596601216242  0.9139543631670447  1.0000
  Fe  Fe39      1.0  0.1955229663806256  0.2997226501652559  0.8938777378840195  1.0000
  S   S77       1.0  0.13763323814575043  0.28579700558666604  0.8806636279618173  1.0000
  Fe  Fe40      1.0  0.24685894895132715  0.331570774816723  0.9493025709753441  1.0000
  S   S78       1.0  0.24673880012304011  0.3587845038696763  0.0046640444707284345  1.0000
  S   S79       1.0  0.24201200479418988  0.28068112587906086  0.8561496896500719  1.0000
  S   S80       1.0  0.2981591540656966  0.3151031888695582  0.9170176226350792  1.0000
  Fe  Fe41      1.0  0.2323748194002774  0.9662784208342737  0.9467748299458638  1.0000
  S   S81       1.0  0.1758002030370059  0.9950254984001836  0.9445928598607928  1.0000
  S   S82       1.0  0.25483040222180164  0.9409582460995974  0.8939430480251934  1.0000
  Fe  Fe42      1.0  0.24168721616546016  0.9825843675701283  0.027998384361427542  1.0000
  S   S83       1.0  0.18609371336914118  0.012671604064935726  0.03306702022017949  1.0000
  S   S84       1.0  0.27843405481973355  0.976983703498425  0.07787028053240941  1.0000
  Fe  Fe43      1.0  0.16652986869842923  0.9666821271304578  0.9989138858012149  1.0000
  S   S85       1.0  0.11546139724865595  0.9389775094627949  0.016228729580435752  1.0000
  Fe  Fe44      1.0  0.20034420504299405  0.03850932795405959  0.9784940400755696  1.0000
  S   S86       1.0  0.1812607983418721  0.0974149786333165  0.9662077986091145  1.0000
  S   S87       1.0  0.22098293008892494  0.9340800031735104  0.9984943081692047  1.0000
  S   S88       1.0  0.2580633111792008  0.012358247515406484  0.9761259203620323  1.0000
  Fe  Fe45      1.0  0.26082695634567366  0.9037077550652396  0.33359298217652344  1.0000
  S   S89       1.0  0.23843970430057243  0.9619327551262126  0.34223777854244336  1.0000
  S   S90       1.0  0.29940908768196234  0.8815955839757774  0.37862098516991005  1.0000
  Fe  Fe46      1.0  0.22893911046988077  0.901515637803813  0.25588905261522255  1.0000
  S   S91       1.0  0.2055481805952681  0.9599249905959606  0.25786119795026585  1.0000
  S   S92       1.0  0.21739508175147165  0.8736559210935307  0.20229909116289974  1.0000
  Fe  Fe47      1.0  0.2589926800522836  0.9714330366163749  0.2845710096874169  1.0000
  S   S93       1.0  0.2905796873926864  0.02057676382924689  0.26987082906207344  1.0000
  Fe  Fe48      1.0  0.18717472117690787  0.9446220034166689  0.3149830665743217  1.0000
  S   S94       1.0  0.1302532100975698  0.9645418748025866  0.3335064189604799  1.0000
  S   S95       1.0  0.2846836133733526  0.9144329790594705  0.2772835769078158  1.0000
  S   S96       1.0  0.20708518568868187  0.8849078144655279  0.3117370290562468  1.0000
  Fe  Fe49      1.0  0.9010378885497475  0.845835081926805  0.314395466666003  1.0000
  S   S97       1.0  0.9227485248125756  0.8352647606314327  0.25703297930504526  1.0000
  S   S98       1.0  0.8942933495209309  0.7963812382965855  0.3511951263514022  1.0000
  Fe  Fe50      1.0  0.8981541926199158  0.9284081008900215  0.30392077307826554  1.0000
  S   S99       1.0  0.9200542989997591  0.9257568166304027  0.2456628860042414  1.0000
  S   S100      1.0  0.8836076975014203  0.9807033288227449  0.3345292001044367  1.0000
  Fe  Fe51      1.0  0.8815508039602912  0.8802716515152542  0.2393635874931099  1.0000
  S   S101      1.0  0.8482569664028679  0.8725172383562254  0.18817756357983387  1.0000
  Fe  Fe52      1.0  0.959391098296022  0.8810775526860372  0.2677673739166141  1.0000
  S   S102      1.0  0.01756545040415447  0.8729997936519764  0.24687053581167673  1.0000
  S   S103      1.0  0.8559335568733721  0.886907581165151  0.2956205469977204  1.0000
  S   S104      1.0  0.9416329418109638  0.8878322920842949  0.32711829101858286  1.0000
  Fe  Fe53      1.0  0.14195810191069017  0.2667632913697604  0.2115853484863892  1.0000
  S   S105      1.0  0.16700502780763274  0.21212940701517685  0.1929648252514658  1.0000
  S   S106      1.0  0.0816799328147811  0.2827517361887062  0.20334000978800687  1.0000
  Fe  Fe54      1.0  0.21370400516322105  0.2877579600851814  0.2479221067021268  1.0000
  S   S107      1.0  0.24410002021249377  0.23415757238320178  0.2330721679400437  1.0000
  S   S108      1.0  0.23641841926444762  0.3355494847369112  0.2773606747502688  1.0000
  Fe  Fe55      1.0  0.21620681153562177  0.2433452069271779  0.17769875647949396  1.0000
  S   S109      1.0  0.2466218702477071  0.2306190583741457  0.12417613690849366  1.0000
  Fe  Fe56      1.0  0.1915874906424219  0.20889302781897812  0.24996748248861847  1.0000
  S   S110      1.0  0.18134074298561723  0.1610747374778478  0.28748501329525183  1.0000
  S   S111      1.0  0.18901919326388056  0.2987165190430867  0.19170710259075738  1.0000
  S   S112      1.0  0.1635106625024199  0.26180306974390405  0.26944890123409787  1.0000
  Fe  Fe57      1.0  0.8617679012067815  0.20810399724180031  0.3396016963134119  1.0000
  S   S113      1.0  0.8916701006423156  0.1549385799656145  0.3225162238323031  1.0000
  S   S114      1.0  0.8311135569556346  0.2109263255218503  0.3939289944347547  1.0000
  Fe  Fe58      1.0  0.8763041074625973  0.2456601209191339  0.26642849083692877  1.0000
  S   S115      1.0  0.9070585550986854  0.19593770530970103  0.24270823466760422  1.0000
  S   S116      1.0  0.8638032407451925  0.2992281502403504  0.23629665512307574  1.0000
  Fe  Fe59      1.0  0.8623333349034199  0.164420298543513  0.26826769084416857  1.0000
  S   S117      1.0  0.8409864288056368  0.11863537595963096  0.23468341276161936  1.0000
  Fe  Fe60      1.0  0.9335732660196392  0.1908229399241519  0.29857873427119674  1.0000
  S   S118      1.0  0.9936435384238799  0.17248807563249133  0.30022973133054526  1.0000
  S   S119      1.0  0.828758575368263  0.21460452765609112  0.28710576470699684  1.0000
  S   S120      1.0  0.9067527752133961  0.24357171137889483  0.3206444108353752  1.0000
  Fe  Fe61      1.0  0.9565900847899346  0.893840630972388  0.9188665844574953  1.0000
  S   S121      1.0  0.9516473474673711  0.9400236881107152  0.9593500531749509  1.0000
  S   S122      1.0  0.010747791198004064  0.8917470522740805  0.8885542981503773  1.0000
  Fe  Fe62      1.0  0.8821581072361271  0.8669920674527004  0.9403118620717218  1.0000
  S   S123      1.0  0.8717446941323174  0.9107756194136172  0.9834428614535138  1.0000
  S   S124      1.0  0.8385139310061708  0.8259550573789776  0.935420835626186  1.0000
  Fe  Fe63      1.0  0.8934025912170008  0.9483330382137051  0.9401438367426121  1.0000
  S   S125      1.0  0.8686921091305233  0.005364795219909402  0.9281694484126191  1.0000
  Fe  Fe64      1.0  0.9311929084890572  0.8980396403814638  0.9987081751524072  1.0000
  S   S126      1.0  0.9581256813972858  0.8955696327445539  0.054844842043803466  1.0000
  S   S127      1.0  0.899705702766848  0.9057547255206737  0.8955429136022464  1.0000
  S   S128      1.0  0.9398657029815484  0.8508294996557099  0.9595110162293076  1.0000
  C   C1        1.0  0.016587678325115096  0.20171833925103652  0.2703798561479351  1.0000
  C   C2        1.0  0.05255367806567479  0.19166681555619958  0.2586664820098737  1.0000
  C   C3        1.0  0.07238203221681595  0.21643627637553917  0.23776988910876645  1.0000
  C   C4        1.0  0.05607993303291878  0.25104732525157736  0.22784897519003705  1.0000
  C   C5        1.0  0.01953313058167394  0.2605441324372088  0.23839273942866432  1.0000
  C   C6        1.0  0.9998136070211543  0.23591292294795635  0.25971173238628303  1.0000
  H   H1        1.0  0.06529455080538926  0.16489610644620445  0.26606016279033096  1.0000
  H   H2        1.0  0.10040870971425823  0.2087016009311848  0.2297466209585238  1.0000
  H   H3        1.0  0.006820822720809528  0.28737790239742805  0.2313407434508276  1.0000
  H   H4        1.0  0.9720034518867569  0.24391489873083794  0.268732949614835  1.0000
  C   C7        1.0  0.8642982608781545  0.0165992228622307  0.30645924034843613  1.0000
  C   C8        1.0  0.8529067305488517  0.05014178422054494  0.3228534902703271  1.0000
  C   C9        1.0  0.8430189173866035  0.08097921369686185  0.3006281236188127  1.0000
  C   C10       1.0  0.8448269397613791  0.07846582744412689  0.2619768005470393  1.0000
  C   C11       1.0  0.8537350470363966  0.044351796215847956  0.2454849188885607  1.0000
  C   C12       1.0  0.8633719529409067  0.013362845153808589  0.26778221494235777  1.0000
  H   H5        1.0  0.8527540148616471  0.052599888483523705  0.3527846527618244  1.0000
  H   H6        1.0  0.8344061117140465  0.10686364072304651  0.31348556197870564  1.0000
  H   H7        1.0  0.8546833902271554  0.04215631577755619  0.21556147309744075  1.0000
  H   H8        1.0  0.8709976738486042  0.9873445658308125  0.25493609335602735  1.0000
  C   C13       1.0  0.8784826429658377  0.876681412949004  0.1504759987647894  1.0000
  C   C14       1.0  0.8652642528377639  0.8776980105428667  0.11400612539715446  1.0000
  C   C15       1.0  0.889679689980072  0.8827519242592388  0.08425078109022496  1.0000
  C   C16       1.0  0.9271263059914353  0.8872504108753958  0.09105428484740813  1.0000
  C   C17       1.0  0.9402597772364059  0.8854402118328959  0.12746421860425902  1.0000
  C   C18       1.0  0.9161344719473218  0.8797578813490375  0.15701556149539211  1.0000
  H   H9        1.0  0.8362008013449274  0.8749906780513108  0.10877363250894137  1.0000
  H   H10       1.0  0.8794116497302888  0.8833436420442654  0.056228434035086705  1.0000
  H   H11       1.0  0.969010705953643  0.8886689121905393  0.1330010436453938  1.0000
  H   H12       1.0  0.9268408671212319  0.8778576772575795  0.18485944762743192  1.0000
  C   C19       1.0  0.2614838635760579  0.06027944307701283  0.27618568844670005  1.0000
  C   C20       1.0  0.27179532018460223  0.09446970675373177  0.26285566206894007  1.0000
  C   C21       1.0  0.24728738716688797  0.12581869448659314  0.2660980237532116  1.0000
  C   C22       1.0  0.21289976297719176  0.12292474294088115  0.28333097088117665  1.0000
  C   C23       1.0  0.2030366142373066  0.08887545511494299  0.29723486492761864  1.0000
  C   C24       1.0  0.22713893756098377  0.05754845590826153  0.29338378213376654  1.0000
  H   H13       1.0  0.2983821820443662  0.09663081309036814  0.24950203322190784  1.0000
  H   H14       1.0  0.2550566675813456  0.1521682364863137  0.2554948650655326  1.0000
  H   H15       1.0  0.17641805484972073  0.08655657213568338  0.3104979197044045  1.0000
  H   H16       1.0  0.21881214438148264  0.03127484857605389  0.30350659418316506  1.0000
  C   C25       1.0  0.04791087393109539  0.901128846284334  0.2688668524689661  1.0000
  C   C26       1.0  0.03508600593435807  0.926891657284322  0.29529146594768735  1.0000
  C   C27       1.0  0.06037517473019343  0.9469040067065976  0.31493149049833863  1.0000
  C   C28       1.0  0.09832086999569242  0.9413802935607519  0.307713993341057  1.0000
  C   C29       1.0  0.11082103505105516  0.9165460886690127  0.28033923640022446  1.0000
  C   C30       1.0  0.08568053446763346  0.8963088402141863  0.2610824624375681  1.0000
  H   H17       1.0  0.0058485151894358545  0.9306728306431011  0.3012228682177613  1.0000
  H   H18       1.0  0.05074119350495643  0.9660771580779292  0.33616338441565474  1.0000
  H   H19       1.0  0.13997369524158143  0.9124673494933807  0.2742588287171614  1.0000
  H   H20       1.0  0.09573600329861476  0.8763687277562872  0.24072190774497532  1.0000
  C   C31       1.0  0.26339165574708784  0.9448654263546089  0.11036714815317626  1.0000
  C   C32       1.0  0.2820541660780351  0.9401579126792171  0.14414101687617714  1.0000
  C   C33       1.0  0.2680907555587504  0.9179698986786492  0.17219492233928899  1.0000
  C   C34       1.0  0.23602455926863264  0.899468158430283  0.16623159754153405  1.0000
  C   C35       1.0  0.2179198851160373  0.9031829126588375  0.13200792095331695  1.0000
  C   C36       1.0  0.23130144825281124  0.9262959877360506  0.10425557961704254  1.0000
  H   H21       1.0  0.30699202758928185  0.954237973997801  0.14892755019033682  1.0000
  H   H22       1.0  0.2824830130605112  0.9148248062581613  0.19828600597912724  1.0000
  H   H23       1.0  0.19308781951516624  0.8889566792517554  0.12734474623406272  1.0000
  H   H24       1.0  0.21642552888623104  0.9301755065636532  0.07847841483581464  1.0000
  C   C37       1.0  0.04262579160070157  0.9017353066021725  0.9227534637264049  1.0000
  C   C38       1.0  0.03630024983667757  0.8911942922824185  0.959521110525678  1.0000
  C   C39       1.0  0.05941959717250425  0.9019495613174888  0.9878268965380625  1.0000
  C   C40       1.0  0.08911672295179546  0.9232957493050717  0.9796005424381347  1.0000
  C   C41       1.0  0.09619755162352916  0.933022925576907  0.9426632036335882  1.0000
  C   C42       1.0  0.07290934528404058  0.9222984712156477  0.9141850107457069  1.0000
  H   H25       1.0  0.013122047119144442  0.8751557146596245  0.9663945273980983  1.0000
  H   H26       1.0  0.05351615838350166  0.8943514423610706  0.01615809714615768  1.0000
  H   H27       1.0  0.11895480554274514  0.9494995980164588  0.9360007218718956  1.0000
  H   H28       1.0  0.07766945105515699  0.9307718445232864  0.8857610948309244  1.0000
  C   C43       1.0  0.24820866888248605  0.32390489896351926  0.038481679975392646  1.0000
  C   C44       1.0  0.22730892392460347  0.32871093453688804  0.07091986195075428  1.0000
  C   C45       1.0  0.22662510559075416  0.3000848868515184  0.09714439340871306  1.0000
  C   C46       1.0  0.2478935499289664  0.2670929516067766  0.09184310483575718  1.0000
  C   C47       1.0  0.2692724555740297  0.2625215399855426  0.059571087776997274  1.0000
  C   C48       1.0  0.26901810549836896  0.2906926472881745  0.03264713284172882  1.0000
  H   H29       1.0  0.21055439386292904  0.35407856730279796  0.07505070988719997  1.0000
  H   H30       1.0  0.20876153409297635  0.3033641674871613  0.1207736834285235  1.0000
  H   H31       1.0  0.285715781714283  0.2370262563045147  0.055085454622861414  1.0000
  H   H32       1.0  0.28515810568602773  0.28682777198256204  0.007472212865083705  1.0000
  C   C49       1.0  0.2679960988115024  0.17409462629917402  0.9253130753617227  1.0000
  C   C50       1.0  0.2305174731521118  0.182152523780983  0.9177514555780314  1.0000
  C   C51       1.0  0.20427300773278337  0.15755388368516443  0.9288472831461101  1.0000
  C   C52       1.0  0.21527271227083297  0.12491166376111806  0.9478649509866744  1.0000
  C   C53       1.0  0.2528685514872683  0.11636738002527403  0.954593186348806  1.0000
  C   C54       1.0  0.2792399748743864  0.14085846899442306  0.9431249151212902  1.0000
  H   H33       1.0  0.2216387075212886  0.2073319816682334  0.9032433449137826  1.0000
  H   H34       1.0  0.17533240941543207  0.1640587814180967  0.9229070991686903  1.0000
  H   H35       1.0  0.261602937640014  0.09153750376877867  0.9696683372691404  1.0000
  H   H36       1.0  0.3082071288328394  0.13453667201431113  0.949065891479744  1.0000
  C   C55       1.0  0.8721826899596004  0.29366283854258124  0.10992048665964171  1.0000
  C   C56       1.0  0.8930440424523859  0.26794028762513616  0.13165013116378999  1.0000
  C   C57       1.0  0.8910245271528153  0.2696257698716939  0.17059217347334144  1.0000
  C   C58       1.0  0.8680481647998033  0.29694046702491983  0.18776543235229592  1.0000
  C   C59       1.0  0.8479651483492011  0.32308358352147376  0.1659222647729907  1.0000
  C   C60       1.0  0.8498663473032966  0.3213220250269588  0.12713799994382957  1.0000
  H   H37       1.0  0.9105259727024662  0.24673904819290368  0.1185164469792519  1.0000
  H   H38       1.0  0.9076027911190853  0.25020750212090287  0.18727191602537668  1.0000
  H   H39       1.0  0.8304397498821622  0.344458803512108  0.179013051125885  1.0000
  H   H40       1.0  0.8338714254352044  0.341432801484109  0.11044570201621995  1.0000
  C   C61       1.0  0.07282374848052675  0.2617439314088915  0.9858332393418102  1.0000
  C   C62       1.0  0.10133687370960875  0.28593476600862144  0.9870156708442381  1.0000
  C   C63       1.0  0.12174760926642751  0.2930625892291325  0.9548440893132006  1.0000
  C   C64       1.0  0.11356490065753487  0.2760478483283251  0.921473376722495  1.0000
  C   C65       1.0  0.08530148544770604  0.2516334681596837  0.9204258009024986  1.0000
  C   C66       1.0  0.06483528100015556  0.24459623341071532  0.952525698365127  1.0000
  H   H41       1.0  0.10749279313534443  0.2994555347257354  0.012674320923609095  1.0000
  H   H42       1.0  0.1433959172920995  0.31221354196100876  0.9557088349259344  1.0000
  H   H43       1.0  0.07958329146173174  0.23773981531258323  0.894858213022112  1.0000
  H   H44       1.0  0.04336858212057715  0.2253544646371505  0.9515888546642725  1.0000
  C   C67       1.0  0.914628250125676  0.08469472692630506  0.011282783572859056  1.0000
  C   C68       1.0  0.9133222430697606  0.047234009252639986  0.020272294606950014  1.0000
  C   C69       1.0  0.8988249161785546  0.022916217924930704  0.9949502222281231  1.0000
  C   C70       1.0  0.8851620738404644  0.03605537834531414  0.9606828842233998  1.0000
  C   C71       1.0  0.8860491914447475  0.07361957899940408  0.9518725229279593  1.0000
  C   C72       1.0  0.9010904836897156  0.09787490573729182  0.9770013940386691  1.0000
  H   H45       1.0  0.9237372149679496  0.03687880141866362  0.04675515869734492  1.0000
  H   H46       1.0  0.8980126163825219  0.9939998125143891  0.0020966147334209317  1.0000
  H   H47       1.0  0.8757466238750488  0.08386281974496801  0.9253071284055921  1.0000
  H   H48       1.0  0.9022545743822242  0.12671006606719057  0.9697149100915035  1.0000
  C   C73       1.0  0.7822340007273529  0.8075774783113479  0.8246866021748213  1.0000
  C   C74       1.0  0.8150017058430694  0.8261206417056791  0.8253910240504045  1.0000
  C   C75       1.0  0.8322453173772036  0.8327792042462989  0.859364722355499  1.0000
  C   C76       1.0  0.8166093714997437  0.8209452422591197  0.8926327893029196  1.0000
  C   C77       1.0  0.783398419173707  0.8033418241811727  0.891905405878043  1.0000
  C   C78       1.0  0.7661329958415652  0.7969116267125973  0.8580633637165145  1.0000
  H   H49       1.0  0.8276166556792472  0.8343358712527755  0.7995687931572981  1.0000
  H   H50       1.0  0.8581984608477554  0.8458582954070902  0.8596949025345922  1.0000
  H   H51       1.0  0.7710447042384709  0.7944466012973034  0.9176276632211932  1.0000
  H   H52       1.0  0.740233040085495  0.7838273653365073  0.8578816681462988  1.0000
  C   C79       1.0  0.7718329092348216  0.787121442889425  0.37557650291527694  1.0000
  C   C80       1.0  0.796297510299176  0.7558685366695123  0.3788493946629751  1.0000
  C   C81       1.0  0.8344007505693469  0.7589669345520791  0.37322956389546336  1.0000
  C   C82       1.0  0.8479419761196819  0.7933179861816502  0.36470695802465014  1.0000
  C   C83       1.0  0.8236620601095908  0.8247249881716271  0.36390243459509636  1.0000
  C   C84       1.0  0.7856612549502225  0.8215849124364286  0.36878209424440683  1.0000
  H   H53       1.0  0.7857067395374673  0.7290973989353228  0.38373948942949215  1.0000
  H   H54       1.0  0.8531208660663222  0.7345722088761018  0.37408009951599286  1.0000
  H   H55       1.0  0.8340922491577976  0.8515049422631963  0.35936536188230467  1.0000
  H   H56       1.0  0.7668509903563827  0.8458619104830387  0.36666270031588033  1.0000
  C   C85       1.0  0.7159048403822281  0.6955525655899208  0.5803148329791864  1.0000
  C   C86       1.0  0.6820890895963162  0.6791442589037089  0.5801131564073945  1.0000
  C   C87       1.0  0.6617301901563379  0.676337285535638  0.6129982334945809  1.0000
  C   C88       1.0  0.6750467420299432  0.6901165697597206  0.6461219740657571  1.0000
  C   C89       1.0  0.7090627069389912  0.7062023998942877  0.64648892652688  1.0000
  C   C90       1.0  0.7296138546301986  0.7087012327779769  0.613587905402337  1.0000
  H   H57       1.0  0.671980412306877  0.6678160833387757  0.5548882140666682  1.0000
  H   H58       1.0  0.6356510323981643  0.6633960106596701  0.6128289466318497  1.0000
  H   H59       1.0  0.7192454258246563  0.7173242429754093  0.6718934114554717  1.0000
  H   H60       1.0  0.7558295571046633  0.7214070849016458  0.6138075270148199  1.0000
  C   C91       1.0  0.27573930610610936  0.8963222733721151  0.8981108140809031  1.0000
  C   C92       1.0  0.2834008382695185  0.8804720420513155  0.9329640571660438  1.0000
  C   C93       1.0  0.29687052348268156  0.8435541672923568  0.9358021422341035  1.0000
  C   C94       1.0  0.3036599577982374  0.8226941001781417  0.9037593055872114  1.0000
  C   C95       1.0  0.2970283147366622  0.8388438433831034  0.8688401912295969  1.0000
  C   C96       1.0  0.28308811375937415  0.8756419299725998  0.8660335750647997  1.0000
  H   H61       1.0  0.27876047645455215  0.8965338363360724  0.9577728134505349  1.0000
  H   H62       1.0  0.3021489340487254  0.8311751050084868  0.9628847143896464  1.0000
  H   H63       1.0  0.3014381469703075  0.8227339316962525  0.8440210319227255  1.0000
  H   H64       1.0  0.2771515005821887  0.887828811731957  0.8389849081875255  1.0000
  C   C97       1.0  0.505534497671217  0.7694020470142516  0.8163781965975395  1.0000
  C   C98       1.0  0.5391638884144843  0.7796505817968663  0.8015857667048173  1.0000
  C   C99       1.0  0.5726795807802797  0.7634036907556757  0.8151283276530398  1.0000
  C   C100      1.0  0.5727059045283736  0.7374594539934466  0.8440513324330291  1.0000
  C   C101      1.0  0.5391192376847844  0.7280698793721179  0.8596094231802072  1.0000
  C   C102      1.0  0.5056176879617723  0.7435636386907343  0.845417874638607  1.0000
  H   H65       1.0  0.539316747916793  0.7998957929600927  0.7793641185646625  1.0000
  H   H66       1.0  0.5984132274997787  0.7715873578827264  0.8036519756819378  1.0000
  H   H67       1.0  0.5389781726186261  0.7083686546792636  0.8823235624486845  1.0000
  H   H68       1.0  0.4800307447445943  0.7357510129450772  0.8573762510876662  1.0000
  C   C103      1.0  0.2854777234698697  0.7626972312888837  0.41532848083326296  1.0000
  C   C104      1.0  0.3056387934416593  0.785912487578341  0.4370573232349687  1.0000
  C   C105      1.0  0.30899168385699544  0.8226890974120441  0.4260578137175299  1.0000
  C   C106      1.0  0.2922098851187359  0.8363933172747343  0.39332441805271107  1.0000
  C   C107      1.0  0.27138256487456375  0.813438004587541  0.3719924111437093  1.0000
  C   C108      1.0  0.26796504623693507  0.7766483306856589  0.383046152068962  1.0000
  H   H69       1.0  0.3183965429337105  0.7756332638753629  0.4625043113774604  1.0000
  H   H70       1.0  0.32465890398529296  0.8405146079976624  0.4429563420843613  1.0000
  H   H71       1.0  0.25841544327713456  0.8237919016799582  0.3466579825246828  1.0000
  H   H72       1.0  0.25229222819581953  0.7587762068692762  0.3661945758854843  1.0000
  C   C109      1.0  0.487536014073829  0.6781767399179538  0.4439813560750678  1.0000
  C   C110      1.0  0.5207539390622136  0.6770262270525751  0.424027272981402  1.0000
  C   C111      1.0  0.5483016019526913  0.700674693794087  0.43340877593007726  1.0000
  C   C112      1.0  0.5422903133349549  0.7259804289986774  0.462192293662875  1.0000
  C   C113      1.0  0.5088780453560711  0.7273862467223152  0.48176063020604964  1.0000
  C   C114      1.0  0.48175358969721416  0.7031853762980168  0.47299562925103156  1.0000
  H   H73       1.0  0.5253140924351712  0.6578699213864765  0.4014337025756801  1.0000
  H   H74       1.0  0.5740192959761664  0.6995489553930663  0.41810968780570074  1.0000
  H   H75       1.0  0.5041857068777776  0.7467250321662935  0.5042165271487818  1.0000
  H   H76       1.0  0.4565503847119363  0.7038531797084574  0.4890840906446257  1.0000
  C   C115      1.0  0.3690591275440576  0.7459129529547102  0.6188422174016818  1.0000
  C   C116      1.0  0.33234028560205475  0.736261415148564  0.6186895700977464  1.0000
  C   C117      1.0  0.3133526417917391  0.7316991880981489  0.6522200752973646  1.0000
  C   C118      1.0  0.3310058516503613  0.736854329878275  0.6860639645009963  1.0000
  C   C119      1.0  0.3672868060809623  0.7479113340995098  0.686288394469679  1.0000
  C   C120      1.0  0.38626431115477944  0.7525261592825357  0.6526662971673977  1.0000
  H   H77       1.0  0.31843036671115715  0.7324857532705576  0.5927618257060336  1.0000
  H   H78       1.0  0.2851741896597723  0.7234961390133415  0.6519351890509847  1.0000
  H   H79       1.0  0.3809335237077177  0.7524085937079269  0.7123263207719327  1.0000
  H   H80       1.0  0.4145701460514539  0.7603476805681196  0.6529239768577878  1.0000
  C   C121      1.0  0.40499116197764495  0.3516120797875111  0.7820234175931808  1.0000
  C   C122      1.0  0.37912173194775844  0.3723297801080598  0.7604589293602123  1.0000
  C   C123      1.0  0.3423017509367137  0.3772918595854551  0.7723639881170311  1.0000
  C   C124      1.0  0.3312590857039823  0.3620602724927014  0.8061570442692059  1.0000
  C   C125      1.0  0.35717647526649277  0.3417282750017623  0.828056724161699  1.0000
  C   C126      1.0  0.3939810512279598  0.3362232274131513  0.8158063626660604  1.0000
  H   H81       1.0  0.38735146852316404  0.3841046586950719  0.7342984863334924  1.0000
  H   H82       1.0  0.3223299727522287  0.392997161974548  0.7552947752209725  1.0000
  H   H83       1.0  0.34899521636589614  0.33059116813220135  0.8545260688254279  1.0000
  H   H84       1.0  0.4141711103884967  0.3207549142496317  0.8328195851340352  1.0000
  C   C127      1.0  0.3959264763602918  0.5444597332647265  0.7564821802446735  1.0000
  C   C128      1.0  0.42975558269691505  0.5431513569256039  0.7750797339817533  1.0000
  C   C129      1.0  0.43540978552650533  0.5676058274043903  0.8038743513372723  1.0000
  C   C130      1.0  0.40797404722507985  0.5948132264106183  0.8128284019386584  1.0000
  C   C131      1.0  0.3744507242516006  0.5970350104419478  0.7934983929810544  1.0000
  C   C132      1.0  0.36809318766278054  0.5712243359390483  0.7658803355252948  1.0000
  H   H85       1.0  0.4518406040230636  0.5234898606406481  0.7672666590089623  1.0000
  H   H86       1.0  0.4613700564973298  0.5658468597113496  0.8186894515881888  1.0000
  H   H87       1.0  0.35313651135929724  0.6180659827230806  0.8005170725789005  1.0000
  H   H88       1.0  0.3417008837393955  0.5720796196568364  0.7518842585523603  1.0000
  C   C133      1.0  0.8985283459443233  0.2727830250875248  0.8795643267505839  1.0000
  C   C134      1.0  0.8878082653989557  0.27693797719308305  0.8423507676017059  1.0000
  C   C135      1.0  0.8772989620031582  0.3119888135515987  0.8277945216235466  1.0000
  C   C136      1.0  0.8776580885679793  0.34297984703380907  0.8504141958593227  1.0000
  C   C137      1.0  0.8869797922901846  0.3386803718916985  0.8879497054581101  1.0000
  C   C138      1.0  0.8968855493692517  0.3035719499993288  0.9026277960398414  1.0000
  H   H89       1.0  0.8889608332621924  0.25319146855515523  0.8243765272013982  1.0000
  H   H90       1.0  0.8705571371705447  0.3151419041057953  0.7986669999182084  1.0000
  H   H91       1.0  0.886883239940174  0.36259417968169916  0.9056306854690732  1.0000
  H   H92       1.0  0.9042597358580668  0.3005882099382854  0.9315095448208532  1.0000
  C   C139      1.0  0.6586906379796087  0.39872380605287966  0.7889870258241816  1.0000
  C   C140      1.0  0.6219498936499861  0.3897700267528851  0.7933699819486466  1.0000
  C   C141      1.0  0.5930897826878853  0.4170322188913176  0.7892625460891655  1.0000
  C   C142      1.0  0.6009339671262235  0.4534923111818321  0.7815727546564033  1.0000
  C   C143      1.0  0.63772287800635  0.46260339609638923  0.7775929413773566  1.0000
  C   C144      1.0  0.666601798693387  0.4351179532085573  0.7808200450509786  1.0000
  H   H93       1.0  0.6157374655402118  0.36163900722293557  0.7995799966946302  1.0000
  H   H94       1.0  0.5647266093957917  0.40987879659720183  0.7924859202968506  1.0000
  H   H95       1.0  0.6438791721693069  0.49073726545769647  0.7713186350189575  1.0000
  H   H96       1.0  0.6949335518200735  0.44221643108448316  0.7773302862006832  1.0000
  C   C145      1.0  0.7753998700444829  0.5263656830148761  0.7295944552687644  1.0000
  C   C146      1.0  0.7977999316157354  0.5238220624929025  0.7611590353334234  1.0000
  C   C147      1.0  0.7956205392531377  0.5521519739368591  0.7874056274027367  1.0000
  C   C148      1.0  0.7709971382102043  0.5830321138290644  0.7821812744791923  1.0000
  C   C149      1.0  0.7482835140386356  0.5853845857684484  0.7507942761697429  1.0000
  C   C150      1.0  0.7503240984578794  0.556906545418352  0.7246878452865747  1.0000
  H   H97       1.0  0.8171336359015064  0.5002068452782646  0.7651904921716  1.0000
  H   H98       1.0  0.8130499685547541  0.5501185132569406  0.8117496725652587  1.0000
  H   H99       1.0  0.7288318083447572  0.6089075881092442  0.7468813451469462  1.0000
  H   H100      1.0  0.731753879745965  0.55806871955046  0.701290727218737  1.0000
  C   C151      1.0  0.35715732459602706  0.33043403414322625  0.3141563573910972  1.0000
  C   C152      1.0  0.33281139403494786  0.3601427401966009  0.32403229336826533  1.0000
  C   C153      1.0  0.29563815253587383  0.36098496321189855  0.31319706204936126  1.0000
  C   C154      1.0  0.2824015742305275  0.3317963069387259  0.2931453666835966  1.0000
  C   C155      1.0  0.30655689590148777  0.30160148658781927  0.28404445888912316  1.0000
  C   C156      1.0  0.34401714142395307  0.3012089902099345  0.2940368030603617  1.0000
  H   H101      1.0  0.342707436829493  0.3827786394197928  0.3396077481101608  1.0000
  H   H102      1.0  0.27711271802735843  0.3843957315345306  0.3203695981345191  1.0000
  H   H103      1.0  0.29660814727728585  0.2786493776121811  0.2691901892662948  1.0000
  H   H104      1.0  0.3627387968461797  0.27801544577984677  0.2867154770131103  1.0000
  C   C157      1.0  0.3256089427066093  0.49648095449595003  0.4642557483794161  1.0000
  C   C158      1.0  0.29368438363385113  0.5100303466479557  0.4828414112522843  1.0000
  C   C159      1.0  0.2961510582745123  0.5357673912633121  0.5113063508169013  1.0000
  C   C160      1.0  0.33042020101287306  0.5487162342909028  0.5204028189571025  1.0000
  C   C161      1.0  0.3623062954804682  0.5356162345976495  0.501533186527364  1.0000
  C   C162      1.0  0.3599426050408307  0.5090665391166446  0.47389178028101664  1.0000
  H   H105      1.0  0.2670453975921946  0.5005137177617309  0.47531139216909885  1.0000
  H   H106      1.0  0.2713894078995764  0.5463663632321706  0.5255179225098884  1.0000
  H   H107      1.0  0.38875225932128993  0.5459731541898195  0.5083450377741018  1.0000
  H   H108      1.0  0.3845137269225476  0.4991023179314438  0.4594235415265766  1.0000
  C   C163      1.0  0.46195735284052153  0.3609808597474358  0.5383171439393254  1.0000
  C   C164      1.0  0.4826413700008908  0.38863128903971317  0.523172565001853  1.0000
  C   C165      1.0  0.5023142694223754  0.41083698260205237  0.5464313139467939  1.0000
  C   C166      1.0  0.501053028798009  0.4055173290792877  0.5848602602698413  1.0000
  C   C167      1.0  0.48155336202033133  0.3769607288363937  0.6000160002369117  1.0000
  C   C168      1.0  0.46232689394950816  0.35433956275516504  0.5766223050774499  1.0000
  H   H109      1.0  0.4832354716900945  0.3931706685541355  0.49351651505262656  1.0000
  H   H110      1.0  0.5175773261315546  0.4328326677767322  0.5347048087149084  1.0000
  H   H111      1.0  0.48114721476389866  0.3723960657711457  0.6297382182680578  1.0000
  H   H112      1.0  0.4467480651415061  0.33255190215924013  0.5883030372438017  1.0000
  C   C169      1.0  0.8267916390893226  0.3176033047989045  0.4595050450358767  1.0000
  C   C170      1.0  0.852776901019092  0.3123367841525006  0.4308470485196298  1.0000
  C   C171      1.0  0.8554231663015355  0.2790341833318744  0.4112561842441141  1.0000
  C   C172      1.0  0.8323582936437319  0.25092040972391416  0.420648209302088  1.0000
  C   C173      1.0  0.807843813685017  0.2555794542270101  0.45061351321381704  1.0000
  C   C174      1.0  0.8048882658083581  0.2889329270174361  0.4698554360853816  1.0000
  H   H113      1.0  0.8698941360640511  0.33444881805877913  0.4229083385559024  1.0000
  H   H114      1.0  0.8747357408699222  0.2754510785836231  0.38849653726481187  1.0000
  H   H115      1.0  0.7903030972952909  0.23370349785832004  0.45828079766846214  1.0000
  H   H116      1.0  0.7855220026876126  0.2924580939090821  0.49263620165809185  1.0000
  C   C175      1.0  0.6122775151002671  0.397885894915542  0.397579429182646  1.0000
  C   C176      1.0  0.5810806367777522  0.3861883544740424  0.37944809318625405  1.0000
  C   C177      1.0  0.5473235961901951  0.4072699039504229  0.3814736534866337  1.0000
  C   C178      1.0  0.5449110491634214  0.4404199889331262  0.4010057199561401  1.0000
  C   C179      1.0  0.576512821572314  0.45281085214509287  0.4178171328320317  1.0000
  C   C180      1.0  0.6100620857576206  0.43140365039908457  0.4164331016898387  1.0000
  H   H117      1.0  0.5827238662354544  0.36038541712942357  0.3646360356581166  1.0000
  H   H118      1.0  0.5232483822418573  0.39800197677172366  0.36761096278534455  1.0000
  H   H119      1.0  0.574910416110145  0.4784255239508038  0.4327268295276787  1.0000
  H   H120      1.0  0.6341934238345416  0.4407195061715531  0.43014017820030226  1.0000
  C   C181      1.0  0.6944419765083221  0.5243690187504446  0.4942853137780473  1.0000
  C   C182      1.0  0.7004947934791206  0.5614844020876998  0.4995196181834123  1.0000
  C   C183      1.0  0.6942964989429529  0.5868965097699219  0.47043789198497066  1.0000
  C   C184      1.0  0.6804355292086379  0.5755496749118456  0.43651904975511346  1.0000
  C   C185      1.0  0.6749302564946853  0.5382366181336491  0.4310253831470434  1.0000
  C   C186      1.0  0.6822240502604695  0.5125782365920835  0.4598435508097607  1.0000
  H   H121      1.0  0.7099744771945166  0.5705793120262627  0.5260162547584434  1.0000
  H   H122      1.0  0.6999922583212697  0.6153212207083313  0.47444009523747516  1.0000
  H   H123      1.0  0.6644494369193429  0.5292785040288539  0.40473617817367485  1.0000
  H   H124      1.0  0.6772855881003028  0.48394019898396884  0.45572389299194316  1.0000
  C   C187      1.0  0.7082891717727927  0.3131863248109684  0.605390560027262  1.0000
  C   C188      1.0  0.7417615306939149  0.30626772275563485  0.5864606224541841  1.0000
  C   C189      1.0  0.7751021955513389  0.30279456981708985  0.6060936369901818  1.0000
  C   C190      1.0  0.77518426435878  0.30814717035094347  0.6444719882127434  1.0000
  C   C191      1.0  0.7415484978388949  0.312653336393538  0.6636897468262255  1.0000
  C   C192      1.0  0.7080184699436324  0.3145474011091391  0.644180294546573  1.0000
  H   H125      1.0  0.7420973618153679  0.30432249833030256  0.5565259676467886  1.0000
  H   H126      1.0  0.8008531909862827  0.2976307109183121  0.5912606951966436  1.0000
  H   H127      1.0  0.7414133804559854  0.3153264510542033  0.6935693313807125  1.0000
  H   H128      1.0  0.6821845481193589  0.3190119269436179  0.659057568132163  1.0000
  N   N1        1.0  0.22251015082706002  0.04310999889251721  0.16419320241883528  1.0000
  C   C193      1.0  0.20183811520419886  0.01287432466569749  0.14911075519158934  1.0000
  C   C194      1.0  0.2601497826309363  0.02878399067830406  0.1747397208804753  1.0000
  C   C195      1.0  0.20300977498026984  0.058443740211591155  0.19724766164202912  1.0000
  C   C196      1.0  0.22514644710229684  0.07231878093569266  0.13561554471428172  1.0000
  H   H129      1.0  0.17257858981814617  0.02200339506672755  0.14320780724385185  1.0000
  H   H130      1.0  0.20198019559894564  0.9889297635645994  0.16871764266617761  1.0000
  H   H131      1.0  0.21420571830555662  0.0027013762060990043  0.12256465916715586  1.0000
  H   H132      1.0  0.27600609392920483  0.05040281783963474  0.18787820975648928  1.0000
  H   H133      1.0  0.2594139038137099  0.005516481280079644  0.19504781454637143  1.0000
  H   H134      1.0  0.2762070158039847  0.0184817886752644  0.15012341873875323  1.0000
  H   H135      1.0  0.21726764215709998  0.08200074282665071  0.20869333377957133  1.0000
  H   H136      1.0  0.20172565338738338  0.03734737611567085  0.21977219377357082  1.0000
  H   H137      1.0  0.1741973845580798  0.06873774545799294  0.19069610586056296  1.0000
  H   H138      1.0  0.2406924331813789  0.09553485998467881  0.14610579277334668  1.0000
  H   H139      1.0  0.19730169857714594  0.0837112032697358  0.1268173716017884  1.0000
  H   H140      1.0  0.23992944172294925  0.061464692238010654  0.1103580469066614  1.0000
  N   N2        1.0  0.7643156286155124  0.5874744632235193  0.6078264678233786  1.0000
  C   C197      1.0  0.7520952221680337  0.6156946656069335  0.6352707066733032  1.0000
  C   C198      1.0  0.8013981834665738  0.5713776506475041  0.6180857284568031  1.0000
  C   C199      1.0  0.7658160179905948  0.6048696851997942  0.5705893646471738  1.0000
  C   C200      1.0  0.7379687214698393  0.558035717714169  0.6074186630452358  1.0000
  H   H141      1.0  0.7231186007558617  0.6262871651900475  0.6301601781233581  1.0000
  H   H142      1.0  0.7696976231970775  0.6396855894466991  0.6343021670724182  1.0000
  H   H143      1.0  0.7533096167459078  0.604608187490131  0.6640757535898992  1.0000
  H   H144      1.0  0.8218661763069689  0.5929035235500798  0.6191369077446232  1.0000
  H   H145      1.0  0.8009876939873704  0.5577138375681703  0.6459755904964546  1.0000
  H   H146      1.0  0.8116060775584332  0.5501878199135626  0.5977904236017657  1.0000
  H   H147      1.0  0.7747410589350825  0.5845409675664168  0.5489213873586255  1.0000
  H   H148      1.0  0.7852884520665706  0.6273844104526342  0.5697878762514791  1.0000
  H   H149      1.0  0.7383077595911232  0.6176176386321223  0.5622358097568896  1.0000
  H   H150      1.0  0.7095058593622694  0.5692081349295985  0.6003843913068008  1.0000
  H   H151      1.0  0.7366829367877709  0.5438332508402585  0.6349080715010812  1.0000
  H   H152      1.0  0.745976541614533  0.5366191630599879  0.5864518236296873  1.0000
  N   N3        1.0  0.788821002409306  0.8005392706086157  0.25088268627024285  1.0000
  C   C201      1.0  0.7681395861706621  0.7738640280376003  0.2725552058974868  1.0000
  C   C202      1.0  0.7804585682219227  0.7970798932551655  0.21098022909593211  1.0000
  C   C203      1.0  0.8289124328858607  0.7928789451908348  0.25692984032630206  1.0000
  C   C204      1.0  0.7778292580032304  0.8383894817123754  0.26307771610778197  1.0000
  H   H153      1.0  0.7377103547546277  0.7796452983594154  0.2700757144816966  1.0000
  H   H154      1.0  0.7748214912901055  0.7750148098682318  0.30255668363802257  1.0000
  H   H155      1.0  0.7749896254801484  0.7450521328944595  0.26355188854882944  1.0000
  H   H156      1.0  0.7955381531689122  0.8170348449724565  0.1938958367680404  1.0000
  H   H157      1.0  0.7887820031629268  0.7690012770083912  0.2006940903288356  1.0000
  H   H158      1.0  0.7504295007977294  0.8026529847034196  0.20545577925610659  1.0000
  H   H159      1.0  0.8453331082309451  0.8120985500784252  0.24044558636386765  1.0000
  H   H160      1.0  0.8381652603549545  0.7643379275293862  0.24877181714738644  1.0000
  H   H161      1.0  0.8363550857093134  0.7960746596029464  0.28663340006205756  1.0000
  H   H162      1.0  0.7927124978469005  0.8592492716733825  0.24700483475208704  1.0000
  H   H163      1.0  0.7841622962846758  0.8421132472200553  0.29295275425573947  1.0000
  H   H164      1.0  0.7476718698745868  0.8450389720621067  0.2594311918216338  1.0000
  N   N4        1.0  0.06520106938672043  0.8915482218890001  0.1201734558816806  1.0000
  C   C205      1.0  0.05201037501495587  0.8587310094721867  0.10167635943605198  1.0000
  C   C206      1.0  0.04722979024741614  0.9252333229637767  0.10312164501038038  1.0000
  C   C207      1.0  0.10576756886859551  0.8920000557592076  0.11572415860007239  1.0000
  C   C208      1.0  0.05583010655238052  0.8902088023556164  0.16014665807632014  1.0000
  H   H165      1.0  0.06423005306481988  0.8327551892600863  0.11441009163575437  1.0000
  H   H166      1.0  0.059263151361988786  0.8584769012068832  0.0716445588215231  1.0000
  H   H167      1.0  0.021360972896168784  0.8580463995988611  0.10347934643261068  1.0000
  H   H168      1.0  0.05591043403319507  0.9505175883819701  0.11684771751088918  1.0000
  H   H169      1.0  0.05435402571260717  0.9274588801154963  0.07313250015586248  1.0000
  H   H170      1.0  0.016520547867630464  0.9253394500753883  0.10499787086015575  1.0000
  H   H171      1.0  0.1166885053773623  0.916440059921294  0.12926413260707362  1.0000
  H   H172      1.0  0.11387529903607962  0.8930435256702662  0.08585982274295768  1.0000
  H   H173      1.0  0.1202822338405749  0.8670309833470095  0.12837649620724098  1.0000
  H   H174      1.0  0.0655777975258367  0.9143220851930899  0.17521408729638238  1.0000
  H   H175      1.0  0.06854913026912479  0.8649559360135242  0.17391458464189802  1.0000
  H   H176      1.0  0.025457650589071568  0.8900672389138206  0.164744734784716  1.0000
  N   N5        1.0  0.9727711414178569  0.05412303145078368  0.30470756768122803  1.0000
  C   C209      1.0  0.9717453116666797  0.014774704847561717  0.29501309990795577  1.0000
  C   C210      1.0  0.9525459123662462  0.07704171650919951  0.27634082586527103  1.0000
  C   C211      1.0  0.011611009975708962  0.06420498876984992  0.3061842341795212  1.0000
  C   C212      1.0  0.9551309050936824  0.060520971063094064  0.34136345707475974  1.0000
  H   H177      1.0  0.9428499360748118  0.006808175346749936  0.29154027398831134  1.0000
  H   H178      1.0  0.9844978414213051  0.9965740268298764  0.31710458887873755  1.0000
  H   H179      1.0  0.9866135057791715  0.008394682731835301  0.26854111551925613  1.0000
  H   H180      1.0  0.9228872342714464  0.07086001451503754  0.27535003763663063  1.0000
  H   H181      1.0  0.9534388968882352  0.10694868076891778  0.28235357505097197  1.0000
  H   H182      1.0  0.9643881749336546  0.0723223472419432  0.2481430922383013  1.0000
  H   H183      1.0  0.025567817043864904  0.06047831132435145  0.2787820681665513  1.0000
  H   H184      1.0  0.027837245156981934  0.04692803446521344  0.32684959841551414  1.0000
  H   H185      1.0  0.013335115107100615  0.09360825200927243  0.3140448817388097  1.0000
  H   H186      1.0  0.9543284490118096  0.09018191424737576  0.34901153960632614  1.0000
  H   H187      1.0  0.9700180185296786  0.04428479021873533  0.36366471801722067  1.0000
  H   H188      1.0  0.9261462334519908  0.05213950585364003  0.34156305779860596  1.0000
  N   N6        1.0  0.002658746172270021  0.3064772948497296  0.11898378505564539  1.0000
  C   C213      1.0  0.0391602993605622  0.32037726846002484  0.11011146867884898  1.0000
  C   C214      1.0  0.9864608143832303  0.32634279695651186  0.1513892005033429  1.0000
  C   C215      1.0  0.007196800924593294  0.26664862513121845  0.12779006584899918  1.0000
  C   C216      1.0  0.9779141858134759  0.31248810551987066  0.08665853552249196  1.0000
  H   H189      1.0  0.05858171002931489  0.3162191458541901  0.13389275972919  1.0000
  H   H190      1.0  0.03687188454126278  0.35034141725559576  0.10332373169175983  1.0000
  H   H191      1.0  0.052224303236508174  0.3057713815822073  0.0858976948351789  1.0000
  H   H192      1.0  0.959327403778684  0.3158084487420855  0.15952608951650224  1.0000
  H   H193      1.0  0.00510013179813229  0.323189629335049  0.175886745681119  1.0000
  H   H194      1.0  0.9817736725112454  0.35637002754830416  0.14550064664165852  1.0000
  H   H195      1.0  0.9802671387923113  0.2552297846237609  0.13485051727214734  1.0000
  H   H196      1.0  0.025864988120153587  0.26118261750188654  0.15194286626674147  1.0000
  H   H197      1.0  0.019474958608797444  0.2508019580453696  0.10397752514126037  1.0000
  H   H198      1.0  0.9501924453354512  0.3021504611980354  0.09218873363510964  1.0000
  H   H199      1.0  0.9894514795059489  0.29800458252546336  0.06170575868147865  1.0000
  H   H200      1.0  0.97364547364868  0.3422496824850064  0.07934541287152741  1.0000
  N   N7        1.0  0.8548874940082446  0.1511616588502311  0.12466872433368742  1.0000
  C   C217      1.0  0.816901212585312  0.13929545030139193  0.12951800457379783  1.0000
  C   C218      1.0  0.8596470921732705  0.16525337015207717  0.08642153846613045  1.0000
  C   C219      1.0  0.8816913883844498  0.11942663368865586  0.13145990488387974  1.0000
  C   C220      1.0  0.8613658492033008  0.1806845707255435  0.1513328137975597  1.0000
  H   H201      1.0  0.7959583065390885  0.1626429218178086  0.12504313904252792  1.0000
  H   H202      1.0  0.8125959859223303  0.12827328582697184  0.15812266703291467  1.0000
  H   H203      1.0  0.8110375982395087  0.11710101626288515  0.10972617224756238  1.0000
  H   H204      1.0  0.8399065360806981  0.189241828396915  0.08019811503878449  1.0000
  H   H205      1.0  0.8880313822824205  0.17445468676605033  0.08205059818675764  1.0000
  H   H206      1.0  0.8554844410471829  0.14357115407095566  0.06546227712833264  1.0000
  H   H207      1.0  0.877617145537275  0.09663531473639381  0.11173345395556408  1.0000
  H   H208      1.0  0.878954638658121  0.10823835092179444  0.16020906936721982  1.0000
  H   H209      1.0  0.9106793846425841  0.12727733125538884  0.12770988284433002  1.0000
  H   H210      1.0  0.8563224851511534  0.1716428049081407  0.18038413520932817  1.0000
  H   H211      1.0  0.8427495486828186  0.20575179985035927  0.1460502079000025  1.0000
  H   H212      1.0  0.8903601136872094  0.18889489417319422  0.1498296405580206  1.0000
  N   N8        1.0  0.8376108280862244  0.6972086276647371  0.8511762373631483  1.0000
  C   C221      1.0  0.8075734148290662  0.6942340721449103  0.87872907238988  1.0000
  C   C222      1.0  0.8215897837842281  0.7071149860125444  0.8144641659834878  1.0000
  C   C223      1.0  0.8592250675017519  0.6614308597767005  0.8486642391619416  1.0000
  C   C224      1.0  0.8619520832413086  0.726070556800414  0.8628184530208555  1.0000
  H   H213      1.0  0.8186202292355648  0.686811742708744  0.9067733789583963  1.0000
  H   H214      1.0  0.7885913153913177  0.6727167369843068  0.8707641275216873  1.0000
  H   H215      1.0  0.7906394233932917  0.7207438437882598  0.8812981833938768  1.0000
  H   H216      1.0  0.8433651578541803  0.7106327105429459  0.7931171391297509  1.0000
  H   H217      1.0  0.8037098373062419  0.6855920149909749  0.8044143597852512  1.0000
  H   H218      1.0  0.8041564646305714  0.7333438275735944  0.8155424273734337  1.0000
  H   H219      1.0  0.8819032259644171  0.6625347672832651  0.8278519939718314  1.0000
  H   H220      1.0  0.8414111801072448  0.6391076026804225  0.8400809739932708  1.0000
  H   H221      1.0  0.8717475117180716  0.6530543846618451  0.8758585351908544  1.0000
  H   H222      1.0  0.8850492743195101  0.7290826820550635  0.8428005512416682  1.0000
  H   H223      1.0  0.8741101926195817  0.7199428142110308  0.8907078886249942  1.0000
  H   H224      1.0  0.8463767743265864  0.7533685079628327  0.8645633381187037  1.0000
  N   N9        1.0  0.413029399347166  0.5525386230183237  0.380742601176874  1.0000
  C   C225      1.0  0.43125848120239696  0.5506920003996478  0.4174221284597151  1.0000
  C   C226      1.0  0.4368741878126119  0.5322565009617622  0.3534012958413825  1.0000
  C   C227      1.0  0.40706991498345  0.591494585184402  0.3688773479531089  1.0000
  C   C228      1.0  0.3769783615484395  0.5357685632103126  0.383287428235939  1.0000
  H   H225      1.0  0.4137106660478278  0.5650936154394411  0.43895147657082695  1.0000
  H   H226      1.0  0.45805854029862336  0.5640187865110441  0.41657878281767485  1.0000
  H   H227      1.0  0.43722966676060393  0.5216098372646493  0.4267286097301062  1.0000
  H   H228      1.0  0.42407331717138663  0.532898685906708  0.3253588832567026  1.0000
  H   H229      1.0  0.46444320955104607  0.5439519390555936  0.35100649160610814  1.0000
  H   H230      1.0  0.4419996167726918  0.5027781965171683  0.36165999435660084  1.0000
  H   H231      1.0  0.3929456720970736  0.594038319945378  0.3415182219523569  1.0000
  H   H232      1.0  0.4337263915435558  0.6049768828150963  0.36645508240474783  1.0000
  H   H233      1.0  0.38969671693358865  0.6076501317599777  0.38932563147658794  1.0000
  H   H234      1.0  0.36235102875902414  0.5366862077866539  0.3561637500933893  1.0000
  H   H235      1.0  0.3582685590049918  0.5501727288046685  0.4038811670486484  1.0000
  H   H236      1.0  0.38032949418896805  0.5063009323466346  0.3919828486027657  1.0000
  N   N10       1.0  0.022537948393605456  0.030696131800902693  0.9664591249669277  1.0000
  C   C229      1.0  0.9918839922380385  0.03172682381869096  0.9394104938524998  1.0000
  C   C230      1.0  0.05826003694368949  0.029222725136410332  0.9463613873376187  1.0000
  C   C231      1.0  0.020848161973995527  0.9976200641455627  0.9904428671564178  1.0000
  C   C232      1.0  0.019110766435477707  0.06408262809626987  0.9896310030971843  1.0000
  H   H237      1.0  0.9934137988397229  0.006765132171212551  0.9216089038231604  1.0000
  H   H238      1.0  0.9921020782868826  0.05634860679800191  0.9208218754876012  1.0000
  H   H239      1.0  0.9645623067667821  0.032786206491471466  0.9536557676731234  1.0000
  H   H240      1.0  0.061020798737548426  0.05428341616334298  0.9288064565882491  1.0000
  H   H241      1.0  0.08210127790860652  0.02704958500484822  0.9658939237488546  1.0000
  H   H242      1.0  0.061140560968119526  0.00490638045648395  0.927785166579659  1.0000
  H   H243      1.0  0.043924566863670966  0.995411622529428  0.010824039157587118  1.0000
  H   H244      1.0  0.022906974744103747  0.9720550788248096  0.9736841080055705  1.0000
  H   H245      1.0  0.9943104102447441  0.9977969770996292  0.006209471842522962  1.0000
  H   H246      1.0  0.04219476535599043  0.06454512777064858  0.00986348888830424  1.0000
  H   H247      1.0  0.9928099972860023  0.06554999069232781  0.0057870640445614185  1.0000
  H   H248      1.0  0.019209359326127325  0.08968024318116968  0.9724042335002704  1.0000
  N   N11       1.0  0.2972328778812978  0.34529571597579756  0.17331123373537205  1.0000
  C   C233      1.0  0.3149141985209  0.345106442232106  0.13623731924837754  1.0000
  C   C234      1.0  0.32174068183823196  0.36131696631236093  0.20072604654750398  1.0000
  C   C235      1.0  0.2905008086620305  0.3071165264737301  0.1845284445131172  1.0000
  C   C236      1.0  0.2616271121337052  0.3675247823624025  0.17190988367787244  1.0000
  H   H249      1.0  0.29715095242144135  0.332936438527414  0.11499187937586997  1.0000
  H   H250      1.0  0.34181970827444075  0.3285153397789376  0.13641232437525994  1.0000
  H   H251      1.0  0.3201489546098928  0.3734932945342545  0.12662714462615682  1.0000
  H   H252      1.0  0.3283809838333818  0.3897581541736893  0.1926627453218526  1.0000
  H   H253      1.0  0.30852719918124827  0.36296288930566734  0.22867911312314512  1.0000
  H   H254      1.0  0.3482738594988349  0.3443828061786407  0.20392391774245014  1.0000
  H   H255      1.0  0.27314560262687754  0.2936951406522047  0.1639274473795217  1.0000
  H   H256      1.0  0.2757695229572445  0.30651541915183117  0.21158786061616913  1.0000
  H   H257      1.0  0.3167480023461327  0.28971107601010393  0.18744130327692415  1.0000
  H   H258      1.0  0.24243956229254918  0.35627926500378043  0.15149718597549355  1.0000
  H   H259      1.0  0.26558812851085867  0.3966178999384139  0.16381704592275878  1.0000
  H   H260      1.0  0.2474267125314887  0.3678420934197707  0.19947952838644173  1.0000
  N   N12       1.0  0.7616428115429648  0.31640946304751316  0.34553132363761857  1.0000
  C   C237      1.0  0.753245243162209  0.3052296082360496  0.38405449081459  1.0000
  C   C238      1.0  0.7415092907263601  0.2938729446007986  0.31944330688787714  1.0000
  C   C239      1.0  0.8018305765759701  0.31063936075447196  0.3385444802814802  1.0000
  C   C240      1.0  0.7499302036425914  0.3558073349631087  0.3401773351674509  1.0000
  H   H261      1.0  0.7684963301173741  0.32125949210149124  0.4044741983092584  1.0000
  H   H262      1.0  0.761203469674876  0.2754835167151363  0.389028147124818  1.0000
  H   H263      1.0  0.7232201980506016  0.30983796000301556  0.3904915553467116  1.0000
  H   H264      1.0  0.7110760230987806  0.29752182883210077  0.32393043477129463  1.0000
  H   H265      1.0  0.7473505449360287  0.3014631266891839  0.2900648753263291  1.0000
  H   H266      1.0  0.7498217958045851  0.263980178986947  0.3229835813699411  1.0000
  H   H267      1.0  0.8116491346366907  0.28128537595272074  0.34322281359810664  1.0000
  H   H268      1.0  0.8179346239759581  0.3276532650404727  0.3573270522571437  1.0000
  H   H269      1.0  0.8091880960251632  0.3179695111867491  0.30942733946696205  1.0000
  H   H270      1.0  0.7644909878674961  0.3734416920255323  0.3597487765053357  1.0000
  H   H271      1.0  0.7196843658221597  0.3610836730307017  0.34530589938561407  1.0000
  H   H272      1.0  0.7559312906623084  0.36534997864369684  0.31145031466997236  1.0000
  N   N13       1.0  0.7856195362997936  0.9413102254837807  0.8800201571302901  1.0000
  C   C241      1.0  0.7683581458111425  0.9789049384733235  0.8849420071965381  1.0000
  C   C242      1.0  0.816882024556061  0.9426683545108311  0.8536552703953493  1.0000
  C   C243      1.0  0.7581273690769862  0.9168682029008107  0.8653756339679172  1.0000
  C   C244      1.0  0.7993154137376436  0.9268642053439398  0.9162433205835264  1.0000
  H   H273      1.0  0.7449617028893222  0.9790524603111386  0.9050579085358323  1.0000
  H   H274      1.0  0.7575774384201094  0.9907580438400676  0.8582127720049643  1.0000
  H   H275      1.0  0.78873559902353  0.9978836736384111  0.8958080234010997  1.0000
  H   H276      1.0  0.838440822879469  0.960447355374954  0.8642182557699621  1.0000
  H   H277      1.0  0.8303434853483413  0.9147056926811195  0.8489481936718981  1.0000
  H   H278      1.0  0.8076918570104984  0.953956551201846  0.8261508038555703  1.0000
  H   H279      1.0  0.7703099266400161  0.8881702787762599  0.8619647753136445  1.0000
  H   H280      1.0  0.7475973977791399  0.9264978723317481  0.8377277132183142  1.0000
  H   H281      1.0  0.7340105950088305  0.9153771025027291  0.8844352461658215  1.0000
  H   H282      1.0  0.8137356322921683  0.899109296201492  0.9134776797177923  1.0000
  H   H283      1.0  0.7764410794051162  0.9242602652843478  0.9366011273889193  1.0000
  H   H284      1.0  0.8192343194500751  0.945277536216902  0.928599560614469  1.0000
  N   N14       1.0  0.5669768034803028  0.5751466947295705  0.471161101409731  1.0000
  C   C245      1.0  0.5869780920521985  0.6079962713117782  0.4804533567868808  1.0000
  C   C246      1.0  0.5833305341824564  0.5428140848908676  0.49185751910545644  1.0000
  C   C247      1.0  0.5700126063727395  0.5684031093531549  0.43079943045492536  1.0000
  C   C248      1.0  0.5276070590630016  0.5814422136777433  0.48153602777410603  1.0000
  H   H285      1.0  0.5853498215106105  0.6141539730424472  0.5106217996701542  1.0000
  H   H286      1.0  0.5756676926926343  0.6328920182398473  0.46513211773108604  1.0000
  H   H287      1.0  0.6167200069306837  0.6041226689460848  0.47285741099736056  1.0000
  H   H288      1.0  0.5686566719675522  0.5175671493368886  0.4859509159649212  1.0000
  H   H289      1.0  0.6128946515820122  0.5370269841469422  0.4843042856030564  1.0000
  H   H290      1.0  0.5821758322272025  0.5472566647089707  0.522376684655201  1.0000
  H   H291      1.0  0.5550858065474551  0.5439348990037521  0.422567808403297  1.0000
  H   H292      1.0  0.5993969452988404  0.5634856665140311  0.4219908116841865  1.0000
  H   H293      1.0  0.5584365174789865  0.5925434346989302  0.41440907485921696  1.0000
  H   H294      1.0  0.5242527599925327  0.5868850763255433  0.5117555966552798  1.0000
  H   H295      1.0  0.5116787945990693  0.5571944562280842  0.4748053897557439  1.0000
  H   H296      1.0  0.5145107291861857  0.6056758644705688  0.4664514673899934  1.0000
  N   N15       1.0  0.6290713049901505  0.41562365098759635  0.6571571426133602  1.0000
  C   C249      1.0  0.633389600569351  0.42711859961129467  0.6179618905329298  1.0000
  C   C250      1.0  0.6092107526578167  0.38136232081594257  0.6587843661041818  1.0000
  C   C251      1.0  0.6078321674360245  0.444974401915316  0.6776936245367828  1.0000
  C   C252      1.0  0.6658906549051508  0.4089320737153724  0.6742838752076172  1.0000
  H   H297      1.0  0.6485274835718576  0.4527322277193507  0.6155644303606859  1.0000
  H   H298      1.0  0.6060064240128281  0.43245221360675057  0.6043079101655366  1.0000
  H   H299      1.0  0.6491216703714976  0.405357005595582  0.6017117433967052  1.0000
  H   H300      1.0  0.6057331291759194  0.37167644339513894  0.6879561023591982  1.0000
  H   H301      1.0  0.5811572434426727  0.3855076197978644  0.6463374849265331  1.0000
  H   H302      1.0  0.624374346776256  0.3587104296773191  0.6432920608375613  1.0000
  H   H303      1.0  0.6223527360146469  0.4710168169818583  0.6778954357692886  1.0000
  H   H304      1.0  0.6035114699264048  0.4367069690192103  0.7071114129172762  1.0000
  H   H305      1.0  0.5800517002943001  0.45125765016770675  0.6652988617830919  1.0000
  H   H306      1.0  0.683142061459422  0.38781701941241975  0.6587518031166348  1.0000
  H   H307      1.0  0.6636921389162355  0.3989530989305381  0.7035437477406682  1.0000
  H   H308      1.0  0.6812405998252696  0.43448897353276394  0.6747324847156728  1.0000
  N   N16       1.0  0.007378373411373262  0.3132681717166603  0.8591132361668254  1.0000
  C   C253      1.0  0.9893282858038225  0.2965417003507819  0.8272676556224758  1.0000
  C   C254      1.0  0.0017195326562047253  0.29090426386530466  0.8929184817526622  1.0000
  C   C255      1.0  0.9910111986234127  0.35111830408431577  0.864692970971301  1.0000
  C   C256      1.0  0.04741329952117135  0.31447930812594177  0.8515904916092858  1.0000
  H   H309      1.0  0.9930912330199378  0.3125667506632662  0.8011960224713212  1.0000
  H   H310      1.0  0.9591037658638311  0.29544938469677223  0.8320215347574678  1.0000
  H   H311      1.0  0.0006153863252447156  0.267740067120866  0.8225876598859898  1.0000
  H   H312      1.0  0.012122359833425467  0.2617190386661953  0.8891109364458227  1.0000
  H   H313      1.0  0.016086325774940624  0.30187879634478826  0.9173147203533716  1.0000
  H   H314      1.0  0.9719686833286512  0.29038211919914675  0.9001607613196457  1.0000
  H   H315      1.0  0.9947956870112498  0.3688235919500609  0.8397493278081236  1.0000
  H   H316      1.0  0.0037834823800622086  0.36442751005049473  0.8887475428976234  1.0000
  H   H317      1.0  0.960730205966871  0.3512168792924701  0.8700954675646072  1.0000
  H   H318      1.0  0.0621087585154112  0.3264732087070332  0.8752672844578206  1.0000
  H   H319      1.0  0.05290204944928667  0.3313606769913668  0.826483944389741  1.0000
  H   H320      1.0  0.06068428937990711  0.28640458086776993  0.8469892155707106  1.0000
  N   N17       1.0  0.6193257014121507  0.7840024205178412  0.5753219577730277  1.0000
  C   C257      1.0  0.6127800682684552  0.8095328420545742  0.5434860126250914  1.0000
  C   C258      1.0  0.5996392035679295  0.7990270373154359  0.6084358561297826  1.0000
  C   C259      1.0  0.6594027047025742  0.7795628113966484  0.5830389997666082  1.0000
  C   C260      1.0  0.6054630138806513  0.747786141589222  0.5663709662455351  1.0000
  H   H321      1.0  0.6274112893904372  0.7989654123955041  0.5181336614070392  1.0000
  H   H322      1.0  0.6226155448955236  0.8372569100323972  0.5492373415593086  1.0000
  H   H323      1.0  0.5828636455960511  0.8129608296717974  0.5363482671072342  1.0000
  H   H324      1.0  0.5692703450600152  0.8024742046796655  0.6036018929536443  1.0000
  H   H325      1.0  0.6041674825298944  0.7803473970618777  0.6329884906017329  1.0000
  H   H326      1.0  0.609339383816671  0.8263776037474926  0.6160530836368713  1.0000
  H   H327      1.0  0.6651565250609699  0.7612780823052683  0.6075343050246945  1.0000
  H   H328      1.0  0.6710893036144145  0.8064349304330598  0.5889748869217067  1.0000
  H   H329      1.0  0.6750879350184099  0.7671441878878383  0.5590595664946871  1.0000
  H   H330      1.0  0.6209031659116298  0.7348019845642051  0.5425863012155908  1.0000
  H   H331      1.0  0.5757258825580717  0.7503681255492525  0.5584257506439017  1.0000
  H   H332      1.0  0.6082059906180648  0.7284475867423715  0.5904413625707389  1.0000
  N   N18       1.0  0.5694685997852187  0.3219659565482189  0.4800139649044951  1.0000
  C   C261      1.0  0.5661823075305137  0.3626661026424388  0.47908973514663106  1.0000
  C   C262      1.0  0.5735105038409611  0.30806003670379406  0.4416862492960523  1.0000
  C   C263      1.0  0.535898091909355  0.3080543967035383  0.49717117714492176  1.0000
  C   C264      1.0  0.6023001213326546  0.30925775325827554  0.5020403501294918  1.0000
  H   H333      1.0  0.5910380706859023  0.3739063614823601  0.46632443300482196  1.0000
  H   H334      1.0  0.5632375586087017  0.37422306833017993  0.5075076230188532  1.0000
  H   H335      1.0  0.5419518570257174  0.3733744855112189  0.4623879771832503  1.0000
  H   H336      1.0  0.5755957855121907  0.2774085930256906  0.44116552871426057  1.0000
  H   H337      1.0  0.5495080499413391  0.3178295421957778  0.42413951916822257  1.0000
  H   H338      1.0  0.5988394521381881  0.31776237523395695  0.4280913188371349  1.0000
  H   H339      1.0  0.5372663566201172  0.2774107550004968  0.49829268367129526  1.0000
  H   H340      1.0  0.5105807367336016  0.31728436306122054  0.4812797361571261  1.0000
  H   H341      1.0  0.5319527566640238  0.3180995028766061  0.5261186521916434  1.0000
  H   H342      1.0  0.6003809735575169  0.31959346302221847  0.5310642794608788  1.0000
  H   H343      1.0  0.6281457691739594  0.3191819766179121  0.4897445762299399  1.0000
  H   H344      1.0  0.6056707698714632  0.27864786213782144  0.5036130424830229  1.0000
  N   N19       1.0  0.8393563202385698  0.4020863652615899  0.5916499493598074  1.0000
  C   C265      1.0  0.833783492178591  0.42885792235803666  0.5606954665810883  1.0000
  C   C266      1.0  0.8089029440565949  0.4075464911537561  0.6189031992673626  1.0000
  C   C267      1.0  0.874868971541239  0.40750102458320564  0.6102079232806841  1.0000
  C   C268      1.0  0.8400351215300688  0.36427232637738527  0.5768715382992756  1.0000
  H   H345      1.0  0.8329250302241057  0.4577436847515494  0.5706588018484567  1.0000
  H   H346      1.0  0.8074167135162353  0.4251171673297226  0.54589563181639  1.0000
  H   H347      1.0  0.8561922031181045  0.4252242336018269  0.5395359101505902  1.0000
  H   H348      1.0  0.8127721248994483  0.3881761903897484  0.6428257084716228  1.0000
  H   H349      1.0  0.8070465156971545  0.43600489095719713  0.6302296238374008  1.0000
  H   H350      1.0  0.7817264854120215  0.40242787773238936  0.6065100841800721  1.0000
  H   H351      1.0  0.8797509959500832  0.38744239616064735  0.633593457776454  1.0000
  H   H352      1.0  0.8752817673963725  0.4356643319009794  0.6219789532493257  1.0000
  H   H353      1.0  0.8985326456916186  0.4035018648263361  0.5905547558604225  1.0000
  H   H354      1.0  0.845508787029055  0.34326147183479283  0.599176768429069  1.0000
  H   H355      1.0  0.8617521057737886  0.3595446528933654  0.5551813628124346  1.0000
  H   H356      1.0  0.8132426511408108  0.3587031593232949  0.5637227605469739  1.0000
  N   N20       1.0  0.3678154118215652  0.6220763002378732  0.6606341616983589  1.0000
  C   C269      1.0  0.34450057185614313  0.590552486365363  0.6559920268447953  1.0000
  C   C270      1.0  0.40611584493395725  0.608362528339005  0.669285573804485  1.0000
  C   C271      1.0  0.3530748430228964  0.6454563574574348  0.6912476738133733  1.0000
  C   C272      1.0  0.36757350313440423  0.6440535682112065  0.6259039315913448  1.0000
  H   H357      1.0  0.35502249696371535  0.5722913054771988  0.6331580783399969  1.0000
  H   H358      1.0  0.31553255979736505  0.6000363320736172  0.6488778888455413  1.0000
  H   H359      1.0  0.3438321270015571  0.573431715775661  0.681733232640247  1.0000
  H   H360      1.0  0.42437703234924795  0.6315603851035394  0.6728365390551805  1.0000
  H   H361      1.0  0.40728835402924335  0.5917848354492978  0.6954309894330244  1.0000
  H   H362      1.0  0.41801459981180084  0.59044642746451  0.6467954657864308  1.0000
  H   H363      1.0  0.37028419033510085  0.669267125757214  0.6957497829753468  1.0000
  H   H364      1.0  0.3524191760786233  0.6300460118001242  0.7179374270545261  1.0000
  H   H365      1.0  0.32434260866492554  0.656699382243366  0.6854622180925394  1.0000
  H   H366      1.0  0.3849166922638743  0.6681301159586137  0.6282336196859243  1.0000
  H   H367      1.0  0.3390847320833273  0.6549324909429678  0.6185042589443223  1.0000
  H   H368      1.0  0.37824803396539  0.6271387289740539  0.6022166563956458  1.0000
  N   N21       1.0  0.7605209098152695  0.33032199733891787  0.8841401919513442  1.0000
  C   C273      1.0  0.7215195955859387  0.3330872622368049  0.896553905853296  1.0000
  C   C274      1.0  0.7703192439991646  0.3663961965308087  0.8690947168115383  1.0000
  C   C275      1.0  0.7653615189643502  0.30212370606289074  0.8549311321976749  1.0000
  C   C276      1.0  0.7849067382519985  0.319742105700282  0.9158187789477651  1.0000
  H   H369      1.0  0.7130096476281275  0.30637839440115255  0.9080093736935071  1.0000
  H   H370      1.0  0.7025616835475541  0.34102415398182095  0.8730475987998753  1.0000
  H   H371      1.0  0.7167848362601279  0.354334665839969  0.9183868425806316  1.0000
  H   H372      1.0  0.799211324104567  0.3651760621700127  0.8585582705655713  1.0000
  H   H373      1.0  0.7520135929043249  0.3755529297252366  0.8456044589200172  1.0000
  H   H374      1.0  0.7678030010090635  0.3882792092838415  0.8904870807395411  1.0000
  H   H375      1.0  0.7582340149974119  0.2745267144079152  0.8652726926320105  1.0000
  H   H376      1.0  0.7944973448652696  0.29942290533616533  0.8447939211391244  1.0000
  H   H377      1.0  0.7473178282052679  0.309240633687644  0.8305610092493357  1.0000
  H   H378      1.0  0.8144733742659099  0.3172814582668175  0.9070797134110786  1.0000
  H   H379      1.0  0.7783134456500267  0.2926554464690068  0.9279575828722589  1.0000
  H   H380      1.0  0.7823402265010696  0.34054595339891125  0.9383032650136689  1.0000
  N   N22       1.0  0.5471802104709138  0.625316559973688  0.8053590404731275  1.0000
  C   C277      1.0  0.5739543113281698  0.6240829786621146  0.8362764730266499  1.0000
  C   C278      1.0  0.5096118155779471  0.6350122619612207  0.8198794290246828  1.0000
  C   C279      1.0  0.547954334542215  0.588762566021795  0.7875709640414376  1.0000
  C   C280      1.0  0.5572460127875234  0.6534605245136279  0.7778201291529728  1.0000
  H   H381      1.0  0.6027662953734505  0.61789326114677  0.8262240516070467  1.0000
  H   H382      1.0  0.5677375076420699  0.6026827637611887  0.8572838618765762  1.0000
  H   H383      1.0  0.5735474922800007  0.6509611236054929  0.8508336101288753  1.0000
  H   H384      1.0  0.4884233906265836  0.6354310524594043  0.7975519751248307  1.0000
  H   H385      1.0  0.5013784966240797  0.6150161865742984  0.8415157723598881  1.0000
  H   H386      1.0  0.5077114941654172  0.6627560046720008  0.8327524182216791  1.0000
  H   H387      1.0  0.5281234452862161  0.5885429884650799  0.7640833763390541  1.0000
  H   H388      1.0  0.5404932216754235  0.5668337424241837  0.8075726317515403  1.0000
  H   H389      1.0  0.5759530423912477  0.5803707143801061  0.776494826399514  1.0000
  H   H390      1.0  0.5373763432569104  0.6556319464867412  0.7543204397680421  1.0000
  H   H391      1.0  0.5853598307292512  0.6469833863925974  0.7660408674334304  1.0000
  H   H392      1.0  0.5574476604086814  0.6812568464729262  0.7905663149490484  1.0000
  N   N23       1.0  0.3472024330105677  0.4732887045835276  0.8404545614985034  1.0000
  C   C281      1.0  0.33548797299218364  0.4487737644183973  0.8706989564324457  1.0000
  C   C282      1.0  0.3189154545621046  0.47549709783978406  0.8109068734052575  1.0000
  C   C283      1.0  0.3827564522263969  0.45836997507364646  0.8248308438990698  1.0000
  C   C284      1.0  0.3517564673914105  0.5105310229068905  0.8552107827027354  1.0000
  H   H393      1.0  0.33208379967924184  0.420376202472767  0.8605023852875425  1.0000
  H   H394      1.0  0.3084371427243673  0.4588848930019858  0.8827839292454982  1.0000
  H   H395      1.0  0.35613832261726674  0.4465216960264007  0.8935232694125542  1.0000
  H   H396      1.0  0.3273879670160969  0.4930038875583789  0.7871468570131713  1.0000
  H   H397      1.0  0.3142419632561368  0.4477108863395358  0.7997919162673996  1.0000
  H   H398      1.0  0.2918165587133738  0.4872645140141565  0.8214386590538247  1.0000
  H   H399      1.0  0.4051582106903668  0.4571392871975561  0.8459347563074265  1.0000
  H   H400      1.0  0.39171713433195554  0.4757168147920632  0.801236425820147  1.0000
  H   H401      1.0  0.38068598535240855  0.4299709823026461  0.8141695336592374  1.0000
  H   H402      1.0  0.3730353458730346  0.5099767132395737  0.8774571719339448  1.0000
  H   H403      1.0  0.32543886733824273  0.5228749258202342  0.8670456154104338  1.0000
  H   H404      1.0  0.36080817416437394  0.5295795099529147  0.8331020597937899  1.0000
  N   N24       1.0  0.3445536161782881  0.22974897949743994  0.811697545964935  1.0000
  C   C285      1.0  0.3300928276639741  0.2607406918255842  0.78787925251407  1.0000
  C   C286      1.0  0.3152229646422766  0.20394041212054906  0.8182724282560433  1.0000
  C   C287      1.0  0.35663851493710064  0.24410276048069807  0.847610304020747  1.0000
  C   C288      1.0  0.3763887561525503  0.21016506267036195  0.7931043176941402  1.0000
  H   H405      1.0  0.3072016494571309  0.27732657284697776  0.8018071250050479  1.0000
  H   H406      1.0  0.3191990325958502  0.2508515029816229  0.7611935319505435  1.0000
  H   H407      1.0  0.35198511515104763  0.2798715297283433  0.7810211646437235  1.0000
  H   H408      1.0  0.32497198741006217  0.18058919992407746  0.8367977919405186  1.0000
  H   H409      1.0  0.2907697052365433  0.21780635351966388  0.8322596232489718  1.0000
  H   H410      1.0  0.30552762200941164  0.19219142812007692  0.7919241505925136  1.0000
  H   H411      1.0  0.37948326758629825  0.2628151847018716  0.8439498473331006  1.0000
  H   H412      1.0  0.3665146352970737  0.2213783438419431  0.8668142997667097  1.0000
  H   H413      1.0  0.33350996769951924  0.2597588689995892  0.8620357769491548  1.0000
  H   H414      1.0  0.38795397627380984  0.18665434227651906  0.810422594574754  1.0000
  H   H415      1.0  0.39908547690704316  0.22888135083146532  0.7878504149254738  1.0000
  H   H416      1.0  0.3683297311623049  0.19897755766232314  0.7658637132904506  1.0000
  N   N25       1.0  0.17243949084335672  0.2019316716856525  0.03222294675472859  1.0000
  C   C289      1.0  0.16569389342492882  0.2398246371812318  0.04624986018947563  1.0000
  C   C290      1.0  0.2121063519051583  0.19491781786327694  0.023330390993135275  1.0000
  C   C291      1.0  0.15016858846564216  0.1975626879137598  0.9984904027057709  1.0000
  C   C292      1.0  0.16166963054181038  0.17530429139286086  0.060929320185816094  1.0000
  H   H417      1.0  0.1357494825774544  0.246485853800605  0.05162239909580335  1.0000
  H   H418      1.0  0.17534417000658878  0.2605985553192245  0.026048372338593362  1.0000
  H   H419      1.0  0.1804107835798171  0.2434474382534346  0.07281686426562528  1.0000
  H   H420      1.0  0.21808359796948465  0.16654029884105423  0.012676201394444364  1.0000
  H   H421      1.0  0.22138308812079838  0.21438174338161187  0.001683502239262502  1.0000
  H   H422      1.0  0.22963288280575872  0.19787614558351824  0.04827984386762374  1.0000
  H   H423      1.0  0.15396364560047437  0.169119173173329  0.9875982339086221  1.0000
  H   H424      1.0  0.15785281728191514  0.21689509839844773  0.9759577365649401  1.0000
  H   H425      1.0  0.12015284244160912  0.20269295058252246  0.004265750368968257  1.0000
  H   H426      1.0  0.1319102937720663  0.17996825424694243  0.06842834471346526  1.0000
  H   H427      1.0  0.17817102727925935  0.17783284837044763  0.0867322403485189  1.0000
  H   H428      1.0  0.1662128958760995  0.1464395870716801  0.050932940882059796  1.0000
  N   N26       1.0  0.03273866451953045  0.8083653887787303  0.3473462717982303  1.0000
  C   C293      1.0  0.03795916034848035  0.7818268765160988  0.3785312381918705  1.0000
  C   C294      1.0  0.06550240349730352  0.805538737726216  0.32268021083927345  1.0000
  C   C295      1.0  0.027905474276523234  0.846170029944663  0.36207782855845516  1.0000
  C   C296      1.0  0.9995019699346335  0.800037507969803  0.3261023679950837  1.0000
  H   H429      1.0  0.01351118712002175  0.7832114770460507  0.397468194769118  1.0000
  H   H430      1.0  0.06267506246336096  0.7874486814964988  0.3953335159736431  1.0000
  H   H431      1.0  0.041794784492644954  0.7529923366531767  0.3684137271061364  1.0000
  H   H432      1.0  0.06225571223011217  0.8251441827201336  0.2987694380656591  1.0000
  H   H433      1.0  0.0910673865615681  0.8120981350024453  0.337644910496629  1.0000
  H   H434      1.0  0.07009670641103494  0.7773804257792585  0.31103370371330513  1.0000
  H   H435      1.0  0.02366947276903364  0.8667386359624423  0.33921963583323533  1.0000
  H   H436      1.0  0.052600489123440175  0.8536735312767404  0.3779327278676524  1.0000
  H   H437      1.0  0.0034024733606439206  0.8494063881189549  0.38081210079961864  1.0000
  H   H438      1.0  0.001815939144329537  0.7715664316256552  0.31493038092952197  1.0000
  H   H439      1.0  0.9950121987931555  0.8192370997055144  0.30205877432595923  1.0000
  H   H440      1.0  0.9740928306215032  0.8025546142783216  0.3436672454114978  1.0000
  N   N27       1.0  0.09783997498593627  0.21415278480644995  0.35963539963247276  1.0000
  C   C297      1.0  0.07858738694872683  0.2157214010643625  0.3958860262319569  1.0000
  C   C298      1.0  0.1373301219298189  0.2207226516114956  0.3648006897354689  1.0000
  C   C299      1.0  0.08065828552317202  0.2427040834860579  0.3345183518778122  1.0000
  C   C300      1.0  0.09472524530589901  0.17737752176213276  0.3432598255116668  1.0000
  H   H441      1.0  0.09067927139171678  0.19439422465293266  0.41548031149697884  1.0000
  H   H442      1.0  0.048683785993019375  0.21091512773411097  0.3927297119754648  1.0000
  H   H443      1.0  0.08043022258228347  0.24311226669325475  0.40905844980993417  1.0000
  H   H444      1.0  0.15269356160989384  0.21886043706164476  0.33798331674747434  1.0000
  H   H445      1.0  0.14098698445441113  0.24853845515030273  0.3763219686469131  1.0000
  H   H446      1.0  0.15114495066440686  0.19983818744755838  0.383787699279014  1.0000
  H   H447      1.0  0.08274693570741966  0.2708953055250605  0.3457270236641573  1.0000
  H   H448      1.0  0.050823666056635027  0.23856796139041225  0.329971645232954  1.0000
  H   H449      1.0  0.09428814012265904  0.24210520092262097  0.3067951845564624  1.0000
  H   H450      1.0  0.10815646580919511  0.15515873556719068  0.36096064004585143  1.0000
  H   H451      1.0  0.10848292744543929  0.17553302908645863  0.3156018601234917  1.0000
  H   H452      1.0  0.06530562176973494  0.17121935628385287  0.33929891014976155  1.0000
  N   N28       1.0  0.1702774908144269  0.8484401702182734  0.9078125907734338  1.0000
  C   C301      1.0  0.1812054970958056  0.8621725985418435  0.9443971576698242  1.0000
  C   C302      1.0  0.13331934238421073  0.8336207675167395  0.9107499482874258  1.0000
  C   C303      1.0  0.19749866175058212  0.8189219488318671  0.8957089008846237  1.0000
  C   C304      1.0  0.16926347811501768  0.8790450139185209  0.8803954264923181  1.0000
  H   H453      1.0  0.20870513417414613  0.8740239668277023  0.9428905172337622  1.0000
  H   H454      1.0  0.1829697872597353  0.8397888210982167  0.9657273568240831  1.0000
  H   H455      1.0  0.16117241631292806  0.8842919648389135  0.9546457197267803  1.0000
  H   H456      1.0  0.12367833711243273  0.8240157552275851  0.8833962551285797  1.0000
  H   H457      1.0  0.13337243701453172  0.8099566446147116  0.9305906067290257  1.0000
  H   H458      1.0  0.11227665315842685  0.8548366915336588  0.9208082549100522  1.0000
  H   H459      1.0  0.19034134784457044  0.8079651889701465  0.8680847698343149  1.0000
  H   H460      1.0  0.19944909978520944  0.7954358736530962  0.9158238111992553  1.0000
  H   H461      1.0  0.22559830076029547  0.8292367447430595  0.89326621644164  1.0000
  H   H462      1.0  0.19685086644135077  0.8906482186963246  0.8773420555827279  1.0000
  H   H463      1.0  0.149450550082451  0.9020853579006877  0.8888201322260967  1.0000
  H   H464      1.0  0.16092402217962276  0.8698588700617976  0.8524483449815032  1.0000
  N   N29       1.0  0.4043756987915267  0.7680947245681993  0.3718175650081276  1.0000
  C   C305      1.0  0.3992849379242651  0.7977657142929365  0.399503105451264  1.0000
  C   C306      1.0  0.41426692893148126  0.7842329723179365  0.3355748262912855  1.0000
  C   C307      1.0  0.36954600548730715  0.7493841418547582  0.3680563243789186  1.0000
  C   C308      1.0  0.43432705696533275  0.7411711471164589  0.3840285915795501  1.0000
  H   H465      1.0  0.37774246709764353  0.8192105898134131  0.39048295450977444  1.0000
  H   H466      1.0  0.42533802749129884  0.8116493584200674  0.40412789712993247  1.0000
  H   H467      1.0  0.3902943848081312  0.7868796592857831  0.4268597894159904  1.0000
  H   H468      1.0  0.39208319464335867  0.8045470180136686  0.32553222954570366  1.0000
  H   H469      1.0  0.44028885532379747  0.7988115618093664  0.3374249117917971  1.0000
  H   H470      1.0  0.41840173598974767  0.7626321434120615  0.3139961048225206  1.0000
  H   H471      1.0  0.3720671402308817  0.7270216752258729  0.3471939929511148  1.0000
  H   H472      1.0  0.3462607491401645  0.7690618220134443  0.3593809264567826  1.0000
  H   H473      1.0  0.36116713198737704  0.7366644173487686  0.3947770680563918  1.0000
  H   H474      1.0  0.438765858803232  0.7181242517466454  0.36408334918456775  1.0000
  H   H475      1.0  0.4278786965196931  0.7286340724818112  0.4113540074311901  1.0000
  H   H476      1.0  0.4610803338144754  0.7542584273944491  0.3872194810697131  1.0000
  N   N30       1.0  0.3409952526185354  0.994712990733339  0.37276100459470723  1.0000
  C   C309      1.0  0.3448114747566166  0.9712198075477314  0.3395421975837062  1.0000
  C   C310      1.0  0.37780264668264546  0.006166735212380204  0.38361172772429  1.0000
  C   C311      1.0  0.32504160448029984  0.9736489102185331  0.4035962672897539  1.0000
  C   C312      1.0  0.3164650698987835  0.027790251639135732  0.36421195457178507  1.0000
  H   H477      1.0  0.3563235823659607  0.9862518094440592  0.31546618728208986  1.0000
  H   H478      1.0  0.31759301660622297  0.9621408021503387  0.3306950646313994  1.0000
  H   H479      1.0  0.3628572576608747  0.9458164956814393  0.344914008373166  1.0000
  H   H480      1.0  0.39700242830280996  0.9818705292398646  0.39024726021103084  1.0000
  H   H481      1.0  0.39059922419577214  0.0220191718088163  0.3608440819364329  1.0000
  H   H482      1.0  0.3759782295521157  0.024036659130730165  0.40856050159808144  1.0000
  H   H483      1.0  0.297206412878081  0.9646114158676515  0.3964245764710675  1.0000
  H   H484      1.0  0.32195021665807155  0.9902901292716768  0.4292937258694276  1.0000
  H   H485      1.0  0.34244261538041015  0.9480748174213736  0.41025692763730975  1.0000
  H   H486      1.0  0.31288520982182133  0.046259896148390434  0.38856831432833616  1.0000
  H   H487      1.0  0.28847815997505477  0.0202600384310494  0.3556767479831488  1.0000
  H   H488      1.0  0.3274837584755991  0.0440782459266853  0.3407395550204615  1.0000
  N   N31       1.0  0.3720071557879861  0.439174462433544  0.5783009746195421  1.0000
  C   C313      1.0  0.358861002065215  0.46429882161942965  0.6082925647781356  1.0000
  C   C314      1.0  0.37814685959203587  0.40125981357150775  0.5932074359223128  1.0000
  C   C315      1.0  0.4070708786846259  0.45155489174605445  0.5630049743101537  1.0000
  C   C316      1.0  0.3440045311217947  0.43957673739368996  0.54853285617232  1.0000
  H   H489      1.0  0.3540789193622291  0.4931787047423029  0.5977957425283941  1.0000
  H   H490      1.0  0.379314081488553  0.46457064478911764  0.6313116058620417  1.0000
  H   H491      1.0  0.33232056520810294  0.45596132313967486  0.6203986696884497  1.0000
  H   H492      1.0  0.40017927595292363  0.3995018020591946  0.614718867430497  1.0000
  H   H493      1.0  0.3525856151528852  0.39138549227469016  0.6060676758195642  1.0000
  H   H494      1.0  0.3868183963146207  0.3815219203643647  0.5708276538883453  1.0000
  H   H495      1.0  0.41797170074956  0.43289681606161007  0.5407127593132379  1.0000
  H   H496      1.0  0.4288486922867918  0.45183508234906616  0.5847450454592997  1.0000
  H   H497      1.0  0.4033237855622874  0.479804814085025  0.5508367254487716  1.0000
  H   H498      1.0  0.33749495132982243  0.4679519227693428  0.537775080256509  1.0000
  H   H499      1.0  0.317589093863612  0.4289893457857328  0.5585953061100821  1.0000
  H   H500      1.0  0.3537345048184386  0.4223367155576559  0.5245329118926774  1.0000
  N   N32       1.0  0.41705637713018046  0.8495966988985918  0.8966003383760249  1.0000
  C   C317      1.0  0.3933225383739005  0.8408538398682002  0.8651099247695035  1.0000
  C   C318      1.0  0.39409836075197935  0.8539862993315809  0.9304955134097014  1.0000
  C   C319      1.0  0.4349338718320853  0.8841728537034936  0.8883786400760615  1.0000
  C   C320      1.0  0.44570045131650105  0.8192313735684346  0.9021800095857722  1.0000
  H   H501      1.0  0.37931885593704306  0.8150467657536884  0.87067233156978  1.0000
  H   H502      1.0  0.4096053451614732  0.8369149617908904  0.8389912752142877  1.0000
  H   H503      1.0  0.37136200737637626  0.8631151604689236  0.8598885501086921  1.0000
  H   H504      1.0  0.37176827124012035  0.8762765408316061  0.9269551763638916  1.0000
  H   H505      1.0  0.3803066897286635  0.8281788202021334  0.9373125829165067  1.0000
  H   H506      1.0  0.4109036216666043  0.8608385270777231  0.954950763083457  1.0000
  H   H507      1.0  0.4531675901949466  0.8916638473246202  0.9115278972962159  1.0000
  H   H508      1.0  0.41400107983401835  0.9075713926711091  0.8838599655054408  1.0000
  H   H509      1.0  0.4522569821267176  0.8815283160659472  0.8627647987286292  1.0000
  H   H510      1.0  0.4644872194626097  0.8249512543170754  0.9254695521019857  1.0000
  H   H511      1.0  0.46305150867492995  0.8147267182982211  0.8768010700971212  1.0000
  H   H512      1.0  0.4330788014236967  0.7927677457005674  0.9086005493761026  1.0000
