data_image0
_chemical_formula_structural       FeS2FeS2FeSFeS3FeS2FeS2FeSFeS3FeS2FeS2FeSFeS3FeS2FeS2FeSFeS3FeS2FeS2FeSFeS3FeS2FeS2FeSFeS3FeS2FeS2FeSFeS3FeS2FeS2FeSFeS3FeS2FeS2FeSFeS3FeS2FeS2FeSFeS3FeS2FeS2FeSFeS3FeS2FeS2FeSFeS3FeS2FeS2FeSFeS3FeS2FeS2FeSFeS3FeS2FeS2FeSFeS3FeS2FeS2FeSFeS3C6H4C6H4C6H4C6H4C6H4C6H4C6H4C6H4C6H4C6H4C6H4C6H4C6H4C6H4C6H4C6H4C6H4C6H4C6H4C6H4C6H4C6H4C6H4C6H4C6H4C6H4C6H4C6H4C6H4C6H4C6H4C6H4NC4H12NC4H12NC4H12NC4H12NC4H12NC4H12NC4H12NC4H12NC4H12NC4H12NC4H12NC4H12NC4H12NC4H12NC4H12NC4H12NC4H12NC4H12NC4H12NC4H12NC4H12NC4H12NC4H12NC4H12NC4H12NC4H12NC4H12NC4H12NC4H12NC4H12NC4H12NC4H12
_chemical_formula_sum              "Fe64 S128 C320 H512 N32"
_cell_length_a       37.49921332269263
_cell_length_b       28.50269370810233
_cell_length_c       34.29108193102959
_cell_angle_alpha    90.06374873372722
_cell_angle_beta     90.34147740525131
_cell_angle_gamma    89.49475491896206

_space_group_name_H-M_alt    "P 1"
_space_group_IT_number       1

loop_
  _space_group_symop_operation_xyz
  'x, y, z'

loop_
  _atom_site_type_symbol
  _atom_site_label
  _atom_site_symmetry_multiplicity
  _atom_site_fract_x
  _atom_site_fract_y
  _atom_site_fract_z
  _atom_site_occupancy
  Fe  Fe1       1.0  0.4366657704323664  0.9355030656461646  0.5007497326833411  1.0000
  S   S1        1.0  0.427566937609905  0.9910110123073413  0.4553726858705016  1.0000
  S   S2        1.0  0.4035279990052636  0.8704375308267402  0.49774434811809615  1.0000
  Fe  Fe2       1.0  0.4921101887761397  0.9919900197988644  0.5440720335929231  1.0000
  S   S3        1.0  0.4880185592645829  0.05247652790125357  0.5026596473383265  1.0000
  S   S4        1.0  0.5286193075362691  0.0006576651994809612  0.5954957806083007  1.0000
  Fe  Fe3       1.0  0.4291802231542338  0.04080166524277362  0.505760083390719  1.0000
  S   S5        1.0  0.3918412030179678  0.10201267990272034  0.5123865867228088  1.0000
  Fe  Fe4       1.0  0.4870975282685677  0.997230290199292  0.4563230891887566  1.0000
  S   S6        1.0  0.5194851413570136  0.004277153914173271  0.40191356026542746  1.0000
  S   S7        1.0  0.43319693941345533  0.985065968872673  0.5514258813145924  1.0000
  S   S8        1.0  0.49635469073326655  0.937040793854939  0.4973823578914619  1.0000
  Fe  Fe5       1.0  0.23123216770352192  0.8882874165118997  0.6408303100324027  1.0000
  S   S9        1.0  0.18804931257958235  0.8358759260683869  0.651551113898482  1.0000
  S   S10       1.0  0.2246020331320183  0.9650233401208871  0.6291014915781072  1.0000
  Fe  Fe6       1.0  0.29053749326369677  0.819773654875062  0.6605779397439829  1.0000
  S   S11       1.0  0.2532001025012211  0.7612166673529986  0.6744173063432158  1.0000
  S   S12       1.0  0.35014642399522933  0.8186158199753941  0.6655215093677271  1.0000
  Fe  Fe7       1.0  0.22449034724599806  0.7855645767317263  0.6203414260681096  1.0000
  S   S13       1.0  0.20428884338981193  0.7341841992473535  0.5759555143243034  1.0000
  Fe  Fe8       1.0  0.22024885723581675  0.8164056343625979  0.7043075923934166  1.0000
  S   S14       1.0  0.19648554047939  0.8120978168647537  0.7640394020314003  1.0000
  S   S15       1.0  0.2643293576639548  0.8402702728064599  0.6042075457458309  1.0000
  S   S16       1.0  0.26068441944021303  0.8726061204039847  0.696053509042577  1.0000
  Fe  Fe9       1.0  0.29031062469424307  0.5102214735994604  0.5175956003975818  1.0000
  S   S17       1.0  0.26340119864069833  0.44032176559395636  0.5161822564243177  1.0000
  S   S18       1.0  0.3020974975098746  0.5527003792457235  0.571194109089976  1.0000
  Fe  Fe10      1.0  0.3013012467683662  0.5124171356873235  0.4304017926129723  1.0000
  S   S19       1.0  0.2759442427543026  0.4425423695049468  0.42064719934636735  1.0000
  S   S20       1.0  0.3182397415508205  0.5605083081312371  0.38241848725033256  1.0000
  Fe  Fe11      1.0  0.23509495342035583  0.4683739263591467  0.4631716007848393  1.0000
  S   S21       1.0  0.17727735732632832  0.4576314851726851  0.449172761643171  1.0000
  Fe  Fe12      1.0  0.3065664860262186  0.42036770583329985  0.4740096359878493  1.0000
  S   S22       1.0  0.3313787684989773  0.34845239386789284  0.4789710298704613  1.0000
  S   S23       1.0  0.2579817741874141  0.5402677886629598  0.468691626132448  1.0000
  S   S24       1.0  0.3361304166452899  0.48823035741083304  0.47986605315913733  1.0000
  Fe  Fe13      1.0  0.47513355055061945  0.28868879247351414  0.7327929715251281  1.0000
  S   S25       1.0  0.42350012441560714  0.26190855560186527  0.755601500065561  1.0000
  S   S26       1.0  0.5251102625776664  0.284613562886971  0.7685449652290688  1.0000
  Fe  Fe14      1.0  0.44436184644874344  0.31301581492307246  0.6535848475773933  1.0000
  S   S27       1.0  0.38954402279506867  0.2884665508397766  0.6689322959957512  1.0000
  S   S28       1.0  0.46028599074877313  0.34736022949906503  0.5977236708991209  1.0000
  Fe  Fe15      1.0  0.39928204883184415  0.3248188739752814  0.7258537965504249  1.0000
  S   S29       1.0  0.35998510906326053  0.3756931970864383  0.7516472681881319  1.0000
  Fe  Fe16      1.0  0.41858022646940457  0.2279972109595856  0.6968990180620235  1.0000
  S   S30       1.0  0.4027130472973505  0.1528716550293896  0.6907162833695697  1.0000
  S   S31       1.0  0.45173517785908385  0.3547208603334935  0.7081652766826207  1.0000
  S   S32       1.0  0.4726582318536546  0.24933335785852043  0.6764251940531661  1.0000
  Fe  Fe17      1.0  0.1828720192670572  0.6680765953993183  0.25382218237392296  1.0000
  S   S33       1.0  0.17030664470818102  0.6133327186946985  0.20916217341660318  1.0000
  S   S34       1.0  0.17537153154256768  0.648202872638729  0.3164841665376139  1.0000
  Fe  Fe18      1.0  0.19976022175808184  0.740606410289048  0.1922792550979058  1.0000
  S   S35       1.0  0.18926087985954196  0.6914163326969277  0.14251249800346028  1.0000
  S   S36       1.0  0.21014958166068354  0.8158867158978714  0.17801439485411197  1.0000
  Fe  Fe19      1.0  0.14138307144393794  0.6713783907951251  0.17763377440774147  1.0000
  S   S37       1.0  0.08650585796386823  0.6712985605079582  0.15038739890023053  1.0000
  Fe  Fe20      1.0  0.21927193085846944  0.6388618548482271  0.1790721524908982  1.0000
  S   S38       1.0  0.2603312100802379  0.5838018554422453  0.16460346934000172  1.0000
  S   S39       1.0  0.1499799497100422  0.7239188077021806  0.22504289737910063  1.0000
  S   S40       1.0  0.23406174098588334  0.6900844805895124  0.22611232349731672  1.0000
  Fe  Fe21      1.0  0.3667799809505756  0.4993427734026857  0.9980435490601761  1.0000
  S   S41       1.0  0.34652403926060354  0.4292600689136981  0.017312522532172858  1.0000
  S   S42       1.0  0.3290857743065667  0.5613687814943292  0.997690742873006  1.0000
  Fe  Fe22      1.0  0.44190776531629405  0.4622484799000549  0.9836740398764106  1.0000
  S   S43       1.0  0.4273477705432191  0.38975204030529353  0.001794727780746852  1.0000
  S   S44       1.0  0.49782621735041255  0.480356891527533  0.9650956681292154  1.0000
  Fe  Fe23      1.0  0.37773469699818235  0.40113892237284027  0.9668404505153437  1.0000
  S   S45       1.0  0.36254231889717775  0.33745183188681205  0.9322590673584433  1.0000
  Fe  Fe24      1.0  0.39797163087246906  0.4248533582383519  0.0505787535937714  1.0000
  S   S46       1.0  0.3987061613858034  0.3978227827823242  0.11214607018620315  1.0000
  S   S47       1.0  0.3942276825153336  0.47162518534291303  0.9444045845016324  1.0000
  S   S48       1.0  0.4161739637991954  0.4970904668998665  0.03530404298629941  1.0000
  Fe  Fe25      1.0  0.46827837475133777  0.14595481498282514  0.22945729448448715  1.0000
  S   S49       1.0  0.458691024324483  0.07778831864109659  0.1985738548123245  1.0000
  S   S50       1.0  0.45310083431896264  0.15918037811790975  0.29172838418277713  1.0000
  Fe  Fe26      1.0  0.5010261943552117  0.19151759388296585  0.15856215006648525  1.0000
  S   S51       1.0  0.4941295286555095  0.1277686490476262  0.12103099480590725  1.0000
  S   S52       1.0  0.5259637164673596  0.2555017180829948  0.1324785888577306  1.0000
  Fe  Fe27      1.0  0.4402286973192325  0.12290391153514868  0.14866265155004557  1.0000
  S   S53       1.0  0.38716779029472587  0.1122372535507965  0.11923934022177379  1.0000
  Fe  Fe28      1.0  0.5133794366741774  0.0886510378337142  0.1739497159213406  1.0000
  S   S54       1.0  0.5542491446698602  0.030616568994446425  0.17020723694455792  1.0000
  S   S55       1.0  0.4452591566931565  0.19023962435425923  0.1815836163828199  1.0000
  S   S56       1.0  0.5246758108119036  0.15309207856832852  0.20951126294481023  1.0000
  Fe  Fe29      1.0  0.26731283141857987  0.9239616633798565  0.952118343429476  1.0000
  S   S57       1.0  0.2824542610204424  0.8481790997857772  0.9593077577873504  1.0000
  S   S58       1.0  0.21018694096757254  0.9434723451797707  0.9393096952342729  1.0000
  Fe  Fe30      1.0  0.34371363135748  0.9562778207088043  0.9557977126977774  1.0000
  S   S59       1.0  0.3655012914728228  0.8832266706538923  0.9617791962096773  1.0000
  S   S60       1.0  0.38417916966754706  0.013687478691965405  0.9545662118128778  1.0000
  Fe  Fe31      1.0  0.3250965125467234  0.8644611853075598  0.916564398929057  1.0000
  S   S61       1.0  0.3346509806035498  0.8133357898107869  0.8684050878829022  1.0000
  Fe  Fe32      1.0  0.3211565195620693  0.8736341380972876  0.004137670747055289  1.0000
  S   S62       1.0  0.33478495016500565  0.8296824495771034  0.056321265976392754  1.0000
  S   S63       1.0  0.30756498818375566  0.9385005114502954  0.9056694389543206  1.0000
  S   S64       1.0  0.3018777058145887  0.9483611856334346  0.001944004672269184  1.0000
  Fe  Fe33      1.0  0.7141383054258473  0.9653489109263704  0.5404512358447476  1.0000
  S   S65       1.0  0.6954334554333698  0.03962623630493489  0.5321724241628135  1.0000
  S   S66       1.0  0.675786925749517  0.9071018994781438  0.5518664312811326  1.0000
  Fe  Fe34      1.0  0.791511551412241  0.9894304382773011  0.5247043786287858  1.0000
  S   S67       1.0  0.7792347358993317  0.06547996624729646  0.5142904564236667  1.0000
  S   S68       1.0  0.8480795303857939  0.9629927310169707  0.521117002559543  1.0000
  Fe  Fe35      1.0  0.7442752696790781  0.05802701303172708  0.566736727530161  1.0000
  S   S69       1.0  0.7468390655586009  0.1078711740730216  0.6172158003045035  1.0000
  Fe  Fe36      1.0  0.7318249027482423  0.039085538090333216  0.4805727150378895  1.0000
  S   S70       1.0  0.7101425132633209  0.06075342716735066  0.4218384102761127  1.0000
  S   S71       1.0  0.7597630455829257  0.9834468120649736  0.5795777959251541  1.0000
  S   S72       1.0  0.7473482496261602  0.9633545736968974  0.4863612235828755  1.0000
  Fe  Fe37      1.0  0.9735680087970519  0.9797473406756709  0.6885759042248462  1.0000
  S   S73       1.0  0.9663778305183608  0.9025480586743121  0.6802678148394978  1.0000
  S   S74       1.0  0.9275542009038097  0.02788801195083157  0.6744292292374939  1.0000
  Fe  Fe38      1.0  0.048707301418547067  0.9681460598596132  0.7197889905192405  1.0000
  S   S75       1.0  0.04799252162740952  0.8898069502309714  0.7141712098787576  1.0000
  S   S76       1.0  0.09724333629986481  0.004887691240107017  0.7428457799990502  1.0000
  Fe  Fe39      1.0  0.02184322136459471  0.9037702259258161  0.6565800876557568  1.0000
  S   S77       1.0  0.0359625724007977  0.8631793715326139  0.6028029839809932  1.0000
  Fe  Fe40      1.0  0.992893597275188  0.8956708314964483  0.7386099867601722  1.0000
  S   S78       1.0  0.976091735997384  0.839539148692617  0.7805232232631912  1.0000
  S   S79       1.0  0.026978383412987972  0.9819596651727301  0.6597062760602495  1.0000
  S   S80       1.0  0.9956899235581932  0.9732022138846214  0.7493645387078889  1.0000
  Fe  Fe41      1.0  0.020345192718794092  0.5776434630532663  0.5392971676655656  1.0000
  S   S81       1.0  0.00586019590392195  0.6490899177869469  0.5170625332278985  1.0000
  S   S82       1.0  0.07604426171318357  0.5695970113750219  0.5631174351712508  1.0000
  Fe  Fe42      1.0  0.9465615776738364  0.539290027245948  0.5230873562076708  1.0000
  S   S83       1.0  0.9255712623460517  0.6070362509600129  0.4984590318091135  1.0000
  S   S84       1.0  0.9125733373927869  0.47517797046955096  0.5267962143284473  1.0000
  Fe  Fe43      1.0  0.9785648031438628  0.6106927099335594  0.4686117156705981  1.0000
  S   S85       1.0  0.9892601812979526  0.6288034694920319  0.40625189293679276  1.0000
  Fe  Fe44      1.0  0.9546148235366407  0.639001230390292  0.549153795041814  1.0000
  S   S86       1.0  0.9309383705144217  0.693251488547793  0.5887121585199453  1.0000
  S   S87       1.0  0.9967739117738125  0.5395867104600455  0.4881769209140257  1.0000
  S   S88       1.0  0.9715949140260101  0.5709331765163445  0.5762472733460066  1.0000
  Fe  Fe45      1.0  0.7444464079766027  0.4535084435166124  0.6442566853623777  1.0000
  S   S89       1.0  0.7659237483093887  0.38006426825875395  0.6388093185749667  1.0000
  S   S90       1.0  0.7735321610241175  0.5174300227790118  0.6237198149462323  1.0000
  Fe  Fe46      1.0  0.6797363505569518  0.42254888880656394  0.6906371973428082  1.0000
  S   S91       1.0  0.6963261553443321  0.34707562074233217  0.6892183809735667  1.0000
  S   S92       1.0  0.6291532951077174  0.4465393201593897  0.7196573084552349  1.0000
  Fe  Fe47      1.0  0.7511683310747822  0.37404706132785914  0.7017047324776009  1.0000
  S   S93       1.0  0.788171236480335  0.3395500923392305  0.744887855052027  1.0000
  Fe  Fe48      1.0  0.7090717760231542  0.36114929971349025  0.6266792520825496  1.0000
  S   S94       1.0  0.6919347380373022  0.31255650524733886  0.5788230689676372  1.0000
  S   S95       1.0  0.73349338803732  0.44877210929749695  0.708308863301352  1.0000
  S   S96       1.0  0.688580550803649  0.4352178296364636  0.6269212847579627  1.0000
  Fe  Fe49      1.0  0.8718539411721562  0.4530244670731573  0.19566383948517535  1.0000
  S   S97       1.0  0.8379129707712635  0.5180521988178866  0.19984565262780493  1.0000
  S   S98       1.0  0.8516346309215527  0.3803498042384733  0.18414115523361457  1.0000
  Fe  Fe50      1.0  0.9404226599958891  0.5061127035976719  0.20538507849109622  1.0000
  S   S99       1.0  0.912989833491473  0.5758285039912898  0.20988295854523703  1.0000
  S   S100      1.0  0.9992531872741621  0.4999395038844278  0.21446920233890912  1.0000
  Fe  Fe51      1.0  0.8748887996089807  0.5382403079881872  0.2484269222972337  1.0000
  S   S101      1.0  0.8563466180539488  0.5730927136327705  0.3033476371357533  1.0000
  Fe  Fe52      1.0  0.8788415007597731  0.5496864501126558  0.16093180360428713  1.0000
  S   S102      1.0  0.8602340008038926  0.5977694639538262  0.11315263332017989  1.0000
  S   S103      1.0  0.9050659842195825  0.4701282333785379  0.24817804530418935  1.0000
  S   S104      1.0  0.9099905363147975  0.4830668999633781  0.15237775873039733  1.0000
  Fe  Fe53      1.0  0.7152241104875056  0.36567962187557984  0.03232726171702649  1.0000
  S   S105      1.0  0.76690054177351  0.3491537611128199  0.0023989460641304916  1.0000
  S   S106      1.0  0.7083384298860754  0.40060258757889877  0.09008252580572873  1.0000
  Fe  Fe54      1.0  0.6692244295350004  0.33251728136402786  0.9658100747280228  1.0000
  S   S107      1.0  0.7159970562064589  0.31228327048470056  0.9290365632864207  1.0000
  S   S108      1.0  0.6126762255315434  0.31804925179733107  0.948111558375748  1.0000
  Fe  Fe55      1.0  0.7393066746364285  0.2828722200240476  0.9843151780723272  1.0000
  S   S109      1.0  0.7635720637098541  0.210694515488872  0.9823151038030925  1.0000
  Fe  Fe56      1.0  0.7399816054429861  0.37977068660207464  0.9497625615002705  1.0000
  S   S110      1.0  0.7671173790512039  0.4314558541368093  0.9109399552620261  1.0000
  S   S111      1.0  0.6900651495518673  0.29658941812390455  0.019380591771593236  1.0000
  S   S112      1.0  0.690813081116582  0.4029400892192302  0.9813878794576945  1.0000
  Fe  Fe57      1.0  0.816753653972297  0.06695141789983872  0.237870856936682  1.0000
  S   S113      1.0  0.7715313305845711  0.022073672094858443  0.21681940421405688  1.0000
  S   S114      1.0  0.8348546130094292  0.07541240110219993  0.3000298169441189  1.0000
  Fe  Fe58      1.0  0.8320214466201521  0.10525864442296684  0.157128408769543  1.0000
  S   S115      1.0  0.7882810278061857  0.06435037368999086  0.12915387678701745  1.0000
  S   S116      1.0  0.8643348147042954  0.15625753157951272  0.12311408874393866  1.0000
  Fe  Fe59      1.0  0.7559422412296294  0.08524204785912848  0.18119981320965128  1.0000
  S   S117      1.0  0.7046132990814122  0.12602312811695326  0.17622943620747616  1.0000
  Fe  Fe60      1.0  0.8085611102573256  0.005398404432144455  0.1670350244082541  1.0000
  S   S118      1.0  0.8150727451278089  0.934295039839097  0.13915422849794343  1.0000
  S   S119      1.0  0.7984087932735855  0.1310529237574054  0.20620091565414347  1.0000
  S   S120      1.0  0.8550881314501513  0.045362281835563234  0.19098016697833273  1.0000
  Fe  Fe61      1.0  0.054868487329393645  0.8142288422566489  0.030462641268280022  1.0000
  S   S121      1.0  0.024656583514885977  0.7928437368145478  0.9771835797921234  1.0000
  S   S122      1.0  0.11394023860772196  0.8062934663246097  0.03595682269347078  1.0000
  Fe  Fe62      1.0  0.9878891305417112  0.8274140147562484  0.07942772232958561  1.0000
  S   S123      1.0  0.9515657434770197  0.8056291048154713  0.030681857636538634  1.0000
  S   S124      1.0  0.9715104232453489  0.8493980944766837  0.13965894126563416  1.0000
  Fe  Fe63      1.0  0.9927213312469294  0.7497787346978092  0.01879364367658276  1.0000
  S   S125      1.0  0.987192770807627  0.6722606827637626  0.011454704119636228  1.0000
  Fe  Fe64      1.0  0.9868021018498228  0.850956259810159  0.9942214336990223  1.0000
  S   S126      1.0  0.9642044697284528  0.9067148298643265  0.9551632089071864  1.0000
  S   S127      1.0  0.02558035617675425  0.7674054546454677  0.07111311971087853  1.0000
  S   S128      1.0  0.020496185695988434  0.8766957366711837  0.04387983577330723  1.0000
  C   C1        1.0  0.8578798443489505  0.9086853605577192  0.14182863902522044  1.0000
  C   C2        1.0  0.883347077069226  0.9242977964087538  0.16874087427229773  1.0000
  C   C3        1.0  0.9180665890350261  0.9053837090726008  0.16846811680098828  1.0000
  C   C4        1.0  0.9275311430588098  0.8711871318206011  0.14099091052022006  1.0000
  C   C5        1.0  0.9017758630521785  0.8545727891835785  0.11489290016457981  1.0000
  C   C6        1.0  0.8670271148607481  0.8731442412380473  0.11540607320389179  1.0000
  H   H1        1.0  0.8762401222347838  0.9505010943884398  0.1900925906586237  1.0000
  H   H2        1.0  0.9377068974321912  0.9178393527789764  0.18918678124709687  1.0000
  H   H3        1.0  0.908345060421289  0.8269743884050046  0.09460543130163271  1.0000
  H   H4        1.0  0.8472841924961021  0.8603801431247404  0.09491700494233629  1.0000
  C   C7        1.0  0.7939764748374109  0.19732340568431916  0.019788294207115698  1.0000
  C   C8        1.0  0.8048451513112332  0.2314887127623432  0.046553482343150154  1.0000
  C   C9        1.0  0.827701512140381  0.21920274905235315  0.07753559841495239  1.0000
  C   C10       1.0  0.8387653932027324  0.1725462624528047  0.08237958267436406  1.0000
  C   C11       1.0  0.8278014765804794  0.13838522943671672  0.05571347413415828  1.0000
  C   C12       1.0  0.8059522423041529  0.1509204226138143  0.024061500141072223  1.0000
  H   H5        1.0  0.7956295216940246  0.26727219986617884  0.04351055004950344  1.0000
  H   H6        1.0  0.8361032136134445  0.24558268046481357  0.09821775853773373  1.0000
  H   H7        1.0  0.8362446755296788  0.10231548591620832  0.05949530608381837  1.0000
  H   H8        1.0  0.7976856429099478  0.12446030596879121  0.003342813711263437  1.0000
  C   C13       1.0  0.9520276145003327  0.6517025717020218  0.039856544464041965  1.0000
  C   C14       1.0  0.9559252910943485  0.6096334752527826  0.06054112778276388  1.0000
  C   C15       1.0  0.9279370430786729  0.5932396638141225  0.08363109255068267  1.0000
  C   C16       1.0  0.8956680467752158  0.6181307964312363  0.0849902866586126  1.0000
  C   C17       1.0  0.891772776524494  0.6601491293059214  0.06429210463347101  1.0000
  C   C18       1.0  0.9201377976870844  0.6773055222349924  0.04219314497955673  1.0000
  H   H9        1.0  0.980685594227636  0.5899468501160866  0.05905862766797454  1.0000
  H   H10       1.0  0.931213658397796  0.5609865088545054  0.09983080130227019  1.0000
  H   H11       1.0  0.8668653664039152  0.679568038504377  0.0654599259874753  1.0000
  H   H12       1.0  0.9169365908013256  0.7096122957353486  0.025992918058822312  1.0000
  C   C19       1.0  0.8098778087189387  0.3825451029868081  0.16122481989237003  1.0000
  C   C20       1.0  0.8014677597480854  0.34969104327773093  0.13231634707818077  1.0000
  C   C21       1.0  0.769361915214924  0.3538160243791114  0.11140421397383492  1.0000
  C   C22       1.0  0.7457530441797291  0.3907523036158928  0.11956730452796815  1.0000
  C   C23       1.0  0.753269306452049  0.42198285962184373  0.14988623402511703  1.0000
  C   C24       1.0  0.7854205250855664  0.41798169153962306  0.17059060844613239  1.0000
  H   H13       1.0  0.8203131219420745  0.32216047778720514  0.12508534300133156  1.0000
  H   H14       1.0  0.7632868383061726  0.3290534879711944  0.08846048529191237  1.0000
  H   H15       1.0  0.7347686535864913  0.45017137229658405  0.15661016750001377  1.0000
  H   H16       1.0  0.7911143403832803  0.44215735892656444  0.1939917931382047  1.0000
  C   C25       1.0  0.7845079226129895  0.36548378818093263  0.7912082380443684  1.0000
  C   C26       1.0  0.7847701620352922  0.3372660167556001  0.8245714730884413  1.0000
  C   C27       1.0  0.7801122111609633  0.3575059376252849  0.8615417981509739  1.0000
  C   C28       1.0  0.7758371660714047  0.40610095224606124  0.8652924997493061  1.0000
  C   C29       1.0  0.7769647861873303  0.434517684733904  0.8320936918649204  1.0000
  C   C30       1.0  0.7809702163636641  0.41418455690626194  0.7950882965327082  1.0000
  H   H17       1.0  0.7879143255861706  0.29962603295661916  0.8218193916697508  1.0000
  H   H18       1.0  0.7803244637288635  0.3354542290307367  0.887160969688843  1.0000
  H   H19       1.0  0.7739684520633285  0.4721633381037879  0.8349193004232449  1.0000
  H   H20       1.0  0.7817256469273786  0.43630575699147595  0.7696774071442525  1.0000
  C   C31       1.0  0.9523285589532642  0.6156495172069084  0.3769436289186896  1.0000
  C   C32       1.0  0.9573863232111871  0.592541615116338  0.3413820711526378  1.0000
  C   C33       1.0  0.9279115491673487  0.5796711516012615  0.3185988668642996  1.0000
  C   C34       1.0  0.8933751493420456  0.5911194155462856  0.33077287278053236  1.0000
  C   C35       1.0  0.8883701838943661  0.6156030994872709  0.3657806206044821  1.0000
  C   C36       1.0  0.917823937669309  0.6272339866577344  0.38917534821833355  1.0000
  H   H21       1.0  0.9840303888065328  0.5834083804366061  0.3318814235224293  1.0000
  H   H22       1.0  0.9320489442867904  0.560303289326093  0.291892376286521  1.0000
  H   H23       1.0  0.8617317418539582  0.6251264148755119  0.3749884474224167  1.0000
  H   H24       1.0  0.9139235972507633  0.6458204245390795  0.4163461939904632  1.0000
  C   C37       1.0  0.8733649364884444  0.48739069008154207  0.5525329838347864  1.0000
  C   C38       1.0  0.8479786466488449  0.45224680012252266  0.5574214781229883  1.0000
  C   C39       1.0  0.816506569632087  0.4617546490006218  0.5779487674071021  1.0000
  C   C40       1.0  0.8105407818272288  0.5062389159004679  0.5939817119010973  1.0000
  C   C41       1.0  0.8354257850828833  0.5417917010575852  0.5879696177203538  1.0000
  C   C42       1.0  0.8669163301851732  0.532325690353733  0.5674656346692244  1.0000
  H   H25       1.0  0.8526626095606359  0.4176177575606158  0.5454255675428443  1.0000
  H   H26       1.0  0.7968288539527829  0.43472087136236576  0.5811103101542515  1.0000
  H   H27       1.0  0.8307931201740898  0.5764107753734496  0.6000478991621779  1.0000
  H   H28       1.0  0.8863377227160097  0.5597347554067225  0.5636999685895294  1.0000
  C   C43       1.0  0.9691062696545146  0.8585165659625389  0.8285749152581439  1.0000
  C   C44       1.0  0.9658198669248835  0.9062380672672292  0.8374628383453999  1.0000
  C   C45       1.0  0.9633856075049446  0.920916237195154  0.8764107157190306  1.0000
  C   C46       1.0  0.9645328957330925  0.8878749753167522  0.9065337175292383  1.0000
  C   C47       1.0  0.9668501530525643  0.8400587558260947  0.8976456625131486  1.0000
  C   C48       1.0  0.9687725471998838  0.8253929290888457  0.8586716222202413  1.0000
  H   H29       1.0  0.9649855401939158  0.9318858833520587  0.8144332241535567  1.0000
  H   H30       1.0  0.9612183338352861  0.9579180107305589  0.8831694412417451  1.0000
  H   H31       1.0  0.9667505812666123  0.8143141112822646  0.9207534018420165  1.0000
  H   H32       1.0  0.970667307883745  0.7883700654369196  0.8518812977006684  1.0000
  C   C49       1.0  0.008017677864063932  0.8147386640170025  0.5991376272862616  1.0000
  C   C50       1.0  0.0007799121816394194  0.795098158936216  0.5625743349741773  1.0000
  C   C51       1.0  0.9772402141667883  0.7573541718103837  0.559341207703717  1.0000
  C   C52       1.0  0.9611898094127971  0.7391613628216285  0.5927233761843775  1.0000
  C   C53       1.0  0.9689256052574903  0.758266578387421  0.6293442390989037  1.0000
  C   C54       1.0  0.9923707387144752  0.7960662048452392  0.6325621967999445  1.0000
  H   H33       1.0  0.012856138378154025  0.80963376164959  0.5367207262586665  1.0000
  H   H34       1.0  0.9709699581186438  0.7429501153339814  0.5309424132080396  1.0000
  H   H35       1.0  0.9569681516869726  0.7436823311935437  0.6552434234671214  1.0000
  H   H36       1.0  0.9985559687478697  0.8105064536938141  0.6609644864225017  1.0000
  C   C55       1.0  0.7442810280292868  0.06921326020734431  0.38788520240027985  1.0000
  C   C56       1.0  0.779259600204148  0.07716849799580672  0.40039560072230884  1.0000
  C   C57       1.0  0.8066567925404345  0.08162785147422968  0.3730391049486093  1.0000
  C   C58       1.0  0.7993485373451775  0.07684833015761505  0.3331739896094815  1.0000
  C   C59       1.0  0.7641828730538289  0.07035446022502856  0.320578502830444  1.0000
  C   C60       1.0  0.7366336535825692  0.06676828365882215  0.3479155950424377  1.0000
  H   H37       1.0  0.7851890194179696  0.08026831958628589  0.43111833008537254  1.0000
  H   H38       1.0  0.8336174334087912  0.08821075968751324  0.38278229220534576  1.0000
  H   H39       1.0  0.7582232182351222  0.06759722341772045  0.28985160963216083  1.0000
  H   H40       1.0  0.7095991390528881  0.06095243931101302  0.33809548865569117  1.0000
  C   C61       1.0  0.7305122898544014  0.1640279616928928  0.6060057525386523  1.0000
  C   C62       1.0  0.715685989580979  0.17413539600760464  0.5693895552297789  1.0000
  C   C63       1.0  0.7035067130769358  0.21982064197557477  0.5610206107771363  1.0000
  C   C64       1.0  0.7069599391834436  0.25543444753371186  0.5889501807473607  1.0000
  C   C65       1.0  0.7222431750306274  0.2452400383979602  0.625241969491418  1.0000
  C   C66       1.0  0.7333423805480377  0.1995058486292507  0.6340089913405756  1.0000
  H   H41       1.0  0.7135489893208732  0.14684281851289716  0.5475882869833338  1.0000
  H   H42       1.0  0.6918470358769151  0.22765536669499717  0.5328129632970181  1.0000
  H   H43       1.0  0.7254368514430463  0.27246935198258415  0.6467367590299548  1.0000
  H   H44       1.0  0.7441299627916066  0.19179325153932014  0.6625528984999177  1.0000
  C   C67       1.0  0.8717949914860966  0.9846603704706497  0.5615350329931208  1.0000
  C   C68       1.0  0.8543258613148338  0.012798615545582592  0.5889334258066805  1.0000
  C   C69       1.0  0.8717554739236942  0.025960742729533193  0.6233565977237772  1.0000
  C   C70       1.0  0.9070017611023848  0.011983795863360402  0.6303392444258598  1.0000
  C   C71       1.0  0.9250366469637249  0.9850382973583086  0.6024231466920793  1.0000
  C   C72       1.0  0.9074603158417409  0.9715960597289055  0.5678739187859798  1.0000
  H   H45       1.0  0.8271749074324102  0.024088675951571936  0.5839844204673896  1.0000
  H   H46       1.0  0.8575187233775498  0.045808168349424916  0.6451027577135616  1.0000
  H   H47       1.0  0.9525023535973102  0.9745830700918078  0.6074527443095679  1.0000
  H   H48       1.0  0.9213913283073004  0.950566423860776  0.5464503025900828  1.0000
  C   C73       1.0  0.18246295555330255  0.9081368377435272  0.9677168016938406  1.0000
  C   C74       1.0  0.19723551731372488  0.8808183688010329  0.9976289140543335  1.0000
  C   C75       1.0  0.17583423379594731  0.8499208993382498  0.018567587343419234  1.0000
  C   C76       1.0  0.13939997717343688  0.8468685175872891  0.010200491964748704  1.0000
  C   C77       1.0  0.12413884504930728  0.8753436082208556  0.9812180707494725  1.0000
  C   C78       1.0  0.1457694619535922  0.9059596144584087  0.9598452867206808  1.0000
  H   H49       1.0  0.22517692559165392  0.8836216336919792  0.004916737439888186  1.0000
  H   H50       1.0  0.18761021395710142  0.8284864160837455  0.041391546833873916  1.0000
  H   H51       1.0  0.09586497641344827  0.8733896255402984  0.9750524230254353  1.0000
  H   H52       1.0  0.13417331618771186  0.9277268176532509  0.9372159533302103  1.0000
  C   C79       1.0  0.5968270350166507  0.054938983939637476  0.16655633628608885  1.0000
  C   C80       1.0  0.6274014133776179  0.02741586322332923  0.1734865945398038  1.0000
  C   C81       1.0  0.6610798039845277  0.048582639306122166  0.17595181300605667  1.0000
  C   C82       1.0  0.6638660237706119  0.09720591123398825  0.17174198091983284  1.0000
  C   C83       1.0  0.6334521132625308  0.12430779873247255  0.16379823918378797  1.0000
  C   C84       1.0  0.6001236714284994  0.10314685296936998  0.16056049873211548  1.0000
  H   H53       1.0  0.6248808470734517  0.9900261454704257  0.17806230999597306  1.0000
  H   H54       1.0  0.6846414326917077  0.02750497357630488  0.18186521927645266  1.0000
  H   H55       1.0  0.635581615460027  0.16193156117950624  0.16033995581407834  1.0000
  H   H56       1.0  0.5768292904878466  0.12439015551435473  0.15415388885766446  1.0000
  C   C85       1.0  0.38712502044626546  0.08686442703121311  0.07268570115142525  1.0000
  C   C86       1.0  0.41886407226180283  0.07780670865781669  0.0527603998688122  1.0000
  C   C87       1.0  0.417845136398222  0.05668836536812183  0.015760716278349962  1.0000
  C   C88       1.0  0.3851544173715015  0.043876404714953354  0.9990713573501362  1.0000
  C   C89       1.0  0.3534496933545867  0.053644221302564965  0.018808100602816902  1.0000
  C   C90       1.0  0.35443179370270245  0.07533258283886268  0.055464232152588666  1.0000
  H   H57       1.0  0.4441748652179884  0.08677736815199188  0.0657862609933868  1.0000
  H   H58       1.0  0.442414676470665  0.049229746281530096  0.00045934421256732527  1.0000
  H   H59       1.0  0.32811131716791353  0.04486893989204033  0.005627120067255964  1.0000
  H   H60       1.0  0.3297859456814339  0.08271229777257294  0.07065409108843457  1.0000
  C   C91       1.0  0.5297334212740354  0.43482560671541615  0.963130562767917  1.0000
  C   C92       1.0  0.5196055015814436  0.3877332769742319  0.9631053864525154  1.0000
  C   C93       1.0  0.5452805938240878  0.3521301796388183  0.9584619036684732  1.0000
  C   C94       1.0  0.5813767324515342  0.36334706072978407  0.9550539762593221  1.0000
  C   C95       1.0  0.5917290864106548  0.4103124443619114  0.9561656853774835  1.0000
  C   C96       1.0  0.5659011025757433  0.4459964780290595  0.9597162905413377  1.0000
  H   H61       1.0  0.4919400692746664  0.378623646346011  0.965443996644157  1.0000
  H   H62       1.0  0.5371434563571246  0.3157885482794603  0.9576089744356371  1.0000
  H   H63       1.0  0.6194381415879153  0.419322721906904  0.9534072811510842  1.0000
  H   H64       1.0  0.5738903919552066  0.48240632615193696  0.9597045554190078  1.0000
  C   C97       1.0  0.4370650832933956  0.3641058205690286  0.1212086552346392  1.0000
  C   C98       1.0  0.464346860900767  0.3622058000007631  0.09369470099116861  1.0000
  C   C99       1.0  0.49185706575502386  0.3290983072616014  0.09741385179491528  1.0000
  C   C100      1.0  0.49328631796873895  0.2995628089515281  0.1298582761695536  1.0000
  C   C101      1.0  0.46759041590006184  0.3040400586942489  0.15904193727042426  1.0000
  C   C102      1.0  0.4391941120772705  0.33593183564046797  0.15450909986630643  1.0000
  H   H65       1.0  0.4640803736375339  0.38588116199594913  0.06930993350091619  1.0000
  H   H66       1.0  0.5112708772184396  0.3255489764403843  0.0745337844117211  1.0000
  H   H67       1.0  0.46948899330491356  0.28285903551931657  0.1850658919743629  1.0000
  H   H68       1.0  0.4185276451768553  0.3380129328404759  0.17634544069840158  1.0000
  C   C103      1.0  0.060836247565019035  0.6255448861927995  0.16932868104930462  1.0000
  C   C104      1.0  0.07325187340207617  0.60007128665282  0.20148158824674367  1.0000
  C   C105      1.0  0.054242771594301464  0.5614127090207144  0.21501916469164797  1.0000
  C   C106      1.0  0.022089235964236398  0.5489242203692093  0.19721837475611528  1.0000
  C   C107      1.0  0.008759793283212414  0.5754241628382364  0.16590888910526572  1.0000
  C   C108      1.0  0.02825384030992484  0.613674608659408  0.15181841967474693  1.0000
  H   H69       1.0  0.09746488431612144  0.6101007864464855  0.21613620657497817  1.0000
  H   H70       1.0  0.06436062463271663  0.5412789624680154  0.2394916833932127  1.0000
  H   H71       1.0  0.9839084435714756  0.5657047213344278  0.15204699688298004  1.0000
  H   H72       1.0  0.01829162145011609  0.6334624221832549  0.12712085126613046  1.0000
  C   C109      1.0  0.24392447029452463  0.8189398385777833  0.14311970913861224  1.0000
  C   C110      1.0  0.24530866510910368  0.8572197128768049  0.11761953810070991  1.0000
  C   C111      1.0  0.27252734362749315  0.8598710336047479  0.08983677959117387  1.0000
  C   C112      1.0  0.29890494912022786  0.8249238967911703  0.08842631193416395  1.0000
  C   C113      1.0  0.2975121625703571  0.7866957708003294  0.1138925871760259  1.0000
  C   C114      1.0  0.269688071531063  0.7832998970504829  0.14080497670025807  1.0000
  H   H73       1.0  0.22520612060947617  0.8846118421039191  0.11915848970227083  1.0000
  H   H74       1.0  0.2734681611465394  0.8894399597334812  0.07016670747703313  1.0000
  H   H75       1.0  0.31791053554243315  0.7596340651964733  0.11287659302134113  1.0000
  H   H76       1.0  0.26868696491940763  0.7536559374068169  0.16043381348392688  1.0000
  C   C115      1.0  0.3086645081475336  0.5669477292919589  0.04350568746841055  1.0000
  C   C116      1.0  0.3217020120765987  0.5410818023636254  0.07515293781155652  1.0000
  C   C117      1.0  0.3064619528031629  0.5466800561227017  0.11204190169014543  1.0000
  C   C118      1.0  0.27820396633903555  0.5783541449153959  0.11762869407405079  1.0000
  C   C119      1.0  0.2648465844907142  0.6042092278169933  0.08600803255558476  1.0000
  C   C120      1.0  0.2799266452313072  0.59818244122211  0.04884076834778561  1.0000
  H   H77       1.0  0.34379624194876035  0.5169362839313671  0.07139069171500778  1.0000
  H   H78       1.0  0.3168999210185699  0.5265739949648851  0.1363520872442326  1.0000
  H   H79       1.0  0.2428618177139151  0.6284524174018359  0.0901841489349513  1.0000
  H   H80       1.0  0.2693096346738201  0.6175500358324558  0.02428777830423523  1.0000
  C   C121      1.0  0.5539441021628305  0.3300255468507187  0.7562867567897961  1.0000
  C   C122      1.0  0.5905026603574272  0.3209302061068298  0.7538076537434125  1.0000
  C   C123      1.0  0.6136907690517087  0.3564041848645334  0.7421564543546875  1.0000
  C   C124      1.0  0.6005425147485591  0.4013848390460106  0.7338618771047029  1.0000
  C   C125      1.0  0.5640728331910575  0.41086904177445216  0.7376764814021332  1.0000
  C   C126      1.0  0.5407335810322661  0.37510285425676104  0.7485106627021906  1.0000
  H   H81       1.0  0.6008471280107933  0.2861768970911544  0.7602150051196969  1.0000
  H   H82       1.0  0.6417480762482425  0.34884400314119257  0.740536820203308  1.0000
  H   H83       1.0  0.553791300028645  0.4457779732670612  0.7317621171040831  1.0000
  H   H84       1.0  0.5126537160127093  0.38271337160944274  0.7513641996410909  1.0000
  C   C127      1.0  0.35480121460302216  0.3645463832825861  0.801565933873246  1.0000
  C   C128      1.0  0.35804406790697235  0.31874695666131553  0.8157960338443397  1.0000
  C   C129      1.0  0.3589161988547001  0.31053466074167146  0.8560756529910156  1.0000
  C   C130      1.0  0.3567368660798114  0.34812256467808206  0.8822518400942466  1.0000
  C   C131      1.0  0.35193595065815714  0.3937686249622979  0.8680741483073859  1.0000
  C   C132      1.0  0.3508813827195125  0.4019769028861054  0.8277153645920627  1.0000
  H   H85       1.0  0.35996654045040527  0.28959174814303884  0.7957591508007484  1.0000
  H   H86       1.0  0.3620967915219359  0.2750977748145953  0.8669340178740421  1.0000
  H   H87       1.0  0.34927125518989754  0.42278885577834113  0.888158920296969  1.0000
  H   H88       1.0  0.34815454135047513  0.43745091310541667  0.816823732815799  1.0000
  C   C133      1.0  0.14953210464001981  0.4863414643669077  0.4826148047759761  1.0000
  C   C134      1.0  0.16384521678752806  0.5163365603574094  0.5107715511041139  1.0000
  C   C135      1.0  0.14121857197033494  0.5414461453876303  0.5358710764406917  1.0000
  C   C136      1.0  0.10419482245264167  0.536403713379028  0.53282598715182  1.0000
  C   C137      1.0  0.09002582628669531  0.505325331257696  0.5053554869642186  1.0000
  C   C138      1.0  0.11263860633316376  0.48041600718410943  0.4802157936546047  1.0000
  H   H89       1.0  0.19232958293894417  0.5201108857469671  0.5130784851296537  1.0000
  H   H90       1.0  0.1524119921026934  0.5649112525345895  0.557441140443251  1.0000
  H   H91       1.0  0.06176514687417245  0.49937809269124434  0.5041496142128604  1.0000
  H   H92       1.0  0.10158566042798824  0.45621437139396775  0.45913468255757106  1.0000
  C   C139      1.0  0.2789008937933488  0.5850133225291851  0.3633748352801787  1.0000
  C   C140      1.0  0.27984935034382513  0.6257475904722688  0.340717793894218  1.0000
  C   C141      1.0  0.24799266443815082  0.6455145699916801  0.3263352549955708  1.0000
  C   C142      1.0  0.2152658277238535  0.624767811977678  0.33494525612367443  1.0000
  C   C143      1.0  0.21445714071057365  0.584003472900086  0.35749075471730996  1.0000
  C   C144      1.0  0.24622325655168173  0.5639283408700887  0.3713073524237752  1.0000
  H   H93       1.0  0.30508625261432604  0.6421043364143286  0.33436575458181295  1.0000
  H   H94       1.0  0.24869093151392713  0.6772894024634262  0.309198838209789  1.0000
  H   H95       1.0  0.18945611182772165  0.5669016670604418  0.3632806634823863  1.0000
  H   H96       1.0  0.2452550872937765  0.5315171351087237  0.3874871308695164  1.0000
  C   C145      1.0  0.3674198568180288  0.34813581335919197  0.5115435225374104  1.0000
  C   C146      1.0  0.37099014942475944  0.31168580790376776  0.5386087952961114  1.0000
  C   C147      1.0  0.3996260921543409  0.3112555137343747  0.5650351001245226  1.0000
  C   C148      1.0  0.42500862893022473  0.3468639937062352  0.5640481657225069  1.0000
  C   C149      1.0  0.4219228349310442  0.3826857918861285  0.5363291848856403  1.0000
  C   C150      1.0  0.39290562352633013  0.38360769801398187  0.51034349454141  1.0000
  H   H97       1.0  0.3513046088085416  0.2841710412878009  0.5395722542547163  1.0000
  H   H98       1.0  0.4023000952798771  0.28298650344439646  0.5857819701952697  1.0000
  H   H99       1.0  0.44161515334736795  0.41018260394372097  0.5353760648341155  1.0000
  H   H100      1.0  0.3905575911579412  0.41138431897440203  0.4890089264498357  1.0000
  C   C151      1.0  0.18716990471219203  0.9814736475512728  0.6562822441950631  1.0000
  C   C152      1.0  0.18872560170350255  0.019399461491014014  0.6821850661587736  1.0000
  C   C153      1.0  0.16040770895824563  0.027918567837546204  0.7079412397340752  1.0000
  C   C154      1.0  0.13060530315751318  0.9986078090742863  0.7075862523599299  1.0000
  C   C155      1.0  0.12848523137016166  0.9622316245377466  0.6803647196414551  1.0000
  C   C156      1.0  0.15679102724156138  0.9535386068776229  0.6549363728069352  1.0000
  H   H101      1.0  0.2121414485013697  0.04127877451544815  0.6830701982486048  1.0000
  H   H102      1.0  0.16159867347077927  0.05707980652184652  0.7280459131001018  1.0000
  H   H103      1.0  0.10537817836359564  0.9400062917061376  0.6792727647443301  1.0000
  H   H104      1.0  0.15502899924926286  0.9250651017088621  0.634196990573238  1.0000
  C   C157      1.0  0.23292313622582883  0.8068258111254273  0.7957755664957317  1.0000
  C   C158      1.0  0.26329870951610906  0.781723568754067  0.7842755964207097  1.0000
  C   C159      1.0  0.29391833948494284  0.7814708109731735  0.8078349407273142  1.0000
  C   C160      1.0  0.29468320272344695  0.8079360179360476  0.8421263544798988  1.0000
  C   C161      1.0  0.26409711892584636  0.8325958441221573  0.8538610832303374  1.0000
  C   C162      1.0  0.23297664743271368  0.8311694476341231  0.8311385521907725  1.0000
  H   H105      1.0  0.2631822319670538  0.7621809279190909  0.7572977819478389  1.0000
  H   H106      1.0  0.3172279474728951  0.7616597002381881  0.7989091147242533  1.0000
  H   H107      1.0  0.26438309996767484  0.8534378930639653  0.8800695219995909  1.0000
  H   H108      1.0  0.20946641805153035  0.8502657317088337  0.8403046115608732  1.0000
  C   C163      1.0  0.23129149294479665  0.6836036887220078  0.5753255687100028  1.0000
  C   C164      1.0  0.21900079780207557  0.6428376146597715  0.5570992017209742  1.0000
  C   C165      1.0  0.24044426204346406  0.6022699891490535  0.5565609021859351  1.0000
  C   C166      1.0  0.2741758709488265  0.6023143739034049  0.5741046746517589  1.0000
  C   C167      1.0  0.2864202459911095  0.6429955572787616  0.5924614331659221  1.0000
  C   C168      1.0  0.2651253685878894  0.6837067580087838  0.5927733124235854  1.0000
  H   H109      1.0  0.19280504236934543  0.6424135711073777  0.5436970726102893  1.0000
  H   H110      1.0  0.23062388309053022  0.570672018872135  0.5432017641996953  1.0000
  H   H111      1.0  0.31264535461690285  0.6433717064024612  0.6058133717288637  1.0000
  H   H112      1.0  0.2753059494558112  0.7153793736730264  0.6058277031966587  1.0000
  C   C169      1.0  0.5694834428876657  0.9721867843918996  0.5871842243714712  1.0000
  C   C170      1.0  0.6013207218769948  0.9950771189724557  0.5962872978394793  1.0000
  C   C171      1.0  0.6341601881651471  0.9742745482183518  0.5868169362190648  1.0000
  C   C172      1.0  0.6352511676701358  0.9302673855863896  0.5687760277446189  1.0000
  C   C173      1.0  0.6034872336903244  0.9061981452541914  0.56169553303181  1.0000
  C   C174      1.0  0.5705536541228494  0.9274598066440107  0.5703589778754569  1.0000
  H   H113      1.0  0.6006748694116806  0.02949589079243542  0.6095687668380887  1.0000
  H   H114      1.0  0.6586643223560955  0.992289838597242  0.5936077400305928  1.0000
  H   H115      1.0  0.6042686357190217  0.8718607527603334  0.5482210538832468  1.0000
  H   H116      1.0  0.5460111896907194  0.9092212772483473  0.5640578654350179  1.0000
  C   C175      1.0  0.5004648214128006  0.046865415704753  0.3713568185282385  1.0000
  C   C176      1.0  0.476307274029888  0.07996077136820023  0.3861224670851735  1.0000
  C   C177      1.0  0.4617923164042051  0.11444310541734981  0.36144322665326273  1.0000
  C   C178      1.0  0.4711855056057452  0.11562167824209912  0.32204227056973256  1.0000
  C   C179      1.0  0.4950657199412373  0.08220624272406862  0.30720366104350555  1.0000
  C   C180      1.0  0.5097790017481958  0.047906919160030315  0.33194608645793977  1.0000
  H   H117      1.0  0.4688584939115653  0.07903168139152128  0.41651541334734316  1.0000
  H   H118      1.0  0.4429685670384755  0.13985739700789712  0.37263675014241665  1.0000
  H   H119      1.0  0.5019470949201487  0.0825910273883399  0.27664016543039205  1.0000
  H   H120      1.0  0.5276104875324051  0.02137135574781035  0.32045090594581566  1.0000
  C   C181      1.0  0.39229720772400956  0.11711529612800842  0.5618691038531987  1.0000
  C   C182      1.0  0.4001567339580591  0.1630017161916113  0.5732893123804749  1.0000
  C   C183      1.0  0.4030829520161293  0.17411868886853707  0.6129765848821913  1.0000
  C   C184      1.0  0.3974400443880741  0.13965998766236765  0.6412327091895947  1.0000
  C   C185      1.0  0.3891374365400319  0.093951836290594  0.6298358750544585  1.0000
  C   C186      1.0  0.3867616920498254  0.08267017439178015  0.5901671128983532  1.0000
  H   H121      1.0  0.40505734153126  0.18964162799111572  0.5516365894195379  1.0000
  H   H122      1.0  0.4101974137504796  0.20918824008868292  0.621635848328807  1.0000
  H   H123      1.0  0.38486692342736006  0.06722568468458379  0.6516468073791309  1.0000
  H   H124      1.0  0.3804638901093007  0.04735976199188929  0.5815409449329416  1.0000
  C   C187      1.0  0.39162292915010105  0.8514785088225567  0.5443711779919445  1.0000
  C   C188      1.0  0.4101945087156254  0.8670814061734162  0.5773575512767937  1.0000
  C   C189      1.0  0.3983656909476303  0.8551232886264163  0.614740975550274  1.0000
  C   C190      1.0  0.3679235336528278  0.8276433413550403  0.6190721369687752  1.0000
  C   C191      1.0  0.35036398320817075  0.810244332068904  0.5860553120582623  1.0000
  C   C192      1.0  0.3621349364905267  0.8222835212419128  0.5487092870061352  1.0000
  H   H125      1.0  0.4337500965953826  0.888225956985214  0.5740963153766031  1.0000
  H   H126      1.0  0.4123441494076527  0.8680383132163015  0.640197899660747  1.0000
  H   H127      1.0  0.3276708609601097  0.7874948300395086  0.5893405808397666  1.0000
  H   H128      1.0  0.34795487014971144  0.8098760555813255  0.5232253140473662  1.0000
  N   N1        1.0  0.38452731642303095  0.24603695507442747  0.06326243473147031  1.0000
  C   C193      1.0  0.3699150371302547  0.2532042943678001  0.10279382831581407  1.0000
  C   C194      1.0  0.4214600369468594  0.2277693355333299  0.06647822472010279  1.0000
  C   C195      1.0  0.38444685991928224  0.2911851859151591  0.04210222065081948  1.0000
  C   C196      1.0  0.3622902307607885  0.21201965222825736  0.0417611747627642  1.0000
  H   H129      1.0  0.3419602126062755  0.2665441948520866  0.10160422973114236  1.0000
  H   H130      1.0  0.38579574084261437  0.2792980193455694  0.1195350057289204  1.0000
  H   H131      1.0  0.37015415183226347  0.2198762865374373  0.11980746011320864  1.0000
  H   H132      1.0  0.4336076097255946  0.22243597801189674  0.037275874878712534  1.0000
  H   H133      1.0  0.43878422422818125  0.25233081236436705  0.08310658354310752  1.0000
  H   H134      1.0  0.4223668143544946  0.19344197329400936  0.08196399760661377  1.0000
  H   H135      1.0  0.39473661761280227  0.28710768226106764  0.011867338686276208  1.0000
  H   H136      1.0  0.40128141269703893  0.3174477512259657  0.05733161219091221  1.0000
  H   H137      1.0  0.3571140546955952  0.3065661666812378  0.03976015357111118  1.0000
  H   H138      1.0  0.37327240272378664  0.20451957609452043  0.012279647339112687  1.0000
  H   H139      1.0  0.3345340479022774  0.225385353598214  0.03776946907392875  1.0000
  H   H140      1.0  0.3607395595223066  0.17810237627141845  0.05761847318770963  1.0000
  N   N2        1.0  0.09359935347172876  0.5804340708199167  0.38628974337714983  1.0000
  C   C197      1.0  0.07957501587703009  0.627095477009856  0.3748550815863322  1.0000
  C   C198      1.0  0.06534605214497557  0.5538395196433413  0.40613921254965785  1.0000
  C   C199      1.0  0.1243205427327676  0.5862241483091417  0.41306110340499497  1.0000
  C   C200      1.0  0.10511073527283599  0.5545947424175562  0.35107010533643423  1.0000
  H   H141      1.0  0.056137701794779726  0.6239839072561775  0.35492685741065794  1.0000
  H   H142      1.0  0.10017549222884403  0.6480356645537878  0.35952448148697164  1.0000
  H   H143      1.0  0.0705041836179463  0.6474944026873621  0.4007340050007538  1.0000
  H   H144      1.0  0.07481170134557025  0.5181881825389518  0.4146162622764993  1.0000
  H   H145      1.0  0.05636723978352065  0.5720858376199287  0.4331316214945312  1.0000
  H   H146      1.0  0.041390370184273495  0.5497294679003012  0.38711659780665375  1.0000
  H   H147      1.0  0.13698045986940288  0.5518003024561751  0.4203664684529937  1.0000
  H   H148      1.0  0.11611987821043179  0.6028331865932196  0.44104660817506  1.0000
  H   H149      1.0  0.14517954899133856  0.6086951552770337  0.39988056420723017  1.0000
  H   H150      1.0  0.11631675377355255  0.519430153870099  0.3586772584852593  1.0000
  H   H151      1.0  0.12609706385625574  0.5740279964479241  0.33509928960319746  1.0000
  H   H152      1.0  0.08246200361529721  0.5492718015939724  0.33042058317400724  1.0000
  N   N3        1.0  0.10278692694591829  0.8304904624125653  0.154436989824494  1.0000
  C   C201      1.0  0.12304099422134285  0.8575873029693819  0.1837540281892174  1.0000
  C   C202      1.0  0.08672372021489627  0.8629350055626452  0.12560128870425688  1.0000
  C   C203      1.0  0.07432811773603243  0.8037550865491454  0.17386993262492412  1.0000
  C   C204      1.0  0.1271232459637921  0.7975900743289438  0.13428440460140365  1.0000
  H   H153      1.0  0.13556096557406172  0.8340945410611015  0.2059908665999098  1.0000
  H   H154      1.0  0.10567698764541733  0.8832147316892127  0.19928038189237454  1.0000
  H   H155      1.0  0.14518511054344252  0.8773005160992335  0.16995328851631175  1.0000
  H   H156      1.0  0.07174878328925316  0.8433322644931062  0.10295032974769482  1.0000
  H   H157      1.0  0.06780633634098132  0.8880923207379655  0.13948613621110034  1.0000
  H   H158      1.0  0.10752637740113746  0.8833601193145493  0.11014276316821255  1.0000
  H   H159      1.0  0.059003736339265256  0.7823120216480931  0.15252469822976594  1.0000
  H   H160      1.0  0.05503626017706931  0.8274722474442189  0.18883364006674724  1.0000
  H   H161      1.0  0.08559521804730075  0.778950259649972  0.19585800057533606  1.0000
  H   H162      1.0  0.14793279419201122  0.8164419450117758  0.11748189373606419  1.0000
  H   H163      1.0  0.11242348757879195  0.7745521914473265  0.11375788575427903  1.0000
  H   H164      1.0  0.1412556804627325  0.7743635584982095  0.15517326225076242  1.0000
  N   N4        1.0  0.9381956749609422  0.714840714667233  0.17773612888078044  1.0000
  C   C205      1.0  0.9317385508425969  0.760669237600559  0.19669741083768683  1.0000
  C   C206      1.0  0.9037782313703062  0.6911806827566266  0.17124291819122275  1.0000
  C   C207      1.0  0.9612355650502479  0.6854365744537947  0.20312527628846944  1.0000
  C   C208      1.0  0.9559534637925099  0.7219557208166554  0.13983826830514337  1.0000
  H   H165      1.0  0.9570886048388582  0.7799568678206904  0.20143362220455302  1.0000
  H   H166      1.0  0.9186841682463415  0.7564683348329239  0.22552581512174552  1.0000
  H   H167      1.0  0.9140835880870679  0.7834597089755999  0.1784704091568551  1.0000
  H   H168      1.0  0.9078272987099496  0.656354218782763  0.1573854151366432  1.0000
  H   H169      1.0  0.8893910743292156  0.6852423862677635  0.19909127167807428  1.0000
  H   H170      1.0  0.8858843368866584  0.711836941860232  0.15157596899867903  1.0000
  H   H171      1.0  0.9487613468977713  0.6792461588281041  0.2320488407418447  1.0000
  H   H172      1.0  0.987709498995437  0.7018144064752503  0.20818546716355338  1.0000
  H   H173      1.0  0.9662390589938151  0.6504341389028201  0.18982443794207146  1.0000
  H   H174      1.0  0.9608802628705244  0.687975355965067  0.12460865638476173  1.0000
  H   H175      1.0  0.982124593712106  0.7395339977260823  0.14364630711832665  1.0000
  H   H176      1.0  0.9394387415933049  0.7442908508032875  0.12000068004954746  1.0000
  N   N5        1.0  0.8212095511245341  0.48199962676987534  0.050659023431212535  1.0000
  C   C209      1.0  0.8023949332139818  0.5028987904633461  0.08433357915208868  1.0000
  C   C210      1.0  0.7976422349132665  0.48353287343079204  0.01591711319718825  1.0000
  C   C211      1.0  0.8307378849048883  0.4327424835715069  0.05957622743165048  1.0000
  C   C212      1.0  0.8540256630473578  0.5087201644128511  0.04293010134916342  1.0000
  H   H177      1.0  0.7958133844031734  0.5405873680719281  0.07923692990755406  1.0000
  H   H178      1.0  0.8190738048028939  0.5012628605795348  0.11129292796881947  1.0000
  H   H179      1.0  0.7770535601529054  0.48430138119044447  0.09044960248830945  1.0000
  H   H180      1.0  0.7724309492285352  0.4641007519269244  0.020991583945394687  1.0000
  H   H181      1.0  0.7902309653348285  0.5202511583979138  0.008104858299127438  1.0000
  H   H182      1.0  0.8106804655985052  0.46735767196021655  0.9899829741092149  1.0000
  H   H183      1.0  0.806484925140805  0.4114983027574105  0.06434333851909346  1.0000
  H   H184      1.0  0.8474126134994049  0.4300070771757404  0.08653082394060763  1.0000
  H   H185      1.0  0.8457967985785602  0.4160794551278299  0.03528283571185664  1.0000
  H   H186      1.0  0.8724139005618727  0.5079784726938723  0.06856333129422576  1.0000
  H   H187      1.0  0.8479097212267761  0.5463298804849818  0.03678562612990621  1.0000
  H   H188      1.0  0.8687894755694183  0.49429674397516377  0.017490576471423713  1.0000
  N   N6        1.0  0.9027364161977097  0.9874398602582773  0.040624511708373  1.0000
  C   C213      1.0  0.8683783859254931  0.9826465561368614  0.06109918310482043  1.0000
  C   C214      1.0  0.8968182503597137  0.9837784382563579  0.9980607094245648  1.0000
  C   C215      1.0  0.9275036120945889  0.9497130704082535  0.053334948514945246  1.0000
  C   C216      1.0  0.9182843769596647  0.03362620162654739  0.05001368705015974  1.0000
  H   H189      1.0  0.8718256419285926  0.9862728772715631  0.09323749088175348  1.0000
  H   H190      1.0  0.8561597848248582  0.947758763594681  0.05561488718866592  1.0000
  H   H191      1.0  0.8487442265278851  0.009936814443090691  0.05175314687346111  1.0000
  H   H192      1.0  0.8859833163323098  0.9488271649006372  0.9898504637698514  1.0000
  H   H193      1.0  0.8778236810415263  0.011130244265820766  0.9873462186347395  1.0000
  H   H194      1.0  0.9222109594688837  0.9878787915520768  0.9817271798848918  1.0000
  H   H195      1.0  0.9536615525770912  0.952147752890753  0.03825864691754255  1.0000
  H   H196      1.0  0.916625783860537  0.9143913922337987  0.04649953241302884  1.0000
  H   H197      1.0  0.9325664102378487  0.9510912896086884  0.08534630176480884  1.0000
  H   H198      1.0  0.9442781877090372  0.03849248927886961  0.03507891820233122  1.0000
  H   H199      1.0  0.9230328960130126  0.03753279702459378  0.08195685944233588  1.0000
  H   H200      1.0  0.9002389175157512  0.06293155239121084  0.04087879609635037  1.0000
  N   N7        1.0  0.6170651244677315  0.9659587407290339  0.4449689730444293  1.0000
  C   C217      1.0  0.6054340991509691  0.9354594644345516  0.4124934160395173  1.0000
  C   C218      1.0  0.5900598241671815  0.9655438912230305  0.4761578830308212  1.0000
  C   C219      1.0  0.6214642866150966  0.014498703038833494  0.4308141366860351  1.0000
  C   C220      1.0  0.6514046069130449  0.9482569624390215  0.46056190649035733  1.0000
  H   H201      1.0  0.6253191874413422  0.934826845054711  0.38856612910902066  1.0000
  H   H202      1.0  0.5795914247207732  0.9476289986269679  0.399914799645191  1.0000
  H   H203      1.0  0.601566831924178  0.898701519290467  0.4224731260901899  1.0000
  H   H204      1.0  0.598784874127131  0.9863515349994285  0.501975924709935  1.0000
  H   H205      1.0  0.5642433849150474  0.9807212045343632  0.46601632009532473  1.0000
  H   H206      1.0  0.584722650516582  0.9292291152535865  0.4862245877571596  1.0000
  H   H207      1.0  0.595784980808793  0.029227757429528545  0.41957773861356323  1.0000
  H   H208      1.0  0.6414215814132175  0.01612953554626051  0.4070090273440922  1.0000
  H   H209      1.0  0.6310353301703563  0.0380364666623374  0.45458611885248623  1.0000
  H   H210      1.0  0.6728102069684315  0.9493682856844268  0.43826185493116193  1.0000
  H   H211      1.0  0.6491887227797428  0.9114877970144436  0.4712066870887774  1.0000
  H   H212      1.0  0.6604564070411287  0.9696433486512405  0.4857553741514566  1.0000
  N   N8        1.0  0.8749857523721583  0.8426515553917434  0.614297622633946  1.0000
  C   C221      1.0  0.8845436661804996  0.8292136138639139  0.6546771734689015  1.0000
  C   C222      1.0  0.8586106914086414  0.8022259698892094  0.5941880610682764  1.0000
  C   C223      1.0  0.9074196314436177  0.8566639532905134  0.5931765475155636  1.0000
  C   C224      1.0  0.8494718288909427  0.882497253135008  0.6150860860950728  1.0000
  H   H213      1.0  0.8962447924476445  0.8591896183152256  0.6710030771170978  1.0000
  H   H214      1.0  0.904506463073845  0.8000954708052741  0.6551551786056675  1.0000
  H   H215      1.0  0.860833978918015  0.8173253710526721  0.6711875773540221  1.0000
  H   H216      1.0  0.8772464168203542  0.7714975493298805  0.5933891775912544  1.0000
  H   H217      1.0  0.8339034766691246  0.7907557324831181  0.6091070850876598  1.0000
  H   H218      1.0  0.8514443512449246  0.8109920859924733  0.5634899981712683  1.0000
  H   H219      1.0  0.9009874964498821  0.868804517577358  0.5630978558555716  1.0000
  H   H220      1.0  0.9266715604828463  0.8270714504474103  0.5905900313176065  1.0000
  H   H221      1.0  0.9215347365273857  0.885548365161221  0.6084629520700843  1.0000
  H   H222      1.0  0.8412358021974027  0.8931412265825437  0.5850971949402775  1.0000
  H   H223      1.0  0.8614431461250468  0.9139071898599731  0.6292812964983798  1.0000
  H   H224      1.0  0.824850669122053  0.8736277974820543  0.6313462733133083  1.0000
  N   N9        1.0  0.8709466487062357  0.24443880616700459  0.21792765763908944  1.0000
  C   C225      1.0  0.8786298704838352  0.19565128520744632  0.23025225250564568  1.0000
  C   C226      1.0  0.8740359387919814  0.2760829898603689  0.2519462913355047  1.0000
  C   C227      1.0  0.8343696013659972  0.24756354600275693  0.20174912397862743  1.0000
  C   C228      1.0  0.8967377830027811  0.2585586321357934  0.18775864453788996  1.0000
  H   H225      1.0  0.8767321638236635  0.17089511958135925  0.2052143958310589  1.0000
  H   H226      1.0  0.8594949475347036  0.18357704475944311  0.25279378417929127  1.0000
  H   H227      1.0  0.9059740884218517  0.1920286768496391  0.24269366961042424  1.0000
  H   H228      1.0  0.8683956823350366  0.31320457266688373  0.24363116143275104  1.0000
  H   H229      1.0  0.8548445182080988  0.2665209112602437  0.27519626343954334  1.0000
  H   H230      1.0  0.9013529751658064  0.27487626145048116  0.2647734152755679  1.0000
  H   H231      1.0  0.8141783621455567  0.23643634469405303  0.22341536705749374  1.0000
  H   H232      1.0  0.8312852524853385  0.2249734345450466  0.17545618327802462  1.0000
  H   H233      1.0  0.8275308703673413  0.28408088251412034  0.19287573489658022  1.0000
  H   H234      1.0  0.8916016529228268  0.29513164572917555  0.17769250903812747  1.0000
  H   H235      1.0  0.8950521643867144  0.23551338523730614  0.16159431117827505  1.0000
  H   H236      1.0  0.9246374673106688  0.25682075958692735  0.198866934580508  1.0000
  N   N10       1.0  0.8406960764016805  0.16344698124714996  0.6708827839788241  1.0000
  C   C229      1.0  0.8164582430004783  0.1313453671044036  0.6915089202110224  1.0000
  C   C230      1.0  0.8331855278864689  0.21230762245408719  0.6831564115196467  1.0000
  C   C231      1.0  0.8350330748452554  0.15915740734547623  0.6283049210602961  1.0000
  C   C232      1.0  0.8780888773973462  0.15101698161596766  0.6805848997446249  1.0000
  H   H237      1.0  0.8200468649297704  0.13350973190936433  0.7236832615321753  1.0000
  H   H238      1.0  0.8209965848541685  0.09421877719465299  0.6827204869558562  1.0000
  H   H239      1.0  0.7880388111494366  0.1394926016072391  0.6847911632145147  1.0000
  H   H240      1.0  0.8509445992564062  0.23753998659253805  0.6681765533336769  1.0000
  H   H241      1.0  0.8051806771122084  0.2228549732141738  0.676183112384982  1.0000
  H   H242      1.0  0.8369651554736744  0.21692055338994298  0.7151674600540059  1.0000
  H   H243      1.0  0.807528386836159  0.170080054319393  0.6197411537698458  1.0000
  H   H244      1.0  0.8386319926989244  0.12229594524136211  0.6181940065000103  1.0000
  H   H245      1.0  0.8538689135949733  0.18136419034793572  0.6117133189237604  1.0000
  H   H246      1.0  0.8972237331631133  0.17453873556808008  0.6657169882256692  1.0000
  H   H247      1.0  0.8847783147209755  0.11451361058951726  0.6714340009075168  1.0000
  H   H248      1.0  0.8832987486679161  0.15321783477808437  0.712518104832794  1.0000
  N   N11       1.0  0.6126990034771903  0.10181443580081395  0.29294355695187096  1.0000
  C   C233      1.0  0.5889292241715917  0.1406250723649245  0.30543725291407753  1.0000
  C   C234      1.0  0.593410881354067  0.07151274696251297  0.2651013877362909  1.0000
  C   C235      1.0  0.6237225217748108  0.07384654298601112  0.3273119248498955  1.0000
  C   C236      1.0  0.6445929488581194  0.12118987375352641  0.2737722038468521  1.0000
  H   H249      1.0  0.6025258501058635  0.16430074984146037  0.3265156168168156  1.0000
  H   H250      1.0  0.5644446190234891  0.1271744862083506  0.3197503715634508  1.0000
  H   H251      1.0  0.5799659966240291  0.16231996588878128  0.28014077539283255  1.0000
  H   H252      1.0  0.6106247556293506  0.042471168248789715  0.2540512745115724  1.0000
  H   H253      1.0  0.5695586172014919  0.05544087706838852  0.2784261390916636  1.0000
  H   H254      1.0  0.5837860196194204  0.09183004521980775  0.23945922104022416  1.0000
  H   H255      1.0  0.6414075598481958  0.044029029817238774  0.3187608194330714  1.0000
  H   H256      1.0  0.6001428729411945  0.05901342403865928  0.3424623003981899  1.0000
  H   H257      1.0  0.6387042007235652  0.09552178171079295  0.3488537229961773  1.0000
  H   H258      1.0  0.6628063426349626  0.09284511915917748  0.26322369835394993  1.0000
  H   H259      1.0  0.6602089906261782  0.1438059112540495  0.29397137825406894  1.0000
  H   H260      1.0  0.637160907409777  0.14280672933153826  0.24787334457425916  1.0000
  N   N12       1.0  0.3251303508516794  0.430077556823562  0.629285434499052  1.0000
  C   C237      1.0  0.33371989256633716  0.3857949619734688  0.6497414225591873  1.0000
  C   C238      1.0  0.2861866445680681  0.4335588878625438  0.622805997316812  1.0000
  C   C239      1.0  0.34362547165507507  0.43068807544950105  0.5913363376962832  1.0000
  C   C240      1.0  0.3370869576293617  0.47009625804506167  0.6533638753607931  1.0000
  H   H261      1.0  0.3627251123143346  0.38323565525608644  0.6565501663853693  1.0000
  H   H262      1.0  0.326446469780235  0.35464699638643504  0.6318571655743686  1.0000
  H   H263      1.0  0.31935344009108546  0.3832763137593197  0.6780047245919878  1.0000
  H   H264      1.0  0.27143612199164957  0.43332216826809605  0.6508749067535062  1.0000
  H   H265      1.0  0.2788028125407558  0.4666306496326675  0.6073527526624933  1.0000
  H   H266      1.0  0.276269861281335  0.4038443952429848  0.6047670355560579  1.0000
  H   H267      1.0  0.3386860319583592  0.4641871211102707  0.5755232001593747  1.0000
  H   H268      1.0  0.3343611155785161  0.4017693967888241  0.5720347170538644  1.0000
  H   H269      1.0  0.373003031449381  0.4265865803894052  0.5950551891302477  1.0000
  H   H270      1.0  0.33043328918850645  0.5042435928710477  0.6391895759422872  1.0000
  H   H271      1.0  0.36645787893148385  0.4689628662615095  0.6582235366765841  1.0000
  H   H272      1.0  0.32425174073986424  0.4699193376158615  0.6825791629848148  1.0000
  N   N13       1.0  0.39799970249772204  0.2219705365823621  0.4394096444519352  1.0000
  C   C241      1.0  0.38879178060050895  0.218723019479901  0.3974990938929624  1.0000
  C   C242      1.0  0.41208178345762203  0.26915474868338585  0.448064560413669  1.0000
  C   C243      1.0  0.42535496416421376  0.1861080280578775  0.44911975450561625  1.0000
  C   C244      1.0  0.36572490063634455  0.2139214230735079  0.46297504561638836  1.0000
  H   H273      1.0  0.3780145664900061  0.18353187463167253  0.3899828980319788  1.0000
  H   H274      1.0  0.41255105405316345  0.2243697091178556  0.3787491495021495  1.0000
  H   H275      1.0  0.3682394362385937  0.24539091722481063  0.38917132028638557  1.0000
  H   H276      1.0  0.39195154520042574  0.2970320380220213  0.44131008324057425  1.0000
  H   H277      1.0  0.41928920467912145  0.2727909728938989  0.4794754273181263  1.0000
  H   H278      1.0  0.43631597274689066  0.2766692128929039  0.43067984162891076  1.0000
  H   H279      1.0  0.4322198731110445  0.18662047066469523  0.48076102125218645  1.0000
  H   H280      1.0  0.4503528627151902  0.19154799054467841  0.4324694516630494  1.0000
  H   H281      1.0  0.41577049969070357  0.15009929049535528  0.44231631854913617  1.0000
  H   H282      1.0  0.3544065677697476  0.17853470097821678  0.4573642113930667  1.0000
  H   H283      1.0  0.34460442242084044  0.24071232851091715  0.45674253717962787  1.0000
  H   H284      1.0  0.37175223444046945  0.21582259134747422  0.49473074218603186  1.0000
  N   N14       1.0  0.8651470918475271  0.4653855373549375  0.6992284408597278  1.0000
  C   C245      1.0  0.8522732431937445  0.47662477449568985  0.7388432145549316  1.0000
  C   C246      1.0  0.8698457373707998  0.5092431366699286  0.6769385653238241  1.0000
  C   C247      1.0  0.8387164337340528  0.43562931097745056  0.6791586034771123  1.0000
  C   C248      1.0  0.8995900424726028  0.43993554258860834  0.7018470325510469  1.0000
  H   H285      1.0  0.8483902627171918  0.4441712147778974  0.7563759879345424  1.0000
  H   H286      1.0  0.8261748621148154  0.49561430419815816  0.7377048272128566  1.0000
  H   H287      1.0  0.8714367470264636  0.49921954809481306  0.754938012771711  1.0000
  H   H288      1.0  0.8800553188184752  0.5019154589777761  0.6470872299158733  1.0000
  H   H289      1.0  0.8440979370584636  0.5287450117826578  0.6734972952395614  1.0000
  H   H290      1.0  0.8891185143783283  0.5331438620898832  0.6914543808499014  1.0000
  H   H291      1.0  0.8125586220860772  0.4540983370252593  0.6763379499043881  1.0000
  H   H292      1.0  0.8340394636534201  0.40238213252060084  0.695335265985554  1.0000
  H   H293      1.0  0.8474752700509129  0.4262723789543735  0.6491523026930595  1.0000
  H   H294      1.0  0.8969028589686767  0.4065433509444649  0.7183807933136976  1.0000
  H   H295      1.0  0.9202282446387493  0.4614211577115064  0.7167909200189874  1.0000
  H   H296      1.0  0.9099105780857256  0.43094594607786213  0.672318824354979  1.0000
  N   N15       1.0  0.09732299031297931  0.6513297398657731  0.03177359555073722  1.0000
  C   C249      1.0  0.06789459712756707  0.6319374531992858  0.05510772860723656  1.0000
  C   C250      1.0  0.12061345542683749  0.6798741541534126  0.05713874607199454  1.0000
  C   C251      1.0  0.0824038528296176  0.6811784118679471  0.00035692030291323285  1.0000
  C   C252      1.0  0.11831778981059744  0.6124511547229242  0.014606526597827463  1.0000
  H   H297      1.0  0.07809587044937571  0.6094602273085087  0.07934776252001297  1.0000
  H   H298      1.0  0.049498914210933664  0.6105171174005135  0.03691999422236969  1.0000
  H   H299      1.0  0.05155571062941311  0.6604234512819712  0.06851482021084254  1.0000
  H   H300      1.0  0.10526491407940378  0.7088061928906072  0.07116418417729031  1.0000
  H   H301      1.0  0.13268818320211676  0.6584175815482983  0.08098200484517837  1.0000
  H   H302      1.0  0.1426088094042053  0.6963038264851908  0.04047603509160069  1.0000
  H   H303      1.0  0.10377641800484325  0.6966619406781951  0.9821988801264845  1.0000
  H   H304      1.0  0.06660895827983859  0.7108443239729726  0.012602059398741483  1.0000
  H   H305      1.0  0.06411251087997716  0.6610885670358831  0.9809696997451961  1.0000
  H   H306      1.0  0.14086702095288792  0.6258544388729402  0.996968276185402  1.0000
  H   H307      1.0  0.10147690327464977  0.5902627547616984  0.9952647081892225  1.0000
  H   H308      1.0  0.1298225835065613  0.5892774208790958  0.03770940250129495  1.0000
  N   N16       1.0  0.8509799799765831  0.9522325740436246  0.40081248527737245  1.0000
  C   C253      1.0  0.8381297616718858  0.915935376402485  0.42794735516467075  1.0000
  C   C254      1.0  0.8595830823276212  0.9952798259411003  0.4229213244744454  1.0000
  C   C255      1.0  0.8229306927841927  0.9628229231119817  0.3715655346933985  1.0000
  C   C256      1.0  0.8833515328399203  0.9349404089630633  0.3808172199100529  1.0000
  H   H309      1.0  0.8587847028292699  0.9068723650958413  0.45024907262512726  1.0000
  H   H310      1.0  0.8308883220102405  0.88310389794036  0.41234951901122135  1.0000
  H   H311      1.0  0.8141812411943143  0.9283707419001572  0.44412878293629854  1.0000
  H   H312      1.0  0.8803165994121811  0.9884198402476047  0.4456676444027818  1.0000
  H   H313      1.0  0.8697610891489538  0.023262340799763193  0.4034427391491344  1.0000
  H   H314      1.0  0.8357225762407064  0.009533445764007942  0.43829606263579307  1.0000
  H   H315      1.0  0.8151507110007521  0.930982394649975  0.3548916390138245  1.0000
  H   H316      1.0  0.8321581260621895  0.9891777912217713  0.34998683732912444  1.0000
  H   H317      1.0  0.7984335943631725  0.9773406548408217  0.3855126738737404  1.0000
  H   H318      1.0  0.8936184554110146  0.9615709045258679  0.3600185294049369  1.0000
  H   H319      1.0  0.8778956336808339  0.9023948403340347  0.3639122836910436  1.0000
  H   H320      1.0  0.9051267173669052  0.9268765595193089  0.40208034100082324  1.0000
  N   N17       1.0  0.47028127677254067  0.3727455936590465  0.8556403324544041  1.0000
  C   C257      1.0  0.4542719283798515  0.3693121224236672  0.8163063657978445  1.0000
  C   C258      1.0  0.4538833892683008  0.41261647693379944  0.8767395428260071  1.0000
  C   C259      1.0  0.5091009878539877  0.3801176810040313  0.8521266668672878  1.0000
  C   C260      1.0  0.4637109680588153  0.3287970822786647  0.8772117943175234  1.0000
  H   H321      1.0  0.45796868910391897  0.40207332165574633  0.7992537285401841  1.0000
  H   H322      1.0  0.42517901466988034  0.3629609153326158  0.8179195484801293  1.0000
  H   H323      1.0  0.46619520134435666  0.3398016230240371  0.799492992930603  1.0000
  H   H324      1.0  0.4651964149491681  0.41636593368386576  0.9066037881032545  1.0000
  H   H325      1.0  0.4581196419497735  0.4464330753100617  0.86134601228027  1.0000
  H   H326      1.0  0.42462412931542215  0.4079140360295633  0.8798991090930017  1.0000
  H   H327      1.0  0.5219679742995293  0.3840355258029053  0.8812219306187504  1.0000
  H   H328      1.0  0.5149141059827643  0.41231449339387677  0.8350696668782238  1.0000
  H   H329      1.0  0.5223070521420619  0.34995829690369656  0.8371782769972407  1.0000
  H   H330      1.0  0.47578860708297904  0.3298157417285863  0.9068885128000449  1.0000
  H   H331      1.0  0.4751215115512472  0.2978465207125147  0.8616363216354344  1.0000
  H   H332      1.0  0.4346014129774114  0.32260822587063925  0.8808601655462305  1.0000
  N   N18       1.0  0.08321627822903377  0.8453681971684401  0.8332485377173053  1.0000
  C   C261      1.0  0.10918140003414956  0.8436067099355908  0.8009732862764026  1.0000
  C   C262      1.0  0.060414540525079774  0.8877155985624638  0.8292682162175874  1.0000
  C   C263      1.0  0.1024073834561956  0.8468274389373528  0.871031780607549  1.0000
  C   C264      1.0  0.06070110187869471  0.803089545691145  0.8317474587316304  1.0000
  H   H333      1.0  0.12704704482242035  0.8122733967723729  0.8032144490513857  1.0000
  H   H334      1.0  0.12642250489584228  0.8751101616890714  0.8005575346935343  1.0000
  H   H335      1.0  0.09554662483975895  0.8416868366604017  0.7720977920964038  1.0000
  H   H336      1.0  0.04118066880682503  0.8907768650661405  0.8537932762664435  1.0000
  H   H337      1.0  0.07639499343737755  0.9203841549494326  0.8285941494674995  1.0000
  H   H338      1.0  0.04437143827560841  0.8867950083687807  0.8018616784406601  1.0000
  H   H339      1.0  0.0834944655673755  0.8472666766989863  0.8959959434467788  1.0000
  H   H340      1.0  0.11909797751752538  0.8786909617476102  0.8736028841474176  1.0000
  H   H341      1.0  0.12032818110011312  0.8157689628365855  0.8747695033825348  1.0000
  H   H342      1.0  0.04099569067781328  0.8029743854099914  0.8558757372976383  1.0000
  H   H343      1.0  0.07698393780678048  0.7703868078688438  0.8340488913389198  1.0000
  H   H344      1.0  0.04527739578799461  0.8012735546144929  0.8038948495692394  1.0000
  N   N19       1.0  0.3088953978725616  0.9709551282980432  0.5489739961471066  1.0000
  C   C265      1.0  0.2806761200821554  0.9388501174831677  0.535355401894492  1.0000
  C   C266      1.0  0.336550275255626  0.974803763551006  0.5186172774435285  1.0000
  C   C267      1.0  0.3250200127315397  0.952173914930544  0.585253003333777  1.0000
  C   C268      1.0  0.293265807257967  0.017856901877491005  0.556657908199146  1.0000
  H   H345      1.0  0.25920200786675063  0.93543640061746  0.5574652552602984  1.0000
  H   H346      1.0  0.2915959107656488  0.9030216697833879  0.5296779564280917  1.0000
  H   H347      1.0  0.26790444004443015  0.9516887489418746  0.5079728600050899  1.0000
  H   H348      1.0  0.3576673366794975  0.9999775742935201  0.5272387902016663  1.0000
  H   H349      1.0  0.34973296286751665  0.9403273376910056  0.512965515243677  1.0000
  H   H350      1.0  0.3251253711963428  0.9874728661517802  0.4904849742227202  1.0000
  H   H351      1.0  0.30476278790637745  0.9490882294092984  0.6087595007046185  1.0000
  H   H352      1.0  0.34674517391747395  0.9750690508643437  0.5962226073931991  1.0000
  H   H353      1.0  0.33672265845598826  0.9165938394108213  0.5805624539441183  1.0000
  H   H354      1.0  0.27228277987991417  0.016278152258650147  0.5794802433870875  1.0000
  H   H355      1.0  0.2806960355915418  0.03296030289145002  0.529960677298652  1.0000
  H   H356      1.0  0.31384111678660087  0.04302129204875893  0.566937888993792  1.0000
  N   N20       1.0  0.09735084407436823  0.707114341157106  0.5959219924276017  1.0000
  C   C269      1.0  0.12085716363020937  0.676480766320956  0.6197398299108277  1.0000
  C   C270      1.0  0.10377480407001971  0.7568402671197375  0.6059418484303052  1.0000
  C   C271      1.0  0.05971515839081176  0.6955687267054739  0.6037343311077674  1.0000
  C   C272      1.0  0.10502228131939151  0.699470730309497  0.5541463137334848  1.0000
  H   H357      1.0  0.11676584742563612  0.6387402998925131  0.6125422404674958  1.0000
  H   H358      1.0  0.11578605137076936  0.681200455340446  0.6514186139077757  1.0000
  H   H359      1.0  0.14949152184089276  0.6841351248537924  0.6145902195997909  1.0000
  H   H360      1.0  0.08644936649252766  0.7808920385665524  0.5884032783515071  1.0000
  H   H361      1.0  0.09814509643202807  0.7641655329222609  0.637188084201582  1.0000
  H   H362      1.0  0.1319681915662103  0.7667352076056566  0.600397221627117  1.0000
  H   H363      1.0  0.04134661310833132  0.7166588763082584  0.5851393972300762  1.0000
  H   H364      1.0  0.05251140763407247  0.7026098789918486  0.6346271971158401  1.0000
  H   H365      1.0  0.05416511648997302  0.6579571521141233  0.5976081871536193  1.0000
  H   H366      1.0  0.13326906739858058  0.7078056762698087  0.5473342422120223  1.0000
  H   H367      1.0  0.0876696304096447  0.7219099100467882  0.5353083734802839  1.0000
  H   H368      1.0  0.10053862186808304  0.6622967392760442  0.545587461764171  1.0000
  N   N21       1.0  0.6005887531815232  0.36388427438543336  0.08548110998844662  1.0000
  C   C273      1.0  0.5716396033971028  0.3829397473022488  0.11008384113057897  1.0000
  C   C274      1.0  0.616296983138916  0.4022956601132994  0.06254123434397951  1.0000
  C   C275      1.0  0.5861489010151749  0.3280750438460423  0.0586179368173263  1.0000
  C   C276      1.0  0.628266341206594  0.3422162168762023  0.11069290837919504  1.0000
  H   H369      1.0  0.5596098907823654  0.3549711845965329  0.12834318987400942  1.0000
  H   H370      1.0  0.5498641627879044  0.3988320956644031  0.09207080670972839  1.0000
  H   H371      1.0  0.5815923982517538  0.41059407898868255  0.1302207740682272  1.0000
  H   H372      1.0  0.5959397207025611  0.41981975510102704  0.04362549497522461  1.0000
  H   H373      1.0  0.6283310943986852  0.42947685245521244  0.08178312905152808  1.0000
  H   H374      1.0  0.6378744157425497  0.38893601359628693  0.04332233339969749  1.0000
  H   H375      1.0  0.6072159647933393  0.31342788498782026  0.039244750770147  1.0000
  H   H376      1.0  0.5650170917357086  0.3431701808501725  0.039358871696830056  1.0000
  H   H377      1.0  0.5742873966257493  0.29826947923965846  0.07487589158422847  1.0000
  H   H378      1.0  0.6505969756031414  0.32749798797702523  0.0931795395737751  1.0000
  H   H379      1.0  0.6171260775028498  0.31320922998838113  0.1285094578749686  1.0000
  H   H380      1.0  0.6400991507874898  0.36838555235708165  0.13104421392882698  1.0000
  N   N22       1.0  0.6598099199807008  0.4177586018859588  0.8426389214486998  1.0000
  C   C277      1.0  0.6791465581688607  0.43244837181091245  0.8781498737257853  1.0000
  C   C278      1.0  0.6857933753387936  0.4079473482376655  0.8113371158125575  1.0000
  C   C279      1.0  0.6352198136148333  0.45577821242162164  0.8302127518862555  1.0000
  C   C280      1.0  0.6392285556150967  0.3749405645439082  0.851054069111359  1.0000
  H   H381      1.0  0.6961693233530492  0.4635624100429007  0.8726470251002795  1.0000
  H   H382      1.0  0.6970514353776422  0.40392780144839074  0.8888611225135794  1.0000
  H   H383      1.0  0.6605369323145963  0.441626926538213  0.9021272873325491  1.0000
  H   H384      1.0  0.7020882935840494  0.4393579551454773  0.8046733329802371  1.0000
  H   H385      1.0  0.704548866914078  0.3790221301691745  0.8195642808171483  1.0000
  H   H386      1.0  0.6722850115960848  0.39780062890185774  0.7837634215963298  1.0000
  H   H387      1.0  0.6158167552301258  0.4648639015915169  0.8535347274883862  1.0000
  H   H388      1.0  0.6195980787007277  0.44550777127341473  0.8039596181382458  1.0000
  H   H389      1.0  0.6499890290109037  0.48817998817342456  0.822541695221828  1.0000
  H   H390      1.0  0.6242009529833505  0.3628075665238489  0.8249217946055595  1.0000
  H   H391      1.0  0.6195889184530545  0.3810076402534982  0.8748044334374033  1.0000
  H   H392      1.0  0.6569603733031563  0.3454995676459914  0.8605976386517873  1.0000
  N   N23       1.0  0.19342008195516397  0.9761652533156517  0.8173955717113606  1.0000
  C   C281      1.0  0.16739529734599384  0.9586161290204206  0.845953241855064  1.0000
  C   C282      1.0  0.19146256667214662  0.9477135134660991  0.7813380905391858  1.0000
  C   C283      1.0  0.229730540396599  0.9727840228957526  0.8342746950856395  1.0000
  C   C284      1.0  0.18492033824507761  0.025670603931050806  0.8081716948614659  1.0000
  H   H393      1.0  0.16780852759255752  0.9799449309141869  0.8732262277939528  1.0000
  H   H394      1.0  0.17366211554063865  0.9218329652968769  0.8545744484131528  1.0000
  H   H395      1.0  0.13975846984240142  0.9601518598214792  0.8339578185054015  1.0000
  H   H396      1.0  0.2098080633613803  0.9609345828098701  0.7585013121629374  1.0000
  H   H397      1.0  0.19863031444073262  0.9103745890773016  0.7868565159311199  1.0000
  H   H398      1.0  0.16412370439947838  0.9483725687603136  0.7684814315560883  1.0000
  H   H399      1.0  0.2500747650266742  0.9861529641296289  0.8137133021068576  1.0000
  H   H400      1.0  0.23691603132822409  0.9358510126588709  0.8416916541348841  1.0000
  H   H401      1.0  0.23188496671081438  0.9933329405138235  0.8618781709138436  1.0000
  H   H402      1.0  0.20348833640958314  0.03996253464762889  0.7860303832299019  1.0000
  H   H403      1.0  0.18665639358052888  0.04830485043035315  0.834587468756947  1.0000
  H   H404      1.0  0.15733349697109428  0.02943972631778924  0.796184835905325  1.0000
  N   N24       1.0  0.8558646407205268  0.49866974049298834  0.4260578975524014  1.0000
  C   C285      1.0  0.8938962396559801  0.4961308201240306  0.4149528340278104  1.0000
  C   C286      1.0  0.8335566747432116  0.5063737381242703  0.3909372243014469  1.0000
  C   C287      1.0  0.8503896744923405  0.5380410164094341  0.453552119307808  1.0000
  C   C288      1.0  0.8455549166369368  0.4541585831064129  0.44480960528115854  1.0000
  H   H405      1.0  0.9114483148377007  0.49074174035749035  0.44094466908063246  1.0000
  H   H406      1.0  0.9026167523815485  0.5289462826650175  0.4005256732457635  1.0000
  H   H407      1.0  0.8991370200890584  0.4668127678405629  0.3942713962492109  1.0000
  H   H408      1.0  0.8046319948885167  0.505749367570361  0.39791321294102483  1.0000
  H   H409      1.0  0.8389381263083145  0.5410268284820321  0.37757081085208716  1.0000
  H   H410      1.0  0.8388185130311083  0.47940116717582476  0.3681283283943283  1.0000
  H   H411      1.0  0.8221093696724884  0.5408519343766277  0.4629822690082843  1.0000
  H   H412      1.0  0.8579705608655732  0.5721335159115908  0.4402746322536841  1.0000
  H   H413      1.0  0.8669751115188135  0.5336001433966341  0.4802418975677451  1.0000
  H   H414      1.0  0.8626720253122141  0.4463694842036907  0.4706230492206313  1.0000
  H   H415      1.0  0.8483060496698075  0.42400553770438276  0.42438928513563  1.0000
  H   H416      1.0  0.8174778182308423  0.4554590718266847  0.4551363879241059  1.0000
  N   N25       1.0  0.32746239254729126  0.7106186998749253  0.9839390089748138  1.0000
  C   C289      1.0  0.3487300624896479  0.748358427277647  0.9662636455703041  1.0000
  C   C290      1.0  0.32201231727053814  0.6729247970111355  0.954910159679667  1.0000
  C   C291      1.0  0.2924283291380325  0.7295704307406475  0.9961365535201293  1.0000
  C   C292      1.0  0.34667099748402436  0.6917494361709828  0.018365428725797495  1.0000
  H   H417      1.0  0.37499233689388445  0.7349691685078485  0.9559378034161377  1.0000
  H   H418      1.0  0.3539360573320374  0.7770762600600527  0.9874810511751568  1.0000
  H   H419      1.0  0.33471544458715463  0.7641158852987661  0.9407247159668071  1.0000
  H   H420      1.0  0.3475580087804408  0.6548785517947603  0.9475002716339984  1.0000
  H   H421      1.0  0.30375620006982973  0.6455897210699647  0.9660954343891477  1.0000
  H   H422      1.0  0.3101399020628949  0.6867917645903783  0.9273621114478985  1.0000
  H   H423      1.0  0.27684734856215854  0.743090899418314  0.9707596484060135  1.0000
  H   H424      1.0  0.29546045667743387  0.7588921840109452  0.0172891171077445  1.0000
  H   H425      1.0  0.2761977138119451  0.7022862828685345  0.010696005389183139  1.0000
  H   H426      1.0  0.3509661154650583  0.7194573783675817  0.04083450605888328  1.0000
  H   H427      1.0  0.37315853751148087  0.6768646268651702  0.010293440326569758  1.0000
  H   H428      1.0  0.3315916935173035  0.662995596785274  0.03236289341094367  1.0000
  N   N26       1.0  0.5756682148890023  0.3510200421047285  0.6154664744881091  1.0000
  C   C293      1.0  0.5983762979269707  0.38868221730685215  0.6313257265489585  1.0000
  C   C294      1.0  0.5517717958055837  0.37060255876588677  0.5850323197922317  1.0000
  C   C295      1.0  0.5540329280083413  0.33092407076250147  0.6471334151858898  1.0000
  C   C296      1.0  0.5985473054034312  0.3139664452219227  0.5982947447085417  1.0000
  H   H429      1.0  0.6174094768590405  0.37488820473599843  0.6536397781873642  1.0000
  H   H430      1.0  0.5822425438488178  0.41686741583515424  0.6454764123833656  1.0000
  H   H431      1.0  0.614476299847391  0.4052546100124113  0.6080152107406613  1.0000
  H   H432      1.0  0.5335195291911982  0.397907199266133  0.597219329503976  1.0000
  H   H433      1.0  0.5671179139936826  0.3869105525237403  0.5609857853500149  1.0000
  H   H434      1.0  0.5346337594357633  0.3429390755033417  0.5719600576478888  1.0000
  H   H435      1.0  0.5360134807996653  0.3030847811424272  0.6359599867361376  1.0000
  H   H436      1.0  0.5367953338782794  0.35816503328291244  0.661015771056952  1.0000
  H   H437      1.0  0.5711782725327532  0.315307722511808  0.6704205173118173  1.0000
  H   H438      1.0  0.6176764942584602  0.2992133434550819  0.6201665161043467  1.0000
  H   H439      1.0  0.6148587374029244  0.3278930895388718  0.5739090019725225  1.0000
  H   H440      1.0  0.5824873653428133  0.2844746607094251  0.5865488152001538  1.0000
  N   N27       1.0  0.508318458446131  0.10090657698584726  0.6800345094947203  1.0000
  C   C297      1.0  0.5031727883806957  0.13518214906635184  0.7119681639226204  1.0000
  C   C298      1.0  0.5014742710297841  0.12394619774226778  0.6420762740072332  1.0000
  C   C299      1.0  0.4831966020878392  0.06166160478983551  0.6847980954123312  1.0000
  C   C300      1.0  0.5453733554263022  0.08276838054328928  0.6812651002497915  1.0000
  H   H441      1.0  0.5081496629758532  0.11896118297235958  0.7410114391201248  1.0000
  H   H442      1.0  0.475427989319323  0.14931290245000461  0.7121926192326276  1.0000
  H   H443      1.0  0.5214134734693766  0.16558827009125388  0.7091413851109312  1.0000
  H   H444      1.0  0.5047972247092684  0.09874742160224703  0.6174223793915137  1.0000
  H   H445      1.0  0.47376153201211885  0.13815741704732964  0.6403256704220364  1.0000
  H   H446      1.0  0.5199727101131568  0.1536019038024472  0.6371815916365468  1.0000
  H   H447      1.0  0.48628097415821386  0.035284689118808554  0.6610015253080594  1.0000
  H   H448      1.0  0.45499883092099247  0.07430771736783015  0.6839828812552332  1.0000
  H   H449      1.0  0.4875301763446117  0.043212428891887145  0.7129973587599869  1.0000
  H   H450      1.0  0.565020285068879  0.11141445485094859  0.6774664147865226  1.0000
  H   H451      1.0  0.5502347725022837  0.056710255222026884  0.6576800210135763  1.0000
  H   H452      1.0  0.5514101913282529  0.06493007993105082  0.7094112249866834  1.0000
  N   N28       1.0  0.3127569765821751  0.6738811953516262  0.4666272880613408  1.0000
  C   C301      1.0  0.3303727967248589  0.6888419272784219  0.43030845493977904  1.0000
  C   C302      1.0  0.31566951006213323  0.711356648360346  0.49630570423967985  1.0000
  C   C303      1.0  0.3302749876919935  0.6306920312524545  0.4813571850329759  1.0000
  C   C304      1.0  0.27470973784480324  0.6644958959996162  0.45852059384709865  1.0000
  H   H453      1.0  0.3290491400056881  0.6609012541847694  0.4075793076548215  1.0000
  H   H454      1.0  0.35905572557424875  0.6966900660192424  0.4354266412867866  1.0000
  H   H455      1.0  0.31749597258118656  0.7209131309712835  0.4179565754475057  1.0000
  H   H456      1.0  0.3027819008682767  0.7445429152958418  0.4862167823657792  1.0000
  H   H457      1.0  0.3024621877064671  0.7011210976778737  0.5239576915035158  1.0000
  H   H458      1.0  0.3440257797148147  0.7191476955815245  0.5034440034547788  1.0000
  H   H459      1.0  0.3175438889240957  0.6181949514759769  0.5085845155393118  1.0000
  H   H460      1.0  0.3589819451515361  0.6364256062769204  0.4880006354658875  1.0000
  H   H461      1.0  0.32864802550374544  0.6016736674723544  0.45969096140460886  1.0000
  H   H462      1.0  0.26047131039318294  0.6964453009448264  0.4478514037924901  1.0000
  H   H463      1.0  0.26072927673159657  0.6523320922981704  0.4851767753891613  1.0000
  H   H464      1.0  0.2715622239745698  0.6368289761009347  0.43584006371816  1.0000
  N   N29       1.0  0.38190491437148344  0.9451775153309048  0.11821001727941204  1.0000
  C   C305      1.0  0.41295219043122977  0.9128761192184228  0.11793211478766229  1.0000
  C   C306      1.0  0.3917551582933395  0.9895240863779683  0.13773713984632924  1.0000
  C   C307      1.0  0.3521678942728216  0.9231924009710286  0.13938767107623398  1.0000
  C   C308      1.0  0.3707107860579448  0.9550682306721037  0.07763938918764235  1.0000
  H   H465      1.0  0.4062683745254183  0.879108810746611  0.10324030997207026  1.0000
  H   H466      1.0  0.422163212527892  0.904532974163491  0.14807362798627816  1.0000
  H   H467      1.0  0.43583488513723073  0.9284336392916431  0.10208279068015551  1.0000
  H   H468      1.0  0.3688558857619799  0.014681898680301897  0.13842434356939226  1.0000
  H   H469      1.0  0.4005786913124236  0.9835948729333877  0.16839146160344304  1.0000
  H   H470      1.0  0.41391943050330626  0.007358824717205836  0.12233801249053591  1.0000
  H   H471      1.0  0.3278979738879371  0.9459892003604929  0.1391359813194288  1.0000
  H   H472      1.0  0.3593640884163183  0.9160828614227401  0.17036067449899872  1.0000
  H   H473      1.0  0.3446419374054626  0.8891279110913354  0.12591602886885903  1.0000
  H   H474      1.0  0.3469012986343134  0.9786029740765563  0.07667170224557562  1.0000
  H   H475      1.0  0.3636903222221904  0.9223382043307212  0.061790156238649814  1.0000
  H   H476      1.0  0.3922768363891888  0.9723703339675805  0.06090542641588569  1.0000
  N   N30       1.0  0.6927305643749005  0.13126858239452033  0.050680531479287305  1.0000
  C   C309      1.0  0.7167850870485367  0.16459836098744818  0.07058256522543083  1.0000
  C   C310      1.0  0.6978993696885601  0.08391039949264512  0.06744125600702988  1.0000
  C   C311      1.0  0.7008891018712127  0.12988991186798549  0.008583883311013007  1.0000
  C   C312      1.0  0.655339051532113  0.14666863698104082  0.05606043863027743  1.0000
  H   H477      1.0  0.7094913992272239  0.1694548708386705  0.10173407755332475  1.0000
  H   H478      1.0  0.7161312367002368  0.19971948100968806  0.0564225835667691  1.0000
  H   H479      1.0  0.7449049364193231  0.15196048990812838  0.07021468142134779  1.0000
  H   H480      1.0  0.6794997895414362  0.05801310688330075  0.053991961268156086  1.0000
  H   H481      1.0  0.7257024312788946  0.07095126798908757  0.06317264629130426  1.0000
  H   H482      1.0  0.6929243577516222  0.08389867595762568  0.09933547081593896  1.0000
  H   H483      1.0  0.6839170401728744  0.10419736945927749  0.9928144647799676  1.0000
  H   H484      1.0  0.7292773126430422  0.12006585589695717  0.0034491658487476595  1.0000
  H   H485      1.0  0.6964558767189479  0.16480709043540998  0.9947137420984806  1.0000
  H   H486      1.0  0.636376456666003  0.12240377165270289  0.041434248100825855  1.0000
  H   H487      1.0  0.6507075379690962  0.18243777893749047  0.043900140719406844  1.0000
  H   H488      1.0  0.6482290834997938  0.14784031905747863  0.08748127681321989  1.0000
  N   N31       1.0  0.3606393695218204  0.8922663275365053  0.7675250118696132  1.0000
  C   C313      1.0  0.36076720806000573  0.9141169790175554  0.7284411113190138  1.0000
  C   C314      1.0  0.3619911099916727  0.8406563973664269  0.7633651674745507  1.0000
  C   C315      1.0  0.3277421673412338  0.9062364933163548  0.7882515539832062  1.0000
  C   C316      1.0  0.39207870464073136  0.9079406301632187  0.7900789213391038  1.0000
  H   H489      1.0  0.360669847575169  0.9530791559578567  0.7302830157170259  1.0000
  H   H490      1.0  0.3369764766971336  0.9035252085909804  0.7110835736344979  1.0000
  H   H491      1.0  0.38458375468792827  0.9029420424387299  0.7113947998003414  1.0000
  H   H492      1.0  0.3377119508646528  0.8271742889412831  0.7483815742425509  1.0000
  H   H493      1.0  0.3852988830252447  0.8289541681571594  0.7457698833796166  1.0000
  H   H494      1.0  0.3640124695650212  0.8229759078374893  0.7921817586970722  1.0000
  H   H495      1.0  0.3277352753055269  0.8924326784828611  0.8185552905117875  1.0000
  H   H496      1.0  0.3035428532378791  0.8923196083006905  0.773379704661947  1.0000
  H   H497      1.0  0.3250047964501812  0.9450454931854906  0.7902056270116481  1.0000
  H   H498      1.0  0.391924813267794  0.946702664596352  0.794080192578787  1.0000
  H   H499      1.0  0.4173476128854943  0.8978469636553692  0.775257690119901  1.0000
  H   H500      1.0  0.3926781419694762  0.8917719876924578  0.8197042484771244  1.0000
  N   N32       1.0  0.28504564722351095  0.5051369982161164  0.2593533189181785  1.0000
  C   C317      1.0  0.28748006502633805  0.47567725391047305  0.22392441173467192  1.0000
  C   C318      1.0  0.29340661610913765  0.476328155083766  0.2941173155037442  1.0000
  C   C319      1.0  0.24851123957569513  0.5246004724100715  0.2627228713187828  1.0000
  C   C320      1.0  0.310792232293059  0.5439838736137517  0.256698913297456  1.0000
  H   H501      1.0  0.2813033024224121  0.49640313877512454  0.1971725525869399  1.0000
  H   H502      1.0  0.2683200395650079  0.4461321473851802  0.22480825702007512  1.0000
  H   H503      1.0  0.31475256406115615  0.4606237016021145  0.22025368890675567  1.0000
  H   H504      1.0  0.2915551690146258  0.49744323112642314  0.32136967923485793  1.0000
  H   H505      1.0  0.274601483408693  0.4465705319351917  0.2970507350618732  1.0000
  H   H506      1.0  0.3209530317105225  0.4615750534935267  0.2928465360402166  1.0000
  H   H507      1.0  0.246029902674952  0.5479655430358104  0.2884904351426163  1.0000
  H   H508      1.0  0.22836045201278063  0.496437382498294  0.2655585606619717  1.0000
  H   H509      1.0  0.24103668195273825  0.5459914523085467  0.23677961480222298  1.0000
  H   H510      1.0  0.3102143668722243  0.5663180608861675  0.2833169783348195  1.0000
  H   H511      1.0  0.3047443919793023  0.5671354809780328  0.2313141554478486  1.0000
  H   H512      1.0  0.33856387803952886  0.5306500186734068  0.2532346638804952  1.0000
