data_image0
_chemical_formula_structural       FeS2FeS2FeSFeS3FeS2FeS2FeSFeS3FeS2FeS2FeSFeS3FeS2FeS2FeSFeS3FeS2FeS2FeSFeS3FeS2FeS2FeSFeS3FeS2FeS2FeSFeS3FeS2FeS2FeSFeS3FeS2FeS2FeSFeS3FeS2FeS2FeSFeS3FeS2FeS2FeSFeS3FeS2FeS2FeSFeS3FeS2FeS2FeSFeS3FeS2FeS2FeSFeS3FeS2FeS2FeSFeS3FeS2FeS2FeSFeS3FeS2FeS2FeSFeS3FeS2FeS2FeSFeS3FeS2FeS2FeSFeS3FeS2FeS2FeSFeS3FeS2FeS2FeSFeS3FeS2FeS2FeSFeS3FeS2FeS2FeSFeS3FeS2FeS2FeSFeS3FeS2FeS2FeSFeS3FeS2FeS2FeSFeS3FeS2FeS2FeSFeS3FeS2FeS2FeSFeS3FeS2FeS2FeSFeS3FeS2FeS2FeSFeS3FeS2FeS2FeSFeS3FeS2FeS2FeSFeS3C6H4C6H4C6H4C6H4C6H4C6H4C6H4C6H4C6H4C6H4C6H4C6H4C6H4C6H4C6H4C6H4C6H4C6H4C6H4C6H4C6H4C6H4C6H4C6H4C6H4C6H4C6H4C6H4C6H4C6H4C6H4C6H4C6H4C6H4C6H4C6H4C6H4C6H4C6H4C6H4C6H4C6H4C6H4C6H4C6H4C6H4C6H4C6H4C6H4C6H4C6H4C6H4C6H4C6H4C6H4C6H4C6H4C6H4C6H4C6H4C6H4C6H4C6H4C6H4NC4H12NC4H12NC4H12NC4H12NC4H12NC4H12NC4H12NC4H12NC4H12NC4H12NC4H12NC4H12NC4H12NC4H12NC4H12NC4H12NC4H12NC4H12NC4H12NC4H12NC4H12NC4H12NC4H12NC4H12NC4H12NC4H12NC4H12NC4H12NC4H12NC4H12NC4H12NC4H12NC4H12NC4H12NC4H12NC4H12NC4H12NC4H12NC4H12NC4H12NC4H12NC4H12NC4H12NC4H12NC4H12NC4H12NC4H12NC4H12NC4H12NC4H12NC4H12NC4H12NC4H12NC4H12NC4H12NC4H12NC4H12NC4H12NC4H12NC4H12NC4H12NC4H12NC4H12NC4H12
_chemical_formula_sum              "Fe128 S256 C640 H1024 N64"
_cell_length_a       40.58703638118949
_cell_length_b       49.38514632244134
_cell_length_c       46.39828115788003
_cell_angle_alpha    88.30965381093614
_cell_angle_beta     90.72839945466794
_cell_angle_gamma    90.99188284734471

_space_group_name_H-M_alt    "P 1"
_space_group_IT_number       1

loop_
  _space_group_symop_operation_xyz
  'x, y, z'

loop_
  _atom_site_type_symbol
  _atom_site_label
  _atom_site_symmetry_multiplicity
  _atom_site_fract_x
  _atom_site_fract_y
  _atom_site_fract_z
  _atom_site_occupancy
  Fe  Fe1       1.0  0.7046642362250497  0.3648114563519654  0.2273025315699428  1.0000
  S   S1        1.0  0.7060955912513353  0.3400055319406281  0.18777694518520105  1.0000
  S   S2        1.0  0.6853894266718686  0.4069150883968106  0.22798632375179134  1.0000
  Fe  Fe2       1.0  0.7377106439580118  0.32154917106237507  0.26491244879202236  1.0000
  S   S3        1.0  0.7411152073157016  0.29266361606354035  0.22865091973214205  1.0000
  S   S4        1.0  0.7621289003160182  0.31402085808349645  0.30811287045480545  1.0000
  Fe  Fe3       1.0  0.7571817994156159  0.32931511080851095  0.20236263704818863  1.0000
  S   S5        1.0  0.8032474810152255  0.3336434981256554  0.17579894816565997  1.0000
  Fe  Fe4       1.0  0.6895944853126778  0.3060593542094491  0.21788266138744092  1.0000
  S   S6        1.0  0.6484788743278299  0.2789727397249798  0.20219642818703965  1.0000
  S   S7        1.0  0.7571221386533195  0.35728079212795355  0.23936205021916457  1.0000
  S   S8        1.0  0.6847921502736329  0.3319112010040447  0.2565119758605002  1.0000
  Fe  Fe5       1.0  0.7499188495330144  0.8453768789940128  0.043538361938729286  1.0000
  S   S9        1.0  0.7613578546853305  0.8364884246562043  0.9976474009581736  1.0000
  S   S10       1.0  0.7872225606198106  0.8538719300685155  0.07851756409806931  1.0000
  Fe  Fe6       1.0  0.6763125675865619  0.839231490346881  0.033932706664993484  1.0000
  S   S11       1.0  0.6809871571277765  0.8299700083126846  0.9872561510924722  1.0000
  S   S12       1.0  0.6267791141030781  0.8371273216501609  0.05442174581883452  1.0000
  Fe  Fe7       1.0  0.7226434650287964  0.8037350749299231  0.002357946205327144  1.0000
  S   S13       1.0  0.731075371957898  0.7633222543024116  0.982967165851746  1.0000
  Fe  Fe8       1.0  0.7189000946198578  0.8634429770318356  0.9868284496940546  1.0000
  S   S14       1.0  0.7212983756540502  0.8952364994001791  0.9514016414047886  1.0000
  S   S15       1.0  0.7148519306521839  0.8102678879474174  0.04935200114464178  1.0000
  S   S16       1.0  0.7105299773038949  0.8753211122263066  0.03240217512081234  1.0000
  Fe  Fe9       1.0  0.9102752078484061  0.22424308348164015  0.11704086846850514  1.0000
  S   S17       1.0  0.9276557845644878  0.1909807542245718  0.08937198257537182  1.0000
  S   S18       1.0  0.8556293206466239  0.22559328677484553  0.12471312929490708  1.0000
  Fe  Fe10      1.0  0.9797482461322082  0.24427037623800632  0.12952005868062638  1.0000
  S   S19       1.0  0.0029647737228108983  0.21224169142432098  0.10377885534808895  1.0000
  S   S20       1.0  0.01325820924110821  0.27609805120353725  0.14767785867020697  1.0000
  Fe  Fe11      1.0  0.9632641199936939  0.22202971509429853  0.07162779818132003  1.0000
  S   S21       1.0  0.9775648242160764  0.2292004340453219  0.025673254800552492  1.0000
  Fe  Fe12      1.0  0.9656161137215873  0.18421946368510903  0.124296825166836  1.0000
  S   S22       1.0  0.9770445644005072  0.14301503349852998  0.1436444935058823  1.0000
  S   S23       1.0  0.9423003843888607  0.2562231976870125  0.09576154011571146  1.0000
  S   S24       1.0  0.945798067501086  0.21543378168679908  0.15337407668154687  1.0000
  Fe  Fe13      1.0  0.9330226049554812  0.9474042754926942  0.06637490314288064  1.0000
  S   S25       1.0  0.9017671526265297  0.9740722381870247  0.09270225407680122  1.0000
  S   S26       1.0  0.911886851121084  0.9190089681718984  0.03375276777354119  1.0000
  Fe  Fe14      1.0  0.9970148622030414  0.9670421726150314  0.09409265765072528  1.0000
  S   S27       1.0  0.9715466597309421  0.9960395741187512  0.12226160595738493  1.0000
  S   S28       1.0  0.05068794725939196  0.9588357020669881  0.10171459766161339  1.0000
  Fe  Fe15      1.0  0.9353539176725274  0.9618481115531246  0.1294426135518406  1.0000
  S   S29       1.0  0.9197913804429699  0.948591604224082  0.17394600149853406  1.0000
  Fe  Fe16      1.0  0.9407142992881068  0.00567289247514946  0.0829385643730145  1.0000
  S   S30       1.0  0.926396819005378  0.04727596611135487  0.06704431579272274  1.0000
  S   S31       1.0  0.9628263082546917  0.9320405982766707  0.1039826396705179  1.0000
  S   S32       1.0  0.9698658705782054  0.9798694972373159  0.053746332006221254  1.0000
  Fe  Fe17      1.0  0.6756087402362085  0.33812574088030994  0.45131448301488275  1.0000
  S   S33       1.0  0.6696193322298637  0.30591141100949765  0.48600367991354454  1.0000
  S   S34       1.0  0.6581487582522487  0.32723905610824405  0.40683768526314606  1.0000
  Fe  Fe18      1.0  0.6990515407390884  0.37983881491307253  0.49363891429670287  1.0000
  S   S35       1.0  0.6957925638211436  0.3510508096849111  0.5316524712795669  1.0000
  S   S36       1.0  0.7109411041695618  0.4227203908451623  0.5042684821028864  1.0000
  Fe  Fe19      1.0  0.7183379901757844  0.3212742116616337  0.5025231759265621  1.0000
  S   S37       1.0  0.7579463920293136  0.2909523078807598  0.5129367461230043  1.0000
  Fe  Fe20      1.0  0.6476946769512696  0.33859151655215153  0.5116411386561355  1.0000
  S   S38       1.0  0.6010896022065746  0.33568088526827916  0.5369245183525504  1.0000
  S   S39       1.0  0.7261850980234805  0.35144113728243714  0.46586047844168327  1.0000
  S   S40       1.0  0.6492428507255337  0.36955857152445504  0.4756470535378571  1.0000
  Fe  Fe21      1.0  0.661860551126818  0.8668509418642856  0.8021604468653754  1.0000
  S   S41       1.0  0.6463366242538788  0.9093214548259563  0.8099216429806172  1.0000
  S   S42       1.0  0.6912975965595887  0.8403956364446451  0.8326921810001197  1.0000
  Fe  Fe22      1.0  0.6304432080956783  0.8664423947282972  0.7424300285011455  1.0000
  S   S43       1.0  0.6128100892159088  0.9089047590801774  0.7446062975976301  1.0000
  S   S44       1.0  0.6234170232034686  0.8419487125266074  0.7029663457897862  1.0000
  Fe  Fe23      1.0  0.662611260613013  0.9177033867575443  0.7642653672726066  1.0000
  S   S45       1.0  0.694365187662794  0.9543017990028452  0.7532346840156596  1.0000
  Fe  Fe24      1.0  0.5983587548987651  0.8964017646974809  0.7897741216059503  1.0000
  S   S46       1.0  0.5485384313302922  0.9026573597842703  0.8088495228628217  1.0000
  S   S47       1.0  0.681414178202049  0.8760662711704742  0.7581748363068281  1.0000
  S   S48       1.0  0.6123232630973643  0.8530102281434024  0.7858829226890117  1.0000
  Fe  Fe25      1.0  0.8605683219829584  0.9671163073038179  0.6803418693635724  1.0000
  S   S49       1.0  0.8419806574385361  0.006876382319108476  0.6626814123348266  1.0000
  S   S50       1.0  0.8262685516030283  0.9311220990598363  0.6872814076566952  1.0000
  Fe  Fe26      1.0  0.9326135364523203  0.9853254009016572  0.6761765788940276  1.0000
  S   S51       1.0  0.9195885411202679  0.02652743470522334  0.6588043548798429  1.0000
  S   S52       1.0  0.986266875854762  0.9748922560675637  0.6793901939802134  1.0000
  Fe  Fe27      1.0  0.880280931274517  0.024859306181371776  0.6921238062099888  1.0000
  S   S53       1.0  0.8745800412046301  0.06276622449653102  0.7169312264181753  1.0000
  Fe  Fe28      1.0  0.883245250526469  0.004459149140223273  0.6312078858120109  1.0000
  S   S54       1.0  0.8774165397758369  0.01642780493485252  0.5843450349357112  1.0000
  S   S55       1.0  0.8961900201495798  0.9851820566080232  0.7123148792745196  1.0000
  S   S56       1.0  0.8988268515507314  0.9631886718576194  0.6463032137502902  1.0000
  Fe  Fe29      1.0  0.8826366420881279  0.22902282614193023  0.7059318902222167  1.0000
  S   S57       1.0  0.8847873273330975  0.2704807859935583  0.6851482765421092  1.0000
  S   S58       1.0  0.8839405787058785  0.21895645541032288  0.7535015994431827  1.0000
  Fe  Fe30      1.0  0.8811688202738832  0.20111073728701814  0.648486886472519  1.0000
  S   S59       1.0  0.8836876165052856  0.2401991033312933  0.622598450944362  1.0000
  S   S60       1.0  0.8763328599882069  0.1609853624543713  0.6272262727733608  1.0000
  Fe  Fe31      1.0  0.9212245553110678  0.25257034594269917  0.6556614897931851  1.0000
  S   S61       1.0  0.9689523694926938  0.27418327686101635  0.6458261655867162  1.0000
  Fe  Fe32      1.0  0.846771470404956  0.25426791928289594  0.6542550389305614  1.0000
  S   S62       1.0  0.8019772684912465  0.2791340565028236  0.644119084546692  1.0000
  S   S63       1.0  0.9221634270791539  0.21216489976801817  0.6788760074912765  1.0000
  S   S64       1.0  0.841327543602723  0.21415708490452898  0.6776932222132593  1.0000
  Fe  Fe33      1.0  0.48115947033288725  0.2986440341371068  0.25422890537145204  1.0000
  S   S65       1.0  0.48759564829140484  0.34352788823877517  0.24872900739158277  1.0000
  S   S66       1.0  0.5213048365750932  0.2773701606090213  0.27931034636072655  1.0000
  Fe  Fe34      1.0  0.41258572549317624  0.29952208490654036  0.22688260930192383  1.0000
  S   S67       1.0  0.4131788843746314  0.3446891162963326  0.2197103494651829  1.0000
  S   S68       1.0  0.3683432029346874  0.2736025269145391  0.21630843476289202  1.0000
  Fe  Fe35      1.0  0.4648486213199392  0.3381913644952677  0.20507339722515286  1.0000
  S   S69       1.0  0.48602713212486065  0.35659637395199456  0.16436896483209182  1.0000
  Fe  Fe36      1.0  0.4357015905512554  0.3453632056496897  0.2642130245044896  1.0000
  S   S70       1.0  0.4265884903115945  0.37429025348058104  0.299584186742646  1.0000
  S   S71       1.0  0.46281023568621804  0.2927905077430468  0.2089993833159968  1.0000
  S   S72       1.0  0.4307156485073898  0.30069221162143245  0.2727074829230686  1.0000
  Fe  Fe37      1.0  0.4782254345330203  0.8986248035895906  0.9787319473853072  1.0000
  S   S73       1.0  0.4684287811074689  0.885549591234707  0.9336679258511198  1.0000
  S   S74       1.0  0.5293663382248301  0.9148950587114799  0.9867295906912507  1.0000
  Fe  Fe38      1.0  0.40732519677152174  0.8895094028178266  0.9966462591382609  1.0000
  S   S75       1.0  0.3915196994425232  0.8757810429861156  0.9529351232842118  1.0000
  S   S76       1.0  0.36756703382369366  0.8888986513078146  0.030220503530449694  1.0000
  Fe  Fe39      1.0  0.4382271398979196  0.8522546058217909  0.9543866876396371  1.0000
  S   S77       1.0  0.43676974369197613  0.8112738738978708  0.934785183710086  1.0000
  Fe  Fe40      1.0  0.4229302431625515  0.9100893902704529  0.9360491256961696  1.0000
  S   S78       1.0  0.40889846529753704  0.9385856475301103  0.8997090758028471  1.0000
  S   S79       1.0  0.45175636481235665  0.8629400474516544  0.9996655120788847  1.0000
  S   S80       1.0  0.4349181428784196  0.9262152812105384  0.9795027046518268  1.0000
  Fe  Fe41      1.0  0.18513877871824763  0.26702234132925684  0.06090277866396154  1.0000
  S   S81       1.0  0.18634147457257166  0.28492050125081414  0.10472192513117816  1.0000
  S   S82       1.0  0.14926107617922185  0.28515998722395375  0.02880760484580991  1.0000
  Fe  Fe42      1.0  0.23578989851046778  0.22468187393701206  0.07742024474182796  1.0000
  S   S83       1.0  0.2412611142627274  0.23879755576375195  0.12259242462079734  1.0000
  S   S84       1.0  0.26551878067104717  0.19043644266016294  0.06170084553878907  1.0000
  Fe  Fe43      1.0  0.18615194813912161  0.24162006639812894  0.12069589826543656  1.0000
  S   S85       1.0  0.15330705841572426  0.22258018808192898  0.15425535780892674  1.0000
  Fe  Fe44      1.0  0.24117192731916495  0.2805670400063573  0.10223904670342598  1.0000
  S   S86       1.0  0.278574317473962  0.3134680410308052  0.11183478643080443  1.0000
  S   S87       1.0  0.18065808380494922  0.22396884723938615  0.07697047325033957  1.0000
  S   S88       1.0  0.24010645171267556  0.26611780941719265  0.05692612286007836  1.0000
  Fe  Fe45      1.0  0.22968252695988586  0.9944314555741414  0.1242298714276762  1.0000
  S   S89       1.0  0.22611902208130372  0.9920397148820799  0.07600823445565585  1.0000
  S   S90       1.0  0.2109764859146204  0.9585946894499844  0.15055668937329686  1.0000
  Fe  Fe46      1.0  0.2533158791490333  0.05298526058243058  0.1220028706232803  1.0000
  S   S91       1.0  0.2510810804230241  0.05571507640755513  0.07376113128573425  1.0000
  S   S92       1.0  0.2638899477162271  0.0897130945884248  0.1480987931632478  1.0000
  Fe  Fe47      1.0  0.20314923731194345  0.03297192427382267  0.07818561187294137  1.0000
  S   S93       1.0  0.1557910262752053  0.044526358784041875  0.0554982639008057  1.0000
  Fe  Fe48      1.0  0.2743953987337234  0.014750424592392175  0.07643236654925545  1.0000
  S   S94       1.0  0.31803863150540534  0.00750135514474648  0.04838124805155464  1.0000
  S   S95       1.0  0.20332399567513812  0.03371121446949066  0.12632559752810546  1.0000
  S   S96       1.0  0.2802561597257131  0.013658935965039642  0.12465303313266451  1.0000
  Fe  Fe49      1.0  0.43501119254743675  0.30681718407740083  0.4678612168683324  1.0000
  S   S97       1.0  0.4092585910790453  0.3444528869643655  0.45308370588305524  1.0000
  S   S98       1.0  0.48635997936653735  0.3024373419538578  0.4512670796145311  1.0000
  Fe  Fe50      1.0  0.37399309809157233  0.2831765117636667  0.4973248077092026  1.0000
  S   S99       1.0  0.3428469007308561  0.318673500081651  0.4843996917068835  1.0000
  S   S100      1.0  0.35671846138626306  0.2501435889798572  0.5281054499130649  1.0000
  Fe  Fe51      1.0  0.3677432589968325  0.3162863099991559  0.4415464759129147  1.0000
  S   S101      1.0  0.34187209755464476  0.3178192641761373  0.39845851132391064  1.0000
  Fe  Fe52      1.0  0.38732551000243787  0.343322445264618  0.4971342110909424  1.0000
  S   S102      1.0  0.38376920725402935  0.38094512581376605  0.522836534985791  1.0000
  S   S103      1.0  0.39499639884636145  0.27834905746976657  0.4533496357158185  1.0000
  S   S104      1.0  0.4168151160032904  0.30805395599790153  0.5132221549437919  1.0000
  Fe  Fe53      1.0  0.4151235227791117  0.93552808971375  0.7108182653524053  1.0000
  S   S105      1.0  0.41120644952772156  0.8906451321752257  0.7178691751594513  1.0000
  S   S106      1.0  0.46286644050365666  0.9587290002410067  0.7111202839901978  1.0000
  Fe  Fe54      1.0  0.34202485421399714  0.9424155842057276  0.7039567096154764  1.0000
  S   S107      1.0  0.3304453323203255  0.8979975832659634  0.7103676976889267  1.0000
  S   S108      1.0  0.3109222877535103  0.9786561468808597  0.6947694103981809  1.0000
  Fe  Fe55      1.0  0.3686192318393149  0.8998226854529152  0.7460557836441513  1.0000
  S   S109      1.0  0.3636140295694414  0.8767056804011603  0.7884264434915259  1.0000
  Fe  Fe56      1.0  0.3738853482504258  0.8921675263099746  0.6818364209023305  1.0000
  S   S110      1.0  0.3741546307337643  0.8650706783620551  0.6437365709845  1.0000
  S   S111      1.0  0.37589978239334304  0.9448150061268731  0.7420800362076  1.0000
  S   S112      1.0  0.3819630848382893  0.9363722220957568  0.6721419983494962  1.0000
  Fe  Fe57      1.0  0.12104215426415431  0.20539255596858622  0.609699189579247  1.0000
  S   S113      1.0  0.14519118896769576  0.21215548694199923  0.6525733451018684  1.0000
  S   S114      1.0  0.07032000380522296  0.1866490986804892  0.609116640692222  1.0000
  Fe  Fe58      1.0  0.18137824857154322  0.22431419857741652  0.5759304328968039  1.0000
  S   S115      1.0  0.21043840122120708  0.2325135560433383  0.6160516190238079  1.0000
  S   S116      1.0  0.2026990852086189  0.23044584099622042  0.5315822303760336  1.0000
  Fe  Fe59      1.0  0.18872931126468664  0.19317292297963806  0.6325936367992102  1.0000
  S   S117      1.0  0.2203524924574635  0.16235378457509442  0.6552655910278309  1.0000
  Fe  Fe60      1.0  0.16419888736623758  0.25094295028140273  0.6318871811522017  1.0000
  S   S118      1.0  0.16161727762903258  0.2910948249495461  0.6537842874574801  1.0000
  S   S119      1.0  0.1631459879407301  0.18339099215835938  0.5911438996534774  1.0000
  S   S120      1.0  0.13631463205446478  0.24574140886933707  0.5902096812740655  1.0000
  Fe  Fe61      1.0  0.11785411744459914  0.02080772039247325  0.5779725224109364  1.0000
  S   S121      1.0  0.15245247735482767  0.03296495167274971  0.5422137867224185  1.0000
  S   S122      1.0  0.06645779758053472  0.0364023700287619  0.5808756619028855  1.0000
  Fe  Fe62      1.0  0.16447114362369558  0.9807530434836074  0.6053430682191109  1.0000
  S   S123      1.0  0.20332460070701106  0.9888738827443729  0.5724388488603447  1.0000
  S   S124      1.0  0.17326477372005186  0.9485879281622002  0.6393675360455787  1.0000
  Fe  Fe63      1.0  0.19114237795733144  0.032469941551361625  0.5771876084406785  1.0000
  S   S125      1.0  0.2353420885657367  0.06028053233314146  0.5786498894357052  1.0000
  Fe  Fe64      1.0  0.1617263518573297  0.988446140769302  0.5405054721069952  1.0000
  S   S126      1.0  0.16780631263732462  0.9660453107105109  0.4997786702630985  1.0000
  S   S127      1.0  0.15565541137908767  0.024621198920121046  0.6133921494592621  1.0000
  S   S128      1.0  0.1236931034782448  0.976180389986196  0.5729612336112817  1.0000
  Fe  Fe65      1.0  0.24639232811549128  0.42866505891082457  0.7080498161019045  1.0000
  S   S129      1.0  0.26978630595933284  0.39095197889078565  0.7257351983225903  1.0000
  S   S130      1.0  0.19409164361031098  0.43857917962724546  0.7184381887175737  1.0000
  Fe  Fe66      1.0  0.3102466932400528  0.44978911051966775  0.6815420954441418  1.0000
  S   S131      1.0  0.3391738957896188  0.41394567871923976  0.6976139265539606  1.0000
  S   S132      1.0  0.33192733148873443  0.48257316721581744  0.6525893505163334  1.0000
  Fe  Fe67      1.0  0.2948919410738908  0.3900596228115428  0.683163794609534  1.0000
  S   S133      1.0  0.3001423678204076  0.3513576900221414  0.659785321934453  1.0000
  Fe  Fe68      1.0  0.3113918592660787  0.41849376611391886  0.7387082361237894  1.0000
  S   S134      1.0  0.3319179557057261  0.4107379317180578  0.783434692401175  1.0000
  S   S135      1.0  0.26775683861251837  0.4254438942329577  0.6639604874875432  1.0000
  S   S136      1.0  0.2862870555442357  0.45663349796334046  0.7238705167320448  1.0000
  Fe  Fe69      1.0  0.23369743408886487  0.8312954441441174  0.49186303726789415  1.0000
  S   S137      1.0  0.22185997519182668  0.7877169632157804  0.5023318981325893  1.0000
  S   S138      1.0  0.24380814438398044  0.85839677190038  0.5289719087469478  1.0000
  Fe  Fe70      1.0  0.22525047388373906  0.8242974578490014  0.42721978154177537  1.0000
  S   S139      1.0  0.21339636684935814  0.780056160176853  0.4324846612757858  1.0000
  S   S140      1.0  0.22487421633193833  0.8452645840776832  0.3835885670716495  1.0000
  Fe  Fe71      1.0  0.18202115304158617  0.7927728288305558  0.468881222975095  1.0000
  S   S141      1.0  0.12928144529201957  0.7791757265051159  0.47184664898348494  1.0000
  Fe  Fe72      1.0  0.2547370786633667  0.7797771134960715  0.4651254230100273  1.0000
  S   S142      1.0  0.29119229526897267  0.7458649957668816  0.468301274163918  1.0000
  S   S143      1.0  0.19092245336961197  0.8371777098455583  0.46138523133594556  1.0000
  S   S144      1.0  0.26937921285701294  0.8233434126402521  0.4568173738586422  1.0000
  Fe  Fe73      1.0  0.5245952486276234  0.47418325970461006  0.5589217738965514  1.0000
  S   S145      1.0  0.5533043016428906  0.4770559291891944  0.6004134242173085  1.0000
  S   S146      1.0  0.5250451317181047  0.435367849839988  0.5348705661831277  1.0000
  Fe  Fe74      1.0  0.501468642675352  0.5321770757525827  0.5609847063977286  1.0000
  S   S147      1.0  0.5282572968140021  0.5400970271122147  0.6024677065122968  1.0000
  S   S148      1.0  0.47350827891429814  0.5644401239827287  0.5365525763857965  1.0000
  Fe  Fe75      1.0  0.5696211013655634  0.5178737067349781  0.5829434297112484  1.0000
  S   S149      1.0  0.6210590391081966  0.5352857405465223  0.5809143764229573  1.0000
  Fe  Fe76      1.0  0.5089771781323097  0.4988419788440215  0.6159151484905209  1.0000
  S   S150      1.0  0.48702184130376364  0.48991900318364034  0.6595083406698512  1.0000
  S   S151      1.0  0.5444608535784389  0.5132418984550299  0.540099759119509  1.0000
  S   S152      1.0  0.4789796149138789  0.4925283907165597  0.5757179038353958  1.0000
  Fe  Fe77      1.0  0.48279536032210824  0.7542823996696912  0.6167371802599485  1.0000
  S   S153      1.0  0.5010899024318078  0.7669724594197597  0.5731849153929549  1.0000
  S   S154      1.0  0.489691672010965  0.7810888749297439  0.6546004712901501  1.0000
  Fe  Fe78      1.0  0.4545709759022847  0.7012489229668586  0.5956185161984837  1.0000
  S   S155      1.0  0.4698243324014284  0.7096417266670799  0.5497528830685409  1.0000
  S   S156      1.0  0.4318454782311939  0.6620745753912216  0.6119632712747738  1.0000
  Fe  Fe79      1.0  0.5171674361056984  0.7240406556179906  0.5700502310656751  1.0000
  S   S157      1.0  0.5668384673466712  0.7157277807814861  0.5517771571179985  1.0000
  Fe  Fe80      1.0  0.45205605840162305  0.7516714419008365  0.5572381892303239  1.0000
  S   S158      1.0  0.42596143506551803  0.7806675305460844  0.5269297443106538  1.0000
  S   S159      1.0  0.5033589314238851  0.7126634141088711  0.6153808300774577  1.0000
  S   S160      1.0  0.4323200076548439  0.7420249902989222  0.6013537033020762  1.0000
  Fe  Fe81      1.0  0.22199614833261444  0.44101832178459427  0.9052273129050428  1.0000
  S   S161      1.0  0.19226748152102638  0.45922085087903136  0.939669301246593  1.0000
  S   S162      1.0  0.24158793748143742  0.46913946513181487  0.8707776551286716  1.0000
  Fe  Fe82      1.0  0.21307784641143246  0.38442796437641924  0.9298219465007711  1.0000
  S   S163      1.0  0.18298479583828367  0.39779021149426397  0.9668498143071516  1.0000
  S   S164      1.0  0.224831153660789  0.34083397030577267  0.9249888583949595  1.0000
  Fe  Fe83      1.0  0.15784983303701133  0.42388613870027037  0.9332261580934269  1.0000
  S   S165      1.0  0.1035924782289104  0.4299474235715812  0.9259940437212448  1.0000
  Fe  Fe84      1.0  0.22044681689505427  0.4314070722042092  0.9696475584326578  1.0000
  S   S166      1.0  0.24019882617490282  0.4461316943969913  0.012015535482917894  1.0000
  S   S167      1.0  0.1853649564984945  0.40801024334277675  0.8959039718909554  1.0000
  S   S168      1.0  0.2529533457197325  0.4158272779766091  0.9354954887423883  1.0000
  Fe  Fe85      1.0  0.3164956600538476  0.8042128513685194  0.18506550315879894  1.0000
  S   S169      1.0  0.34067062097431317  0.8189145037825434  0.22579914411420285  1.0000
  S   S170      1.0  0.3393588594237952  0.7850065962561263  0.1469749137727298  1.0000
  Fe  Fe86      1.0  0.24841584362704486  0.8225853949934631  0.20148635720984923  1.0000
  S   S171      1.0  0.2663413166528103  0.8381722598245627  0.24360609626797664  1.0000
  S   S172      1.0  0.1958025204619327  0.8309422103509867  0.18920078777952912  1.0000
  Fe  Fe87      1.0  0.30870852900238516  0.8553075940973883  0.21859049347819728  1.0000
  S   S173      1.0  0.32115875448378833  0.8992860538828247  0.2240109383263784  1.0000
  Fe  Fe88      1.0  0.29585667814428424  0.8005331543147859  0.24730704607022846  1.0000
  S   S174      1.0  0.29515829952056677  0.7773107062304171  0.28970694105235284  1.0000
  S   S175      1.0  0.2889385132333776  0.8423045857087157  0.17580008434909808  1.0000
  S   S176      1.0  0.2739713599058493  0.7828964099516389  0.20714128294268222  1.0000
  Fe  Fe89      1.0  0.5017699117623186  0.748821345359547  0.10810425529977685  1.0000
  S   S177      1.0  0.46045273934201275  0.7198168076714768  0.09774216838150716  1.0000
  S   S178      1.0  0.49284339412099676  0.7876259052098827  0.13069972241151306  1.0000
  Fe  Fe90      1.0  0.5543011167283308  0.7112388243640774  0.08794761059882061  1.0000
  S   S179      1.0  0.517583611668283  0.679184766852761  0.075658678050323  1.0000
  S   S180      1.0  0.6079014992789887  0.7046428751781938  0.07896417074283656  1.0000
  Fe  Fe91      1.0  0.4880685618779639  0.7135799651286662  0.057117501234940075  1.0000
  S   S181      1.0  0.4608098923769163  0.7076807381140946  0.015384588650641629  1.0000
  Fe  Fe92      1.0  0.4932841480731107  0.6883590983948656  0.11711378843244158  1.0000
  S   S182      1.0  0.4730613903301017  0.6555894694647939  0.14633058412639585  1.0000
  S   S183      1.0  0.5269244130303214  0.7451691525378503  0.06558277604762708  1.0000
  S   S184      1.0  0.5324145738447856  0.7176519783933218  0.13131668301201177  1.0000
  Fe  Fe93      1.0  0.41968254566699514  0.47982230935996917  0.04987707481553261  1.0000
  S   S185      1.0  0.403082737210494  0.4982839251112744  0.09072083681024434  1.0000
  S   S186      1.0  0.39486751575662804  0.44397313304846037  0.029364335649642248  1.0000
  Fe  Fe94      1.0  0.4819229606197026  0.5155914180110707  0.04630638053006231  1.0000
  S   S187      1.0  0.47053410301844706  0.5367290112211738  0.08669447649712803  1.0000
  S   S188      1.0  0.5277257672123578  0.5248977506034539  0.020828307766585397  1.0000
  Fe  Fe95      1.0  0.4562636125184959  0.49549493608517764  0.1042017443004879  1.0000
  S   S189      1.0  0.47139110099982795  0.4829205958754879  0.14933886758394485  1.0000
  Fe  Fe96      1.0  0.4188828195888953  0.5375793119915995  0.0691450494159298  1.0000
  S   S190      1.0  0.3913952648314596  0.5765351110694229  0.06796118872006751  1.0000
  S   S191      1.0  0.47179050566695224  0.4739906662178662  0.06493505202522609  1.0000
  S   S192      1.0  0.4312414578662824  0.519435572481947  0.02694815535907602  1.0000
  Fe  Fe97      1.0  0.9080192353701049  0.4039321820470147  0.9578750405228659  1.0000
  S   S193      1.0  0.9341315642646983  0.4141988202974542  0.9992286523639742  1.0000
  S   S194      1.0  0.9051156600446334  0.4364092678649529  0.9230251005519174  1.0000
  Fe  Fe98      1.0  0.8905709109389469  0.3471812385870288  0.9790187181942044  1.0000
  S   S195      1.0  0.914939229759473  0.3528900031728423  0.021909686163473774  1.0000
  S   S196      1.0  0.8684902155620586  0.305899785664922  0.973549790595851  1.0000
  Fe  Fe99      1.0  0.8908436991049047  0.3933042354525979  0.020369878129514518  1.0000
  S   S197      1.0  0.8666384813652923  0.4083483251363569  0.060154705881803494  1.0000
  Fe  Fe100     1.0  0.9553309851141135  0.37273879520205017  0.996465312356077  1.0000
  S   S198      1.0  0.007410277725451886  0.3603662157085139  0.005642473435672146  1.0000
  S   S199      1.0  0.8629503475057508  0.38602389389242486  0.9792739271700246  1.0000
  S   S200      1.0  0.9327899473040099  0.36419630692203087  0.9533389274978536  1.0000
  Fe  Fe101     1.0  0.029741988353030546  0.8561110816296507  0.2622140536501978  1.0000
  S   S201      1.0  0.01952115200673865  0.8142612125519254  0.24639352916048413  1.0000
  S   S202      1.0  0.04265367788462182  0.890087384927614  0.23085600000618675  1.0000
  Fe  Fe102     1.0  0.028925609331981406  0.8377284063879356  0.32523384428354685  1.0000
  S   S203      1.0  0.018067343810092673  0.7944958670414902  0.3150640772113914  1.0000
  S   S204      1.0  0.04209008261721214  0.8492619210022897  0.37031591116570084  1.0000
  Fe  Fe103     1.0  0.05571623549126126  0.8010509278898884  0.2807049313815187  1.0000
  S   S205      1.0  0.09830740866767806  0.7733297425325063  0.27679525012470535  1.0000
  Fe  Fe104     1.0  0.982566448654869  0.8117232310751984  0.28201701150495473  1.0000
  S   S206      1.0  0.9310951486091752  0.7940589728373467  0.2783305931786065  1.0000
  S   S207      1.0  0.06929050135845038  0.8430317061893253  0.2933025699148055  1.0000
  S   S208      1.0  0.9900285635910964  0.8548637346036281  0.2955522440784668  1.0000
  Fe  Fe105     1.0  0.6944998790942303  0.494246057701243  0.0983654229683899  1.0000
  S   S209      1.0  0.6961537354124112  0.518135834323552  0.05680996210814793  1.0000
  S   S210      1.0  0.6675943474279441  0.45432020294690934  0.10168183466199986  1.0000
  Fe  Fe106     1.0  0.7377912357966777  0.5348350608164856  0.12989236005641347  1.0000
  S   S211      1.0  0.7434695514121302  0.5625373920199824  0.09096118154651811  1.0000
  S   S212      1.0  0.7569365562945359  0.5397447498240705  0.17495426432411998  1.0000
  Fe  Fe107     1.0  0.6893076843814315  0.5543225963382582  0.08408144964723996  1.0000
  S   S213      1.0  0.6500621159907524  0.5856149464128665  0.07730607873903361  1.0000
  Fe  Fe108     1.0  0.7499027608259344  0.5236773697634484  0.06745624755479618  1.0000
  S   S214      1.0  0.7869768447573944  0.5151234080355711  0.03350840053696813  1.0000
  S   S215      1.0  0.6832207809175178  0.5298159748324349  0.1249506501407345  1.0000
  S   S216      1.0  0.7486250475769938  0.4967463703524934  0.10705193682232372  1.0000
  Fe  Fe109     1.0  0.7971134827739705  0.699225016363816  0.11718598368378048  1.0000
  S   S217      1.0  0.7852674920721014  0.7419111401022884  0.12822444540933825  1.0000
  S   S218      1.0  0.7949911903646746  0.681866972162272  0.0730326425303689  1.0000
  Fe  Fe110     1.0  0.813520729865095  0.6828427493654966  0.17896448183112207  1.0000
  S   S219      1.0  0.8031080670089968  0.7238797195570958  0.1957270851308852  1.0000
  S   S220      1.0  0.8288160233693636  0.6489221354143931  0.20892307547543246  1.0000
  Fe  Fe111     1.0  0.7591008147200865  0.7224416863359504  0.16605201957605523  1.0000
  S   S221      1.0  0.7076527525184442  0.7305634440801473  0.18018861308460055  1.0000
  Fe  Fe112     1.0  0.830361967210762  0.739343586474094  0.1566135740791815  1.0000
  S   S222      1.0  0.8709706362548693  0.7709055488303477  0.15502367074778065  1.0000
  S   S223      1.0  0.7673508041250094  0.6800975772824756  0.15256931214452596  1.0000
  S   S224      1.0  0.844487836299996  0.698214260175642  0.14238800255268547  1.0000
  Fe  Fe113     1.0  0.9928917147135683  0.3314389578854737  0.802804477334749  1.0000
  S   S225      1.0  0.01170284105762942  0.32555379683511804  0.7583486453178879  1.0000
  S   S226      1.0  0.9722981594747262  0.2966406959749164  0.8292373163465797  1.0000
  Fe  Fe114     1.0  0.0103248493364414  0.3908826707885399  0.8018681227605405  1.0000
  S   S227      1.0  0.030697666688018765  0.3904734419184477  0.7572028614939907  1.0000
  S   S228      1.0  0.010230081335598884  0.43032299968437304  0.8243539382252745  1.0000
  Fe  Fe115     1.0  0.9865374383371915  0.364565835275676  0.747540732568012  1.0000
  S   S229      1.0  0.9568569409289598  0.37037582875609937  0.7070113086625858  1.0000
  Fe  Fe116     1.0  0.05414636106103954  0.35178559422691974  0.7722547093181311  1.0000
  S   S230      1.0  0.10482422178964357  0.3394093146027278  0.7597850870563972  1.0000
  S   S231      1.0  0.9637520238771358  0.3683046837126974  0.7909409010593036  1.0000
  S   S232      1.0  0.03774170856547476  0.35436078430085793  0.8180277485447555  1.0000
  Fe  Fe117     1.0  0.9484689184075792  0.8332410275816116  0.5001528702998892  1.0000
  S   S233      1.0  0.9674451243373613  0.818106125109036  0.5431915750530935  1.0000
  S   S234      1.0  0.9384060243509529  0.8079513095086971  0.4614906982778761  1.0000
  Fe  Fe118     1.0  0.9443710409059712  0.8915305617024236  0.5184385326577655  1.0000
  S   S235      1.0  0.9633388731278227  0.882060042950432  0.5631193638653016  1.0000
  S   S236      1.0  0.9298368375157255  0.9312040572596084  0.4977207136074166  1.0000
  Fe  Fe119     1.0  0.9993920662195168  0.8556832779142023  0.5414102736508078  1.0000
  S   S237      1.0  0.05334512538116476  0.8567902803188183  0.552762447306925  1.0000
  Fe  Fe120     1.0  0.9297381448091722  0.8454893661034487  0.5610243766203509  1.0000
  S   S238      1.0  0.8988033535135851  0.8340212623419494  0.5992962557236057  1.0000
  S   S239      1.0  0.9835642790243979  0.8686796549441165  0.4968805341583792  1.0000
  S   S240      1.0  0.9076137190472965  0.8572733403655584  0.5181492095198493  1.0000
  Fe  Fe121     1.0  0.7891721358132167  0.6902112286667492  0.6534276554494781  1.0000
  S   S241      1.0  0.7599004529444585  0.688058470461664  0.6123150001653465  1.0000
  S   S242      1.0  0.832907033721302  0.6645172734987457  0.6641464517588993  1.0000
  Fe  Fe122     1.0  0.7478435185819223  0.7354156557858678  0.6764097520747235  1.0000
  S   S243      1.0  0.7150584572430793  0.7371497908417157  0.6371124019003616  1.0000
  S   S244      1.0  0.7419218593961621  0.7615873558768832  0.7146460105594266  1.0000
  Fe  Fe123     1.0  0.7160455530792779  0.6918220565860578  0.640753232813251  1.0000
  S   S245      1.0  0.6703712206714664  0.6655943095688626  0.6396034673431955  1.0000
  Fe  Fe124     1.0  0.7622781020355318  0.7335271008189924  0.6129617283133042  1.0000
  S   S246      1.0  0.7765102926276524  0.7575671024358906  0.5730344758411311  1.0000
  S   S247      1.0  0.7452039859671595  0.6902470115571474  0.6820074524697034  1.0000
  S   S248      1.0  0.7950037096654614  0.7352471027959815  0.6521060072529039  1.0000
  Fe  Fe125     1.0  0.8241099341241633  0.5195607041155051  0.6296701052667002  1.0000
  S   S249      1.0  0.8114773510920772  0.5221618973020126  0.6764234486051985  1.0000
  S   S250      1.0  0.8294068918273267  0.5546852175248527  0.5981104553261921  1.0000
  Fe  Fe126     1.0  0.8149992617616081  0.45815753603299497  0.6298673307819309  1.0000
  S   S251      1.0  0.801196163861511  0.45549994858286835  0.6764510803232855  1.0000
  S   S252      1.0  0.8193021480263966  0.42171493153029  0.602315487887257  1.0000
  Fe  Fe127     1.0  0.771047750655708  0.4923967598334219  0.6661615548972898  1.0000
  S   S253      1.0  0.7189074300662674  0.4974096334791321  0.6807134797728793  1.0000
  Fe  Fe128     1.0  0.8430001689859697  0.4852750969591081  0.6820923443338559  1.0000
  S   S254      1.0  0.880915152215067  0.479867121587753  0.7174234258691249  1.0000
  S   S255      1.0  0.7814934513221492  0.49245982603767974  0.6191123042911288  1.0000
  S   S256      1.0  0.8591574479026199  0.4852886231584884  0.6360066997778824  1.0000
  C   C1        1.0  0.8335238050428516  0.6344373851489998  0.645057150172277  1.0000
  C   C2        1.0  0.8443842109062135  0.6106549656567616  0.658968775736061  1.0000
  C   C3        1.0  0.843381202001005  0.5861136860476585  0.6445297109900442  1.0000
  C   C4        1.0  0.8321137563166124  0.5854195010860573  0.6159648128860897  1.0000
  C   C5        1.0  0.8222213853016163  0.6093597280576086  0.6017265252492482  1.0000
  C   C6        1.0  0.8226391835130783  0.6338248974242091  0.6163428492121036  1.0000
  H   H1        1.0  0.8531052202419463  0.6110947674779914  0.6810993289633266  1.0000
  H   H2        1.0  0.8518785526777458  0.567823791914037  0.6553881394267254  1.0000
  H   H3        1.0  0.8136609606186972  0.6088920952985267  0.5795634571912245  1.0000
  H   H4        1.0  0.8146461553603939  0.6521181242378984  0.6052905102434478  1.0000
  C   C7        1.0  0.864112962449435  0.8138737069909343  0.5912105888173158  1.0000
  C   C8        1.0  0.8586618857217968  0.8043514300714353  0.5634278742787576  1.0000
  C   C9        1.0  0.8310156489045804  0.7878001359226207  0.5576483329300435  1.0000
  C   C10       1.0  0.8088624741975831  0.7807294541143095  0.5796322650888607  1.0000
  C   C11       1.0  0.8138528124972574  0.7909762958326754  0.6071472333694008  1.0000
  C   C12       1.0  0.8415096420911514  0.8073971043140455  0.6129707256423806  1.0000
  H   H5        1.0  0.8760436281520356  0.809199345291591  0.5465171880666737  1.0000
  H   H6        1.0  0.8271949692539358  0.779963311573603  0.5362960241388387  1.0000
  H   H7        1.0  0.7961651107886849  0.7865078934521971  0.6238903974897873  1.0000
  H   H8        1.0  0.8453841788294377  0.8150439102334014  0.6343893790300875  1.0000
  C   C13       1.0  0.9376623536436185  0.4018953263180344  0.7078775942830708  1.0000
  C   C14       1.0  0.9491110415470807  0.4216448717573405  0.7267305415975855  1.0000
  C   C15       1.0  0.9327093092412317  0.44629137795880247  0.7282985473131116  1.0000
  C   C16       1.0  0.9042228639025744  0.4509499441267547  0.711700333715218  1.0000
  C   C17       1.0  0.8931684895740166  0.4314332348990365  0.6923835155059863  1.0000
  C   C18       1.0  0.9100407191335448  0.40700615582351984  0.690385858518071  1.0000
  H   H9        1.0  0.9706234903214446  0.4180330783989808  0.7401007622930448  1.0000
  H   H10       1.0  0.9419650950392472  0.46165447911799573  0.7425676012766754  1.0000
  H   H11       1.0  0.8712319861503592  0.4348788187532661  0.6794417295147052  1.0000
  H   H12       1.0  0.9012411377196223  0.391754277743847  0.6759162274184523  1.0000
  C   C19       1.0  0.7780736280193281  0.5698734099262953  0.18326848532958206  1.0000
  C   C20       1.0  0.7886827622388227  0.5735800447535174  0.21171005067332369  1.0000
  C   C21       1.0  0.8048136294571072  0.5976849526418833  0.2193222302509994  1.0000
  C   C22       1.0  0.8100484798152923  0.6183574033278797  0.19859099517231932  1.0000
  C   C23       1.0  0.7997935707855842  0.6146009196076693  0.1700025288421183  1.0000
  C   C24       1.0  0.7839181707143503  0.5902941773946926  0.16231739037224635  1.0000
  H   H13       1.0  0.784300831684137  0.5577889223107735  0.22795040778531991  1.0000
  H   H14       1.0  0.8127527478276588  0.6004494012111276  0.24140343484960836  1.0000
  H   H15       1.0  0.8047850954380146  0.630141489907226  0.15367956735587018  1.0000
  H   H16       1.0  0.7765272186428768  0.5872796088303223  0.1402095749878398  1.0000
  C   C25       1.0  0.014127899633421537  0.8349290079962116  0.3950019015975363  1.0000
  C   C26       1.0  0.9838269954387018  0.8240682031244349  0.3858299465120101  1.0000
  C   C27       1.0  0.9610820779482038  0.8140821872340626  0.4062810492875277  1.0000
  C   C28       1.0  0.9687105304907201  0.8151206434704572  0.43574855282059927  1.0000
  C   C29       1.0  0.9997552907239676  0.8244480448583623  0.44461558150348124  1.0000
  C   C30       1.0  0.022318036052823675  0.8345336243418553  0.42432509168725724  1.0000
  H   H17       1.0  0.9775628537628218  0.8239423143041477  0.3630934794273619  1.0000
  H   H18       1.0  0.9371960882220688  0.8064732715656389  0.39933096648746835  1.0000
  H   H19       1.0  0.006295615362628348  0.8239742794692223  0.46720545751178005  1.0000
  H   H20       1.0  0.04608353965387546  0.8419608967904413  0.43140463168261173  1.0000
  C   C31       1.0  0.9147392940138926  0.7887784908219819  0.24368863934211754  1.0000
  C   C32       1.0  0.9349678388110453  0.7885524969011061  0.21952318464219364  1.0000
  C   C33       1.0  0.9213731210194502  0.7830297637585226  0.19229703266585785  1.0000
  C   C34       1.0  0.8875348907559217  0.7777732247770286  0.1891708318131351  1.0000
  C   C35       1.0  0.8672397495781449  0.7782810646274121  0.21323919184608323  1.0000
  C   C36       1.0  0.880863526673979  0.783640974672861  0.24046139790362028  1.0000
  H   H21       1.0  0.9611395716093063  0.792110069063374  0.22183506429511388  1.0000
  H   H22       1.0  0.9371841382117809  0.7825777495731192  0.1737126215496912  1.0000
  H   H23       1.0  0.840994485499322  0.7746682624251725  0.2109044335729832  1.0000
  H   H24       1.0  0.8650884544305933  0.7838492795441111  0.25909456103653145  1.0000
  C   C37       1.0  0.9352935580001863  0.43394879808788683  0.896497390168646  1.0000
  C   C38       1.0  0.9478745884852879  0.4577090239651576  0.8833450652923474  1.0000
  C   C39       1.0  0.9714142980248479  0.45636705369582664  0.8616502135358671  1.0000
  C   C40       1.0  0.9817149575319154  0.43124844858881894  0.85234118465425  1.0000
  C   C41       1.0  0.9687348193261263  0.4073760936214412  0.8650372374436048  1.0000
  C   C42       1.0  0.9457522771140782  0.4087333245863325  0.8873602422156128  1.0000
  H   H25       1.0  0.9396736053605468  0.4772225889578461  0.890125220513036  1.0000
  H   H26       1.0  0.9813114129698302  0.4748449342571605  0.8517715304840556  1.0000
  H   H27       1.0  0.9764264947766425  0.3879403410488524  0.8576494890484844  1.0000
  H   H28       1.0  0.9353236126134696  0.3903290702123009  0.8967939918261933  1.0000
  C   C43       1.0  0.8428373076571412  0.4372262967532927  0.05313178345554337  1.0000
  C   C44       1.0  0.8387993910123919  0.4560255916457364  0.07477736737723739  1.0000
  C   C45       1.0  0.8207498550975069  0.4796367854253371  0.06913519852359129  1.0000
  C   C46       1.0  0.8065899249772145  0.4844412853705808  0.041839846141117576  1.0000
  C   C47       1.0  0.8099165466534476  0.46530200953917406  0.02047718423655187  1.0000
  C   C48       1.0  0.82818538983321  0.44182924064264856  0.026033893784143336  1.0000
  H   H29       1.0  0.8505907169480462  0.45281550513925195  0.09560514894905503  1.0000
  H   H30       1.0  0.8187803711255556  0.4946114492826167  0.08556097159994036  1.0000
  H   H31       1.0  0.7982677597969864  0.4686408801146217  0.9995968500005818  1.0000
  H   H32       1.0  0.8305835717483281  0.42723256767522644  0.009391497706800145  1.0000
  C   C49       1.0  0.5610558380965059  0.5421725017262274  0.03710365226934065  1.0000
  C   C50       1.0  0.5566890604437448  0.5591831952532044  0.06033662559520758  1.0000
  C   C51       1.0  0.5838760227519533  0.57315908889186  0.07228438860896724  1.0000
  C   C52       1.0  0.6155688011874071  0.5695864049981176  0.06146735691896055  1.0000
  C   C53       1.0  0.6198119290546272  0.5525843414824325  0.03831609020998128  1.0000
  C   C54       1.0  0.5926213519931085  0.5391788444770026  0.025991853629210082  1.0000
  H   H33       1.0  0.5324133952102167  0.5617505612543299  0.06893567902286857  1.0000
  H   H34       1.0  0.5804349612508687  0.5863011607023393  0.09021826484767925  1.0000
  H   H35       1.0  0.644042615140759  0.5500755238895256  0.02947459811552866  1.0000
  H   H36       1.0  0.5961466093272102  0.526219648541174  0.007898214197468612  1.0000
  C   C55       1.0  0.635216814215094  0.7115679427858923  0.10748075976960368  1.0000
  C   C56       1.0  0.624257087138863  0.7122119164347018  0.1359045651548415  1.0000
  C   C57       1.0  0.6464632596690322  0.7182503747184092  0.15833413524644868  1.0000
  C   C58       1.0  0.6797866976778344  0.7230362421235871  0.1523876062008724  1.0000
  C   C59       1.0  0.6908595582289697  0.7216332373159077  0.12413735059953811  1.0000
  C   C60       1.0  0.668609829282249  0.7162104544569794  0.10165661640630619  1.0000
  H   H37       1.0  0.5988335666549526  0.7077322994474389  0.14074061420439582  1.0000
  H   H38       1.0  0.6379327500968378  0.7189270233099688  0.18030625243089413  1.0000
  H   H39       1.0  0.7164990290864522  0.7254442402863314  0.11960991465678512  1.0000
  H   H40       1.0  0.6772727255446866  0.7161597827594317  0.07971239541027453  1.0000
  C   C61       1.0  0.44731423791156477  0.6341275499667001  0.12636817050484098  1.0000
  C   C62       1.0  0.44478637452675296  0.6065978172959832  0.13409544058831235  1.0000
  C   C63       1.0  0.4265040986081681  0.588910225969015  0.11673740978787112  1.0000
  C   C64       1.0  0.41003998077116277  0.5988751697820657  0.09208236864121022  1.0000
  C   C65       1.0  0.4110292080650696  0.6266575504831157  0.08527715325432283  1.0000
  C   C66       1.0  0.4301913917881715  0.6442029632460516  0.10207984698937378  1.0000
  H   H41       1.0  0.45785617899425085  0.598750009238381  0.15294147443342498  1.0000
  H   H42       1.0  0.42523762111619967  0.56751610552778  0.12240955724566288  1.0000
  H   H43       1.0  0.39807812784751023  0.6344304196336406  0.06634937299933785  1.0000
  H   H44       1.0  0.4319948888399454  0.6654111623804834  0.09593158723351602  1.0000
  C   C67       1.0  0.16817646006642903  0.8126926531169296  0.21133037850225103  1.0000
  C   C68       1.0  0.1788298293411731  0.7909940216248479  0.22895414765241467  1.0000
  C   C69       1.0  0.15696108574378487  0.7781320021985453  0.24838622427648308  1.0000
  C   C70       1.0  0.12465794942357045  0.7872872167069772  0.2504826107599311  1.0000
  C   C71       1.0  0.11398079012716877  0.8087197999710637  0.23254811604100922  1.0000
  C   C72       1.0  0.13555687539605424  0.8211500921648563  0.2127324247022186  1.0000
  H   H45       1.0  0.2040038719286122  0.7843341593518249  0.2279128488651376  1.0000
  H   H46       1.0  0.16531676802511552  0.7615542553171756  0.26223546293075906  1.0000
  H   H47       1.0  0.08909261363278653  0.815845695399134  0.23395254948196284  1.0000
  H   H48       1.0  0.12710943467692715  0.8377388511893167  0.19901427300332314  1.0000
  C   C73       1.0  0.3817562633620447  0.7894495297454587  0.1417887799410926  1.0000
  C   C74       1.0  0.3953067245854319  0.7787639496979326  0.11716391851277118  1.0000
  C   C75       1.0  0.4293251196021777  0.7799840012377917  0.11297788080971  1.0000
  C   C76       1.0  0.45015091481060665  0.7910832948544507  0.13383061060991638  1.0000
  C   C77       1.0  0.4366364093919829  0.8026541507139047  0.15814991933341013  1.0000
  C   C78       1.0  0.40230821824819074  0.8018948784685307  0.16211772925955356  1.0000
  H   H49       1.0  0.37944913823944787  0.7690038217260906  0.10158267475101622  1.0000
  H   H50       1.0  0.43952848589643334  0.7722827866215562  0.09353972957360822  1.0000
  H   H51       1.0  0.45271286847989267  0.8113333056936244  0.17434893119313985  1.0000
  H   H52       1.0  0.391943178236709  0.810194600214114  0.18122355341718313  1.0000
  C   C79       1.0  0.07714364936268403  0.40942704299501964  0.9472904699760835  1.0000
  C   C80       1.0  0.08953554186476786  0.38982098711703583  0.9667347582569839  1.0000
  C   C81       1.0  0.06803071689549256  0.3745728223658214  0.9845094759673185  1.0000
  C   C82       1.0  0.03407494102016306  0.37886929952162074  0.9827865930824696  1.0000
  C   C83       1.0  0.021529216311832133  0.39777760501674003  0.9626503018900315  1.0000
  C   C84       1.0  0.04305321797284912  0.41303167363174204  0.9449242782217033  1.0000
  H   H53       1.0  0.11564290649410164  0.38656158446052025  0.9683763514632985  1.0000
  H   H54       1.0  0.07779006809450961  0.35978227000923224  0.9998707639221166  1.0000
  H   H55       1.0  0.9953056686852434  0.40106317235293293  0.961034517080928  1.0000
  H   H56       1.0  0.033290895211502754  0.42799869196528456  0.9297380011261448  1.0000
  C   C85       1.0  0.28318617431349963  0.44533416368876827  0.01691388482116607  1.0000
  C   C86       1.0  0.30207159541609885  0.4265118063085757  0.002786771827640422  1.0000
  C   C87       1.0  0.3363166204617344  0.4260785515896777  0.007078439642488332  1.0000
  C   C88       1.0  0.3519242309919123  0.4448062020414844  0.02502360678052118  1.0000
  C   C89       1.0  0.3331226743704584  0.46372959912039646  0.0390767803034382  1.0000
  C   C90       1.0  0.29872999920477983  0.463763561735844  0.03527166320948383  1.0000
  H   H57       1.0  0.29039974875048813  0.4120056043293337  0.9888571804160914  1.0000
  H   H58       1.0  0.350830875893219  0.41134033912996676  0.9962628624309895  1.0000
  H   H59       1.0  0.3450029202738195  0.47825984126572807  0.0529619311126599  1.0000
  H   H60       1.0  0.2841991112575365  0.47835230200356443  0.046291961491645495  1.0000
  C   C91       1.0  0.5952931155374956  0.7015518773566012  0.5763063060261139  1.0000
  C   C92       1.0  0.628978618505827  0.7066027718293483  0.5723049125257724  1.0000
  C   C93       1.0  0.6521488194485071  0.6957207581834816  0.5918701164288753  1.0000
  C   C94       1.0  0.6416633749373625  0.6791748212654952  0.6150446654531073  1.0000
  C   C95       1.0  0.6080159765285856  0.6737284091556611  0.6188345504168946  1.0000
  C   C96       1.0  0.5847995440215117  0.6851873163907699  0.599660439893558  1.0000
  H   H61       1.0  0.6371726526047938  0.719228859292505  0.5542183465104311  1.0000
  H   H62       1.0  0.6781561389885531  0.6999261070754136  0.5888142953942102  1.0000
  H   H63       1.0  0.5999095030986498  0.6609091894907346  0.6367896207613797  1.0000
  H   H64       1.0  0.5588892215299581  0.6807997810064754  0.6025732196565402  1.0000
  C   C97       1.0  0.6477794041097539  0.5238939818937048  0.6085149345246359  1.0000
  C   C98       1.0  0.6358451114328447  0.5101310448890475  0.6331165536560529  1.0000
  C   C99       1.0  0.6577917497712885  0.5020191778386597  0.6552820156363841  1.0000
  C   C100      1.0  0.6916838087953642  0.507311033302863  0.652695845797204  1.0000
  C   C101      1.0  0.7034480122431289  0.5211229675025021  0.6280668788743482  1.0000
  C   C102      1.0  0.6815755002258324  0.5293653290653613  0.6060356140989529  1.0000
  H   H65       1.0  0.6097005939026425  0.5061102168134726  0.6353233400622103  1.0000
  H   H66       1.0  0.6485070454502019  0.4915611342505625  0.6744169359129804  1.0000
  H   H67       1.0  0.7292451545527481  0.5262466838153098  0.626324268136123  1.0000
  H   H68       1.0  0.6908294055055446  0.5401693792178717  0.5871119385104837  1.0000
  C   C103      1.0  0.4622557080074279  0.5914759155680971  0.557730873460328  1.0000
  C   C104      1.0  0.4634915189703105  0.5891686119569943  0.5878315728846046  1.0000
  C   C105      1.0  0.45464743975214034  0.611084351932482  0.604458826126222  1.0000
  C   C106      1.0  0.44450203703847807  0.6353252446476401  0.5910074148990798  1.0000
  C   C107      1.0  0.44334415875865024  0.6376631416775137  0.5609189215786192  1.0000
  C   C108      1.0  0.45202206433188563  0.6156913520486375  0.5442994310918867  1.0000
  H   H69       1.0  0.4704844712511204  0.5703288772682399  0.5983528785952873  1.0000
  H   H70       1.0  0.45575477792877295  0.6092768692082254  0.6277399341743094  1.0000
  H   H71       1.0  0.4349338743603194  0.6561672138624293  0.5504245924580956  1.0000
  H   H72       1.0  0.4507989488723516  0.6174722968132316  0.5210024982137077  1.0000
  C   C109      1.0  0.10837223866590896  0.7991341789118399  0.4961157422823713  1.0000
  C   C110      1.0  0.12588591221754475  0.815906747074998  0.5149464302081562  1.0000
  C   C111      1.0  0.10890293408494012  0.8328605618932279  0.5332136266271158  1.0000
  C   C112      1.0  0.07441151932948054  0.8333298103982992  0.532407216181379  1.0000
  C   C113      1.0  0.056972450424500165  0.8162550408321745  0.5139163916692989  1.0000
  C   C114      1.0  0.07389985423254553  0.7991474198674725  0.49582625156751653  1.0000
  H   H73       1.0  0.15253296332208582  0.8157964716553598  0.515507055981479  1.0000
  H   H74       1.0  0.1225505848594508  0.8458678543823597  0.5476399363468937  1.0000
  H   H75       1.0  0.03040008987353615  0.8163199676274798  0.5133877951811786  1.0000
  H   H76       1.0  0.06023058534434412  0.7861823550642181  0.48136399270099045  1.0000
  C   C115      1.0  0.24439229773405932  0.8262240830165101  0.3576917594778918  1.0000
  C   C116      1.0  0.26520048402750507  0.8392401989087982  0.33764451341768376  1.0000
  C   C117      1.0  0.2806896318361193  0.824284265668908  0.31660647402596004  1.0000
  C   C118      1.0  0.27519745527605566  0.7962931684426857  0.3154324821598019  1.0000
  C   C119      1.0  0.2542765340658395  0.7832948755163013  0.33541179115570335  1.0000
  C   C120      1.0  0.238870876455261  0.7982336022627454  0.3565165567059641  1.0000
  H   H77       1.0  0.26982358537950574  0.8608448859288967  0.3386775127288066  1.0000
  H   H78       1.0  0.29741984412671346  0.8343618388236278  0.3016377597040634  1.0000
  H   H79       1.0  0.24960272632560224  0.7617080726232358  0.33425716311321635  1.0000
  H   H80       1.0  0.22230592827306156  0.7881310218116813  0.3714937353575107  1.0000
  C   C121      1.0  0.32888606254865443  0.7551164776420692  0.4845782561977636  1.0000
  C   C122      1.0  0.34818944883377617  0.7354899801644855  0.49886040084620886  1.0000
  C   C123      1.0  0.3783983487106786  0.742913507766026  0.5118528122266431  1.0000
  C   C124      1.0  0.3895601050287948  0.7698611487108707  0.5098859510558795  1.0000
  C   C125      1.0  0.37076574262367823  0.7891879402119655  0.49481932390081157  1.0000
  C   C126      1.0  0.3403953915585143  0.7819133824717394  0.48250376506910464  1.0000
  H   H81       1.0  0.3395759043681614  0.7146316886044326  0.5002483393675669  1.0000
  H   H82       1.0  0.39298913008809594  0.7278662342373222  0.523360813002331  1.0000
  H   H83       1.0  0.3795569583539762  0.8099853795694227  0.4930186984076541  1.0000
  H   H84       1.0  0.32632240941902413  0.7970544260359337  0.4710024403146759  1.0000
  C   C127      1.0  0.16919912561374978  0.41077091650201675  0.7288841210247413  1.0000
  C   C128      1.0  0.14014625071518483  0.4152902730089418  0.7437760109714161  1.0000
  C   C129      1.0  0.1204358222595443  0.3933879508010093  0.7534404934212152  1.0000
  C   C130      1.0  0.12936700379792154  0.3668975948104501  0.747750215707013  1.0000
  C   C131      1.0  0.15832892487438288  0.362313553532882  0.7326962073146295  1.0000
  C   C132      1.0  0.17825500191012317  0.38425906232863316  0.7232684276534646  1.0000
  H   H85       1.0  0.13309151013193526  0.435807553165956  0.7480556284942317  1.0000
  H   H86       1.0  0.09864690308005275  0.3970650381339076  0.7656689243082712  1.0000
  H   H87       1.0  0.16527271585824477  0.34182191700381953  0.7280794541113755  1.0000
  H   H88       1.0  0.20035383763337922  0.3806737140061814  0.7113246713447142  1.0000
  C   C133      1.0  0.3101651162604072  0.42841644654853955  0.8090687316651691  1.0000
  C   C134      1.0  0.3037576821995197  0.4162100732011404  0.836090592925963  1.0000
  C   C135      1.0  0.2824055237703339  0.4284761400270238  0.8551458267819828  1.0000
  C   C136      1.0  0.26865752490733746  0.45354015764668393  0.8476503321168024  1.0000
  C   C137      1.0  0.27638773686649304  0.46634051926828296  0.8212908117062586  1.0000
  C   C138      1.0  0.29685358701018244  0.4536648978842899  0.8019231268161201  1.0000
  H   H89       1.0  0.31448569698921464  0.3968590349017729  0.8418431748721501  1.0000
  H   H90       1.0  0.27661388575536977  0.41847944814687255  0.8755054803428935  1.0000
  H   H91       1.0  0.2660468283226287  0.48584595061461633  0.8155222778319912  1.0000
  H   H92       1.0  0.3026329522814756  0.4636226600447687  0.7815811220172164  1.0000
  C   C139      1.0  0.3747602874994795  0.4861498964075335  0.6560111805530882  1.0000
  C   C140      1.0  0.39237551131500037  0.4982064041229069  0.6332019380371847  1.0000
  C   C141      1.0  0.42672022063699244  0.5006838080038822  0.6349331845968234  1.0000
  C   C142      1.0  0.4437756603777211  0.4901847197850729  0.658983101759423  1.0000
  C   C143      1.0  0.4260924371754981  0.4788331907167536  0.6822431716916737  1.0000
  C   C144      1.0  0.39151564846056597  0.47699628208955874  0.6808598941141465  1.0000
  H   H93       1.0  0.37947179744153536  0.5052912475391066  0.6139777430233667  1.0000
  H   H94       1.0  0.43995709195393085  0.510801957603689  0.6176748296278877  1.0000
  H   H95       1.0  0.43916676981957997  0.47103050149690895  0.7011120502468982  1.0000
  H   H96       1.0  0.37795040899808113  0.468097153822781  0.698798649639299  1.0000
  C   C145      1.0  0.1900850764410241  0.9367703250234439  0.5081457533139457  1.0000
  C   C146      1.0  0.1908116928171159  0.9261102454747953  0.5364311146276484  1.0000
  C   C147      1.0  0.20746024966652982  0.9020323070463682  0.5428593058612137  1.0000
  C   C148      1.0  0.22330045622770006  0.8885727179784734  0.5210063778378348  1.0000
  C   C149      1.0  0.22234867567175542  0.8990740355908672  0.4926945706664598  1.0000
  C   C150      1.0  0.20592846342099108  0.9232840182177218  0.48630788599754665  1.0000
  H   H97       1.0  0.17787026879426115  0.9360248192368483  0.5532689951102566  1.0000
  H   H98       1.0  0.2073490597513399  0.8935181637753196  0.564592835905014  1.0000
  H   H99       1.0  0.23472759608008942  0.888748603656157  0.4757714455659586  1.0000
  H   H100      1.0  0.2055869979704119  0.931591390151894  0.46446135994630133  1.0000
  C   C151      1.0  0.20031061575282164  0.3074204853390593  0.6573114708578471  1.0000
  C   C152      1.0  0.20206838172672809  0.33529735168611163  0.6620157545332528  1.0000
  C   C153      1.0  0.2327723636613418  0.34874831626010144  0.6634010009257101  1.0000
  C   C154      1.0  0.26181317296373036  0.33437535239001603  0.6600128154796455  1.0000
  C   C155      1.0  0.2601337486500864  0.3064492805351188  0.6560067000899703  1.0000
  C   C156      1.0  0.22946376932684961  0.2929891335533403  0.6550008397891369  1.0000
  H   H101      1.0  0.17975785294182936  0.34662257895415927  0.6642017229374932  1.0000
  H   H102      1.0  0.2338823703506756  0.37034310944678794  0.6665155986921818  1.0000
  H   H103      1.0  0.28253899551182676  0.2951008637530833  0.6542388020720755  1.0000
  H   H104      1.0  0.2285234298128393  0.2713458875200148  0.6532108506530946  1.0000
  C   C157      1.0  0.22376064395085948  0.13312234180770408  0.6351388721707049  1.0000
  C   C158      1.0  0.1965594580064704  0.12281981576962928  0.6199331708472008  1.0000
  C   C159      1.0  0.1996162065912096  0.09966246117646427  0.6034345295552817  1.0000
  C   C160      1.0  0.23024922965435723  0.08741490445930533  0.6014020150541615  1.0000
  C   C161      1.0  0.2575552984363987  0.0978837925270773  0.6163160976992639  1.0000
  C   C162      1.0  0.25415641121076726  0.12039437602720263  0.6336511326664899  1.0000
  H   H105      1.0  0.1732379023967665  0.13274102362084664  0.6209721991062425  1.0000
  H   H106      1.0  0.17866234726102728  0.09174256050623945  0.5915570587383303  1.0000
  H   H107      1.0  0.28128373204053575  0.08842852890695796  0.6146731204739571  1.0000
  H   H108      1.0  0.2752492675380653  0.1283599262126637  0.64534986262768  1.0000
  C   C163      1.0  0.40653777672840713  0.8419769546737157  0.6470225919097539  1.0000
  C   C164      1.0  0.4182695314492978  0.8333352221018526  0.6741982008617922  1.0000
  C   C165      1.0  0.4443823357036463  0.8151123756060242  0.6765674610432152  1.0000
  C   C166      1.0  0.4581287177797238  0.8048509764178671  0.6517360550879708  1.0000
  C   C167      1.0  0.4460284386890266  0.8131094088277286  0.6245609791757082  1.0000
  C   C168      1.0  0.4205342697248125  0.8318706082866204  0.6222199331368735  1.0000
  H   H109      1.0  0.4064993769660764  0.8399263959013719  0.6934232918169164  1.0000
  H   H110      1.0  0.45307719682270065  0.8082197607076359  0.6976211115763938  1.0000
  H   H111      1.0  0.4565950177826528  0.8053190947406949  0.6052554644128518  1.0000
  H   H112      1.0  0.4119817255292504  0.8387493666706498  0.6011599328579263  1.0000
  C   C169      1.0  0.271171747441039  0.9707111858366071  0.6822762727339663  1.0000
  C   C170      1.0  0.25445229756527765  0.9898907412300646  0.6651677750383626  1.0000
  C   C171      1.0  0.2241176214393388  0.9831508210972241  0.6524136994686534  1.0000
  C   C172      1.0  0.20991888403796177  0.9574673567830966  0.6573490225974551  1.0000
  C   C173      1.0  0.226072550894875  0.9385304247056475  0.6753025499956037  1.0000
  C   C174      1.0  0.25698377865258015  0.9450206976850037  0.6874508636521232  1.0000
  H   H113      1.0  0.265402425323481  0.009741829868977314  0.6609872668454116  1.0000
  H   H114      1.0  0.21193343877654514  0.9978884776967019  0.6385838299790908  1.0000
  H   H115      1.0  0.21508302686159744  0.9186687194034302  0.6792431746976182  1.0000
  H   H116      1.0  0.26968970619063387  0.9302287444395533  0.7009042738300961  1.0000
  C   C175      1.0  0.42301959702664466  0.3961581141076165  0.5254825141292551  1.0000
  C   C176      1.0  0.45125086982631946  0.3802829109833696  0.525791015566019  1.0000
  C   C177      1.0  0.482510493363914  0.3923927711325991  0.5291020638998286  1.0000
  C   C178      1.0  0.48567411594736964  0.42047981181059163  0.5316337382073348  1.0000
  C   C179      1.0  0.4574828919846955  0.43638780908529035  0.5309071713318002  1.0000
  C   C180      1.0  0.4261680574333547  0.4242164987478727  0.528171973292335  1.0000
  H   H117      1.0  0.4490646469182141  0.35860141342433927  0.5240123892341139  1.0000
  H   H118      1.0  0.5042087487359187  0.37994036524777053  0.5297677251273982  1.0000
  H   H119      1.0  0.4597719254293782  0.4581512147433591  0.5315796467330598  1.0000
  H   H120      1.0  0.4044476751803592  0.4366346281801697  0.5274506500338738  1.0000
  C   C181      1.0  0.3141461410069343  0.2440807911149714  0.5282115376955876  1.0000
  C   C182      1.0  0.2945881891751995  0.24955114715743892  0.5037590971356384  1.0000
  C   C183      1.0  0.26031209282563156  0.24521593402694833  0.5048850780643418  1.0000
  C   C184      1.0  0.24557451525207735  0.23583892024318157  0.5305354935512041  1.0000
  C   C185      1.0  0.2653261301376391  0.23029941478161411  0.5548277707470528  1.0000
  C   C186      1.0  0.2995197402579772  0.23411052088949458  0.5535778126257439  1.0000
  H   H121      1.0  0.30586306681118686  0.2571338467767532  0.48402388711062966  1.0000
  H   H122      1.0  0.24519605051102564  0.2494124921776429  0.4859373032023226  1.0000
  H   H123      1.0  0.25456814173609327  0.2224073451002985  0.574444037910124  1.0000
  H   H124      1.0  0.3146566505917678  0.2296650712532725  0.5724542577211881  1.0000
  C   C187      1.0  0.24083817156765608  0.9436434319952187  0.17316277795907553  1.0000
  C   C188      1.0  0.23673023255347836  0.9164065476618614  0.18140994740493263  1.0000
  C   C189      1.0  0.26055531774280094  0.903467765111812  0.1985103674728722  1.0000
  C   C190      1.0  0.2891965758315058  0.9173557347669059  0.20691022574435267  1.0000
  C   C191      1.0  0.29300067638779737  0.9449340908809922  0.19953303513996737  1.0000
  C   C192      1.0  0.2687213392548345  0.9581270998421112  0.1826440569460955  1.0000
  H   H125      1.0  0.21570184506293227  0.9048849514807383  0.17377072977646263  1.0000
  H   H126      1.0  0.25676595041209227  0.8825145868820445  0.20469140490137933  1.0000
  H   H127      1.0  0.31494040175632565  0.955914299755308  0.2062685401264946  1.0000
  H   H128      1.0  0.27166849380006547  0.9793808515590543  0.1768820651855052  1.0000
  C   C193      1.0  0.16851982727269416  0.29786032670438384  0.9975152786542015  1.0000
  C   C194      1.0  0.1993438471224136  0.2884816173769936  0.9895829959375494  1.0000
  C   C195      1.0  0.2159226982511851  0.3006634237356819  0.9661003535607584  1.0000
  C   C196      1.0  0.20171322839818656  0.32231970448534775  0.950654161324524  1.0000
  C   C197      1.0  0.17019437690357958  0.3308211753246397  0.9577453852082837  1.0000
  C   C198      1.0  0.15359272255407888  0.3186023660635224  0.9811537214280284  1.0000
  H   H129      1.0  0.21046906308777805  0.2718496122807506  0.0015060489004838917  1.0000
  H   H130      1.0  0.2401979760629415  0.2939053997436897  0.9605432406043144  1.0000
  H   H131      1.0  0.1587130918753583  0.3470325935534875  0.9453337072443699  1.0000
  H   H132      1.0  0.1296161838434406  0.3257634248390281  0.9870358050074585  1.0000
  C   C199      1.0  0.26628571719740257  0.16301533831457682  0.08642039224267138  1.0000
  C   C200      1.0  0.24910290466099494  0.16393646141225476  0.11229735021990592  1.0000
  C   C201      1.0  0.24947266699359227  0.14171564235939582  0.1318078948270923  1.0000
  C   C202      1.0  0.26636588711889075  0.11830576733562381  0.125097981684541  1.0000
  C   C203      1.0  0.2836959842320515  0.11743541681332482  0.09928825607001768  1.0000
  C   C204      1.0  0.283785196010977  0.13984338732508583  0.08001905575505175  1.0000
  H   H133      1.0  0.23501557211097668  0.18153991845617773  0.11713583671936528  1.0000
  H   H134      1.0  0.23581245900945194  0.1423178626129471  0.1516682366236534  1.0000
  H   H135      1.0  0.2970755024848559  0.09946083983556915  0.0941898818115563  1.0000
  H   H136      1.0  0.29710238787918025  0.13906980512013883  0.05999913891330966  1.0000
  C   C205      1.0  0.4445917980956595  0.7831030779113782  0.957758202424803  1.0000
  C   C206      1.0  0.46056900057448114  0.7857421013397975  0.9845042391591811  1.0000
  C   C207      1.0  0.4659043237252986  0.7626867406689464  0.002453469832147004  1.0000
  C   C208      1.0  0.4552745071452876  0.7370337396246156  0.9935851946741056  1.0000
  C   C209      1.0  0.43934128882648604  0.7345663269295651  0.9668758127483574  1.0000
  C   C210      1.0  0.4341570937753174  0.7574728610939656  0.9489958983995282  1.0000
  H   H137      1.0  0.4693483244107868  0.8054015246658215  0.9911316864130376  1.0000
  H   H138      1.0  0.47822106565951444  0.7647897093793175  0.023048226743469735  1.0000
  H   H139      1.0  0.4310469982544331  0.7148413164162737  0.959910999552024  1.0000
  H   H140      1.0  0.4218460703170623  0.7552994403561902  0.9283442620811698  1.0000
  C   C211      1.0  0.3947480972318329  0.9218880731642191  0.86903213638729  1.0000
  C   C212      1.0  0.3790802714311936  0.8964939823585537  0.871479581937593  1.0000
  C   C213      1.0  0.36864656659822453  0.8831385199802645  0.8466104504160332  1.0000
  C   C214      1.0  0.37454778724720245  0.8948182165211652  0.8192363691117603  1.0000
  C   C215      1.0  0.3904397051426098  0.9201218585799554  0.8169076690031958  1.0000
  C   C216      1.0  0.40006147914722634  0.9338257759974717  0.8417511912541749  1.0000
  H   H141      1.0  0.3746832488128191  0.8872243763400743  0.8924636551784324  1.0000
  H   H142      1.0  0.3562596657522508  0.8635965130052538  0.848549073846814  1.0000
  H   H143      1.0  0.3961693659521009  0.9288913123647344  0.7960719926240469  1.0000
  H   H144      1.0  0.41259726992739776  0.9533014813079612  0.8397676697185509  1.0000
  C   C217      1.0  0.3538879699717047  0.9216148328453815  0.03693271341257498  1.0000
  C   C218      1.0  0.32123192713147364  0.9256353971872938  0.0451628503668402  1.0000
  C   C219      1.0  0.3101467396997309  0.9519270598990593  0.050007499844189285  1.0000
  C   C220      1.0  0.33170646576371793  0.9741553447737015  0.046392703707218486  1.0000
  C   C221      1.0  0.36440764099318873  0.9699886673702485  0.038705497750612716  1.0000
  C   C222      1.0  0.3755355220268426  0.9437952295568001  0.03420776747420495  1.0000
  H   H145      1.0  0.30432995596348883  0.908525518303411  0.04729192009857086  1.0000
  H   H146      1.0  0.2847417856261149  0.9550961043827133  0.05566174579685623  1.0000
  H   H147      1.0  0.38121070242856975  0.9871458279202685  0.03620414320226906  1.0000
  H   H148      1.0  0.40103728057762694  0.9408123789531876  0.029044591658059282  1.0000
  C   C223      1.0  0.4839578284692601  0.39184849787548365  0.1614382419229409  1.0000
  C   C224      1.0  0.4919844955283596  0.40475122094697275  0.13518930050687478  1.0000
  C   C225      1.0  0.4883889422044149  0.4327461079324803  0.13151315218394002  1.0000
  C   C226      1.0  0.4773357614537018  0.44802829448377307  0.15421834184694994  1.0000
  C   C227      1.0  0.47047371670746785  0.435247379933065  0.1808774213752413  1.0000
  C   C228      1.0  0.4733637131070981  0.4070518134172013  0.18440312646700086  1.0000
  H   H149      1.0  0.500219609484814  0.3929638314597044  0.11741858830951844  1.0000
  H   H150      1.0  0.4941860094242478  0.4423607185859641  0.11106589605175991  1.0000
  H   H151      1.0  0.46198522728126645  0.4470338154301898  0.19855737526755182  1.0000
  H   H152      1.0  0.4670759366560536  0.3971137165597619  0.20475826568247266  1.0000
  C   C229      1.0  0.4009736192218707  0.3600549555209683  0.3264658203264183  1.0000
  C   C230      1.0  0.40372013638325344  0.36918957195239616  0.35469644878199447  1.0000
  C   C231      1.0  0.385321099621656  0.3565477973460334  0.3768647452162108  1.0000
  C   C232      1.0  0.363815838268445  0.3349399669386086  0.37081981185320323  1.0000
  C   C233      1.0  0.36046635688245937  0.32628714245429585  0.3424346423210952  1.0000
  C   C234      1.0  0.3792241314901057  0.33864976752069464  0.3203368698699111  1.0000
  H   H153      1.0  0.42029667188035313  0.38589188404229496  0.3594559139854378  1.0000
  H   H154      1.0  0.3871956038514779  0.36393678540883845  0.39846589093454376  1.0000
  H   H155      1.0  0.3436776894599639  0.3097230470833701  0.3375955022928112  1.0000
  H   H156      1.0  0.3765830911040127  0.33175696321733844  0.2985099741589191  1.0000
  C   C235      1.0  0.3431353075762987  0.2868807545271571  0.1884936431260664  1.0000
  C   C236      1.0  0.3556972143325016  0.3050975238594046  0.16752875459561511  1.0000
  C   C237      1.0  0.33560864612436064  0.31360601609016836  0.1441790124393586  1.0000
  C   C238      1.0  0.30303705882757265  0.30394674758521945  0.14183043581571145  1.0000
  C   C239      1.0  0.2904091642431512  0.28617918299343653  0.16309704316136672  1.0000
  C   C240      1.0  0.3104333388705888  0.277648804747102  0.1863352711359896  1.0000
  H   H157      1.0  0.3811015770388052  0.3119662377591551  0.16891716596718903  1.0000
  H   H158      1.0  0.3455359854624215  0.3269521979395405  0.12748479685159556  1.0000
  H   H159      1.0  0.26499764498056255  0.27936217065440827  0.16195331675036215  1.0000
  H   H160      1.0  0.30049769539882026  0.2640247590079802  0.20285744981169848  1.0000
  C   C241      1.0  0.9968448817259846  0.2502995922171021  0.6341776097997881  1.0000
  C   C242      1.0  0.9857000923801883  0.2245818862144362  0.6262070054281417  1.0000
  C   C243      1.0  0.00832268744784681  0.20499763057402817  0.6184977185861199  1.0000
  C   C244      1.0  0.04209348663483369  0.2111418358301741  0.6187260729817713  1.0000
  C   C245      1.0  0.05322172287608896  0.23682369264935224  0.6268488195576725  1.0000
  C   C246      1.0  0.0305913109207141  0.25645022991281835  0.6343333283030065  1.0000
  H   H161      1.0  0.9596093726484526  0.21985584620638768  0.6255159789709552  1.0000
  H   H162      1.0  0.9996128971643313  0.18522117059156845  0.6120783556477336  1.0000
  H   H163      1.0  0.07927932762897917  0.24159675304716807  0.6274093850475705  1.0000
  H   H164      1.0  0.03930067782672553  0.2761866935483911  0.6406322831183237  1.0000
  C   C247      1.0  0.9059258981831787  0.24199107674712245  0.7749749405197064  1.0000
  C   C248      1.0  0.9158072974284547  0.2675438106062483  0.7640529117839544  1.0000
  C   C249      1.0  0.9353822478270526  0.284803575204438  0.7809932321276246  1.0000
  C   C250      1.0  0.9453787806151251  0.2764125957750778  0.8087781386966886  1.0000
  C   C251      1.0  0.9348080455546213  0.2511685263482258  0.8199562771599361  1.0000
  C   C252      1.0  0.9150533573543383  0.23403892969668588  0.8031236133830594  1.0000
  H   H165      1.0  0.9084443408866031  0.27406199259447955  0.7425903625166156  1.0000
  H   H166      1.0  0.9428086854541076  0.30455191667400705  0.7724556053926863  1.0000
  H   H167      1.0  0.9422691575191966  0.24464861877278019  0.8414954056025782  1.0000
  H   H168      1.0  0.9073867711332045  0.2143595004717431  0.8117481687902482  1.0000
  C   C253      1.0  0.008538558370003946  0.9921150046923629  0.652124613981954  1.0000
  C   C254      1.0  0.04287974582500853  0.994744507532219  0.6544755382329616  1.0000
  C   C255      1.0  0.06089304686727659  0.007987124096000553  0.6324226633702038  1.0000
  C   C256      1.0  0.04456126760473422  0.018660791686252676  0.6080088393220439  1.0000
  C   C257      1.0  0.010380416028892723  0.015432149100325976  0.6053483770211003  1.0000
  C   C258      1.0  0.992381355062097  0.0021764533191148683  0.6273289859832558  1.0000
  H   H169      1.0  0.0555126402279722  0.9866632332200764  0.6734478465817743  1.0000
  H   H170      1.0  0.08735205464126736  0.010150108304657124  0.6345223904233476  1.0000
  H   H171      1.0  0.9979486585233164  0.022476601506235427  0.5858887923271496  1.0000
  H   H172      1.0  0.966128998792944  0.999059824136942  0.6246860208677025  1.0000
  C   C259      1.0  0.893636613537343  0.9932492715607927  0.5605173583141977  1.0000
  C   C260      1.0  0.9156430595310292  0.9733089033883295  0.5701063507341649  1.0000
  C   C261      1.0  0.9268847575119095  0.9540960850530809  0.550965985160293  1.0000
  C   C262      1.0  0.9167343641666821  0.9552272121980729  0.5220329642127155  1.0000
  C   C263      1.0  0.895799249646933  0.9758202846778303  0.5122077182169605  1.0000
  C   C264      1.0  0.8841424160085332  0.9947026563791207  0.5314405984890871  1.0000
  H   H173      1.0  0.9244769230269888  0.9729108395992453  0.5920908649009009  1.0000
  H   H174      1.0  0.9438600487317861  0.9387882392508372  0.5584951070326217  1.0000
  H   H175      1.0  0.8881110903471918  0.976927232660353  0.4898010641986658  1.0000
  H   H176      1.0  0.8673958086110697  0.010239458316863237  0.5238381853958523  1.0000
  C   C265      1.0  0.8751201740841186  0.09012562246100075  0.6921814174479549  1.0000
  C   C266      1.0  0.8599726134630105  0.08761026318197014  0.6651607893099645  1.0000
  C   C267      1.0  0.8595572400868773  0.10976082000023421  0.645632893818364  1.0000
  C   C268      1.0  0.8750861491789229  0.13420753074588304  0.6527349156797604  1.0000
  C   C269      1.0  0.8902667097638711  0.1367511464100541  0.6797740778130718  1.0000
  C   C270      1.0  0.8901464844593098  0.11472681578802728  0.6995656053187924  1.0000
  H   H177      1.0  0.8479038834875051  0.06875064540309796  0.6595574971127854  1.0000
  H   H178      1.0  0.8467513782826359  0.10803475507546659  0.6251838928344108  1.0000
  H   H179      1.0  0.9023943437337333  0.15553500504188905  0.6853488459620443  1.0000
  H   H180      1.0  0.9020558213940876  0.11660044643846734  0.7204336220653409  1.0000
  C   C271      1.0  0.6549499097486436  0.8182963130156581  0.7056333024040948  1.0000
  C   C272      1.0  0.6705845550249857  0.8097204664665109  0.6809029749727132  1.0000
  C   C273      1.0  0.697187999432581  0.7920203015953136  0.6835022282937404  1.0000
  C   C274      1.0  0.7076716273677932  0.7825076144722599  0.7107622560399739  1.0000
  C   C275      1.0  0.691738925921854  0.7909062492717126  0.7353924438868324  1.0000
  C   C276      1.0  0.6655649944683242  0.808906181117515  0.7328493195741975  1.0000
  H   H181      1.0  0.6630790476043309  0.8176072343226269  0.6598790966243265  1.0000
  H   H182      1.0  0.7104071658703758  0.7866826404444137  0.664522391251024  1.0000
  H   H183      1.0  0.6995532264878771  0.7834361824340639  0.7565013575571029  1.0000
  H   H184      1.0  0.6535355608457761  0.8153932644500838  0.7520534047636264  1.0000
  C   C277      1.0  0.5243714931966212  0.9213526153876603  0.7841058297313374  1.0000
  C   C278      1.0  0.5390450013684724  0.9395403179952875  0.7642348965639141  1.0000
  C   C279      1.0  0.51994092153349  0.951940182234459  0.7423298959787832  1.0000
  C   C280      1.0  0.48615490519933163  0.9461579613982855  0.7403876910759237  1.0000
  C   C281      1.0  0.4713035331033564  0.9288179508461409  0.7609311125998129  1.0000
  C   C282      1.0  0.4903837309467739  0.9164834469626595  0.7827539924447472  1.0000
  H   H185      1.0  0.5651010872580315  0.9441765008114954  0.7658062775248625  1.0000
  H   H186      1.0  0.5314734862403983  0.9655720271322767  0.7266354377075808  1.0000
  H   H187      1.0  0.44512972811761536  0.924619110496319  0.7599036609031243  1.0000
  H   H188      1.0  0.47885881681912035  0.902612763372298  0.7979908124541505  1.0000
  C   C283      1.0  0.7305615048007961  0.9481047129921506  0.7340334562741758  1.0000
  C   C284      1.0  0.7339436354390467  0.9242780922780454  0.7188145443346621  1.0000
  C   C285      1.0  0.7633085380922748  0.9193648206869742  0.7043279341482043  1.0000
  C   C286      1.0  0.7893666520947076  0.9383334339076495  0.7047586030372699  1.0000
  C   C287      1.0  0.7857810402691318  0.9624738006796332  0.719325115292874  1.0000
  C   C288      1.0  0.7564106338944957  0.9673320056938637  0.7339285565437521  1.0000
  H   H189      1.0  0.7136572312542678  0.9099654116819959  0.7175797083430477  1.0000
  H   H190      1.0  0.7656383758475599  0.9010495671389506  0.6924061851418213  1.0000
  H   H191      1.0  0.8057551758208404  0.9772640798089678  0.719669764174432  1.0000
  H   H192      1.0  0.7538443866484361  0.9859061513412543  0.7454312793983208  1.0000
  C   C289      1.0  0.739914044379607  0.4209669812457705  0.5323374027125125  1.0000
  C   C290      1.0  0.7361363265600088  0.43676488529842106  0.556505357729786  1.0000
  C   C291      1.0  0.7593468246928406  0.4354403256281239  0.5790251380930077  1.0000
  C   C292      1.0  0.7873007292164034  0.4195611044367226  0.5767340026167881  1.0000
  C   C293      1.0  0.7906907922716121  0.4032328138796269  0.5528496330194949  1.0000
  C   C294      1.0  0.7666774190576945  0.40360439368688866  0.5308364176852461  1.0000
  H   H193      1.0  0.7150458246719593  0.44969047701045983  0.5580639505568644  1.0000
  H   H194      1.0  0.7553479746001001  0.4464854552324258  0.5982690219831313  1.0000
  H   H195      1.0  0.8120694022789607  0.39062929373512384  0.5510995212305609  1.0000
  H   H196      1.0  0.7693406574436158  0.3910209017005436  0.5123226438777809  1.0000
  C   C295      1.0  0.5691388062358029  0.3249493725649111  0.5139540657544911  1.0000
  C   C296      1.0  0.5364349555765822  0.3247953592090311  0.5231897128669638  1.0000
  C   C297      1.0  0.5107802483102845  0.31750918585942606  0.5042002829537792  1.0000
  C   C298      1.0  0.5178666172564422  0.30996257314132575  0.4761440839883693  1.0000
  C   C299      1.0  0.550596551788486  0.3098124484256759  0.4670871452532216  1.0000
  C   C300      1.0  0.5761245447906848  0.31756499152466583  0.48583539359084893  1.0000
  H   H197      1.0  0.5309043780743201  0.33061988241532186  0.5448790622319251  1.0000
  H   H198      1.0  0.4856368899963148  0.31780625250105443  0.5113219487757145  1.0000
  H   H199      1.0  0.5562643123633829  0.30406810116570016  0.44539649660165453  1.0000
  H   H200      1.0  0.6011891169044452  0.31787702261977735  0.47838760718206697  1.0000
  C   C301      1.0  0.7694105373877118  0.28727027282910234  0.5495447787844447  1.0000
  C   C302      1.0  0.7957839385706752  0.27055704879228054  0.5574182666176051  1.0000
  C   C303      1.0  0.8055698251651248  0.26751358992573543  0.5864527086017913  1.0000
  C   C304      1.0  0.7890591834728883  0.28120721815397776  0.6077542496868791  1.0000
  C   C305      1.0  0.7624717090583545  0.29768794467522736  0.5999133291074847  1.0000
  C   C306      1.0  0.7526756671313605  0.3007135871017388  0.5708942247586039  1.0000
  H   H201      1.0  0.8086826056317786  0.259931948889701  0.5410390492378018  1.0000
  H   H202      1.0  0.8257089227762237  0.2544366118286477  0.592249744164382  1.0000
  H   H203      1.0  0.7494114313728187  0.30818478174942454  0.6163019461902994  1.0000
  H   H204      1.0  0.7320208161495609  0.313264398791151  0.5651738959273918  1.0000
  C   C307      1.0  0.07930782311324336  0.981865221446109  0.08650754079275114  1.0000
  C   C308      1.0  0.11171756397900157  0.9812377137136552  0.0968927441750509  1.0000
  C   C309      1.0  0.13508453028197245  7.066227692931193e-05  0.08669699621496418  1.0000
  C   C310      1.0  0.12634202197613925  0.019886305034782836  0.06607603432400055  1.0000
  C   C311      1.0  0.09394105358553993  0.020471743901267825  0.05522158174767533  1.0000
  C   C312      1.0  0.07038341630559897  0.0013046379432259947  0.06535979131408154  1.0000
  H   H205      1.0  0.11883470617866254  0.9665724714175121  0.11335926591544165  1.0000
  H   H206      1.0  0.1598535773494959  0.9992650467152207  0.0952043540065437  1.0000
  H   H207      1.0  0.08710964034833427  0.03561321817600782  0.03901350907676249  1.0000
  H   H208      1.0  0.04542550875545803  0.00158538094384153  0.05689300799575436  1.0000
  C   C313      1.0  0.9541706345122549  0.9343614279836104  0.19163097729267317  1.0000
  C   C314      1.0  0.9503167758829769  0.9186144064075805  0.2170020667812871  1.0000
  C   C315      1.0  0.977350281320107  0.9048236409068537  0.22924445160221363  1.0000
  C   C316      1.0  0.008385477474590619  0.907322183989836  0.2164894897843607  1.0000
  C   C317      1.0  0.01226855191808407  0.9236857891808141  0.1916249163549304  1.0000
  C   C318      1.0  0.98526247327337  0.937023404610562  0.17915977072309702  1.0000
  H   H209      1.0  0.9263542907345994  0.9166174705231613  0.22685529261013934  1.0000
  H   H210      1.0  0.974170297520398  0.8924101736103769  0.24856349319165066  1.0000
  H   H211      1.0  0.03601253858762021  0.9257446284123124  0.18157930019225094  1.0000
  H   H212      1.0  0.9886520425351676  0.9492751998173881  0.1597617293104974  1.0000
  C   C319      1.0  0.05232146136787019  0.26187412224814566  0.1526000547655917  1.0000
  C   C320      1.0  0.08073427893909724  0.2779548111761237  0.14864005949962086  1.0000
  C   C321      1.0  0.11187670749014957  0.2659919521653068  0.14920062191402894  1.0000
  C   C322      1.0  0.11469634435784988  0.2380687914573256  0.1545328343484995  1.0000
  C   C323      1.0  0.08634683084522449  0.22221785828183302  0.15966188156503278  1.0000
  C   C324      1.0  0.05517963205769916  0.2340439723068712  0.1583535327795263  1.0000
  H   H213      1.0  0.07864683584526344  0.2995284897465754  0.1445581089309845  1.0000
  H   H214      1.0  0.13372957046069664  0.27843889287934825  0.14606117807669547  1.0000
  H   H215      1.0  0.08843164322489126  0.20067905356230004  0.16406120812015937  1.0000
  H   H216      1.0  0.033347628134492435  0.22158797506289987  0.16190232109608527  1.0000
  C   C325      1.0  0.9472753866704597  0.2492676721875106  0.009219744734405566  1.0000
  C   C326      1.0  0.9141711406949402  0.240816404069978  0.00933044454323717  1.0000
  C   C327      1.0  0.8899327399197406  0.25763359361481825  0.9969848265617486  1.0000
  C   C328      1.0  0.8987450006000525  0.28328830134035327  0.985689254352412  1.0000
  C   C329      1.0  0.9318196079609306  0.2917008991613552  0.9859025877268457  1.0000
  C   C330      1.0  0.9561045522025323  0.2745687376306377  0.9972076620963396  1.0000
  H   H217      1.0  0.9073478360619083  0.2212396190024065  0.01874184999396933  1.0000
  H   H218      1.0  0.8643640449766044  0.2510736857803228  0.9968903220482348  1.0000
  H   H219      1.0  0.9387704231569347  0.31153812137824727  0.9776304672288523  1.0000
  H   H220      1.0  0.9815226640151662  0.28135815066349856  0.9976105124243837  1.0000
  C   C331      1.0  0.962304002987405  0.1165761799701429  0.12247941830062938  1.0000
  C   C332      1.0  0.9567684283126291  0.09085915121968388  0.13518424228643489  1.0000
  C   C333      1.0  0.9453970623538117  0.0694040067664905  0.11835046279662231  1.0000
  C   C334      1.0  0.9394686420288834  0.07376660484209929  0.08882691142428478  1.0000
  C   C335      1.0  0.9442854578068546  0.09963712208659438  0.07632512296830996  1.0000
  C   C336      1.0  0.9559690860484353  0.1209710363302937  0.09307860057469686  1.0000
  H   H221      1.0  0.9611555116355314  0.08758273001536443  0.15806884499603147  1.0000
  H   H222      1.0  0.9409548998158052  0.049590312226011964  0.12820543222507563  1.0000
  H   H223      1.0  0.9398150247068432  0.10300237663159795  0.05345048754408843  1.0000
  H   H224      1.0  0.960913972732404  0.14060201041646886  0.0830138627443997  1.0000
  C   C337      1.0  0.7462315234677421  0.7392061086625595  0.007817079942550542  1.0000
  C   C338      1.0  0.7660919778420329  0.7184407177560791  0.9983804227181852  1.0000
  C   C339      1.0  0.7803588218979074  0.7002343869568816  0.01844642632310345  1.0000
  C   C340      1.0  0.7747123676607024  0.7028474808063307  0.047890636539519305  1.0000
  C   C341      1.0  0.7536835997276523  0.7227748710994335  0.05712862538131547  1.0000
  C   C342      1.0  0.7393116124098854  0.7408514434324676  0.03712321679915731  1.0000
  H   H225      1.0  0.7712094242302999  0.7169403068649927  0.9756437465771923  1.0000
  H   H226      1.0  0.7965057704821557  0.6846562760937958  0.011223236218530497  1.0000
  H   H227      1.0  0.7484248224973029  0.7242366205431413  0.07967783100761294  1.0000
  H   H228      1.0  0.7225477636430646  0.7557796658679333  0.04439450231647113  1.0000
  C   C343      1.0  0.5995607793970794  0.8588179893246621  0.036004579738095455  1.0000
  C   C344      1.0  0.6116841434695443  0.8812636335374602  0.020156204340582518  1.0000
  C   C345      1.0  0.5897727435352749  0.8988048066051193  0.0058053772376833734  1.0000
  C   C346      1.0  0.5558265816022232  0.8933844457043428  0.006358472440114671  1.0000
  C   C347      1.0  0.543710731002138  0.8707853127730303  0.021984882232817027  1.0000
  C   C348      1.0  0.5655625619842946  0.8536958658499334  0.03714968913283001  1.0000
  H   H229      1.0  0.6378932664178121  0.8854289228114136  0.019464567999363025  1.0000
  H   H230      1.0  0.5991160971243195  0.9165495317904241  0.9941663466797608  1.0000
  H   H231      1.0  0.5175587927570217  0.8666801719793332  0.022786484446059907  1.0000
  H   H232      1.0  0.5561426208787189  0.8363328389448014  0.04941430054887985  1.0000
  C   C349      1.0  0.7029441088529627  0.855973793730436  0.8648475816012466  1.0000
  C   C350      1.0  0.7036914732672224  0.8842056751026605  0.8666394463039171  1.0000
  C   C351      1.0  0.7106211036362696  0.8962777403824157  0.8930811739393243  1.0000
  C   C352      1.0  0.7165807485125749  0.8801193343207746  0.9178282674671983  1.0000
  C   C353      1.0  0.716959761337283  0.8519213080640474  0.9158544768627138  1.0000
  C   C354      1.0  0.7103536417474716  0.8398763613998672  0.8893429682034565  1.0000
  H   H233      1.0  0.6992415993183794  0.8967741533307646  0.8476294003747082  1.0000
  H   H234      1.0  0.7107563465817626  0.918117723961654  0.8944169660181551  1.0000
  H   H235      1.0  0.7220627687879011  0.8392892047613263  0.9347510786667129  1.0000
  H   H236      1.0  0.7101018244275672  0.8180232361650986  0.8880131648800277  1.0000
  C   C355      1.0  0.8229299675598254  0.8707130848893654  0.06645660239977191  1.0000
  C   C356      1.0  0.8343743764915981  0.8671714463882658  0.038566223877827044  1.0000
  C   C357      1.0  0.862743540701963  0.8811501068463817  0.029096844984341175  1.0000
  C   C358      1.0  0.8791709068209743  0.899205789522637  0.04723616880474224  1.0000
  C   C359      1.0  0.8680544823328158  0.9024041630100035  0.07531103480678492  1.0000
  C   C360      1.0  0.8400846212040427  0.887963876766434  0.08499193521912085  1.0000
  H   H237      1.0  0.8215125086223363  0.8536748940052421  0.024271580081478117  1.0000
  H   H238      1.0  0.8715506257590213  0.8785360310650648  0.007443279155980198  1.0000
  H   H239      1.0  0.8805485738213621  0.9164779469613437  0.08929768933746285  1.0000
  H   H240      1.0  0.831043362000241  0.8908865741134563  0.10649130884035785  1.0000
  C   C361      1.0  0.67784501809626  0.42025440693531696  0.1933385306663324  1.0000
  C   C362      1.0  0.6849331709730946  0.4476026072837618  0.18730508104719384  1.0000
  C   C363      1.0  0.6818064379057921  0.4580867422819261  0.15908862618465286  1.0000
  C   C364      1.0  0.6705211918084338  0.44146020970531386  0.13706769118930942  1.0000
  C   C365      1.0  0.6624761897943389  0.41427364060308997  0.1432141582755152  1.0000
  C   C366      1.0  0.6665242732610062  0.4035802580083223  0.1713193361377712  1.0000
  H   H241      1.0  0.6939728156849632  0.46047760544123245  0.20428173165168476  1.0000
  H   H242      1.0  0.688495620540533  0.4789790424764422  0.1544924721468954  1.0000
  H   H243      1.0  0.6538755388359114  0.4013573531180681  0.12613550293537495  1.0000
  H   H244      1.0  0.6607762488712218  0.3825007810332021  0.17593004389759068  1.0000
  C   C367      1.0  0.6140625914500724  0.2757023643346675  0.22481272124253543  1.0000
  C   C368      1.0  0.6161714640506392  0.2825445648403164  0.25383310934125314  1.0000
  C   C369      1.0  0.5877966582713599  0.28192791154399616  0.27086453691504214  1.0000
  C   C370      1.0  0.5571216681038951  0.27494439534075743  0.2587834605368879  1.0000
  C   C371      1.0  0.5551089565621559  0.2674102747191733  0.22997626792498532  1.0000
  C   C372      1.0  0.5836557518194968  0.2673051702496883  0.21318669878733978  1.0000
  H   H245      1.0  0.6396648033677608  0.2880398585421441  0.2632961985145171  1.0000
  H   H246      1.0  0.5895095355332881  0.2875231548538986  0.293215005867229  1.0000
  H   H247      1.0  0.5315189340569598  0.26177274746682055  0.22060465134999283  1.0000
  H   H248      1.0  0.5819367613166955  0.26169849674412643  0.19083899914822755  1.0000
  C   C373      1.0  0.7333218702145136  0.31840062631429134  0.33545812676465386  1.0000
  C   C374      1.0  0.7003941356689899  0.3105600378894052  0.3312648094988705  1.0000
  C   C375      1.0  0.6774296661102535  0.31392639512894044  0.3531288821095013  1.0000
  C   C376      1.0  0.6871992762616232  0.32529651295851914  0.3792362711790529  1.0000
  C   C377      1.0  0.720041292554901  0.3335496011711568  0.3833000548104378  1.0000
  C   C378      1.0  0.7432072801633662  0.3297082414757158  0.36159616558537677  1.0000
  H   H249      1.0  0.6926670963059278  0.3014043869046404  0.31135845063151324  1.0000
  H   H250      1.0  0.6520592168209629  0.3074874992644938  0.3498656390229561  1.0000
  H   H251      1.0  0.7276272545338304  0.342847440923558  0.4031413932942587  1.0000
  H   H252      1.0  0.7685944132734011  0.3360653860136149  0.3648097261422534  1.0000
  C   C379      1.0  0.842129050081309  0.2549305367804744  0.14112302972239904  1.0000
  C   C380      1.0  0.8092872002784971  0.2563415045261003  0.14987116989392227  1.0000
  C   C381      1.0  0.7973867587923181  0.28024910121788005  0.16129353129561547  1.0000
  C   C382      1.0  0.8181929350811836  0.30294874286940865  0.16354113117885458  1.0000
  C   C383      1.0  0.8511814220313962  0.3014146681805735  0.15526685565292067  1.0000
  C   C384      1.0  0.863232990137762  0.2773681014531355  0.1442750057397835  1.0000
  H   H253      1.0  0.792857788264556  0.23903758442534923  0.14744852564151884  1.0000
  H   H254      1.0  0.7718583476769297  0.2813059660462204  0.16758027798265016  1.0000
  H   H255      1.0  0.8674331415035083  0.31889812594351813  0.15716062275755005  1.0000
  H   H256      1.0  0.888665319620527  0.2763675441317309  0.13772819094608674  1.0000
  N   N1        1.0  0.7259438752682856  0.2577343751930226  0.42789907245375075  1.0000
  C   C385      1.0  0.707256114456849  0.2570247560273547  0.4003425821501575  1.0000
  C   C386      1.0  0.7552113046546493  0.24047332490361623  0.4264259064390776  1.0000
  C   C387      1.0  0.7046551151019504  0.24778237313681814  0.4517138120888294  1.0000
  C   C388      1.0  0.7367188771218967  0.28586194699958195  0.433207931415448  1.0000
  H   H257      1.0  0.7222338731637309  0.2652151956079855  0.3819912706141968  1.0000
  H   H258      1.0  0.6847717717950076  0.26965381845111613  0.4010699966395998  1.0000
  H   H259      1.0  0.6990643649603248  0.23607732464555453  0.3952809034806773  1.0000
  H   H260      1.0  0.7696841465450353  0.2407790490565535  0.44701939303984395  1.0000
  H   H261      1.0  0.7481073531341507  0.21903922391498531  0.42241535483407905  1.0000
  H   H262      1.0  0.7718748447126792  0.247602987430808  0.4087889115743606  1.0000
  H   H263      1.0  0.681416699901622  0.2593813817871435  0.4522785565828108  1.0000
  H   H264      1.0  0.7172020952929267  0.2499250219508324  0.47310281103776647  1.0000
  H   H265      1.0  0.6975866628777939  0.22609306624281136  0.44940072602499737  1.0000
  H   H266      1.0  0.7509924193454718  0.28732151481262563  0.453711852663458  1.0000
  H   H267      1.0  0.7152309079390222  0.29937925544357935  0.43466553596478913  1.0000
  H   H268      1.0  0.7527963979077708  0.294096311096941  0.4156965217803761  1.0000
  N   N2        1.0  0.3483346548621233  0.9093069795513588  0.12990231900015847  1.0000
  C   C389      1.0  0.3603200221531588  0.9034391143474523  0.15957931052438656  1.0000
  C   C390      1.0  0.3678162465181133  0.9321405065243226  0.11720637880366302  1.0000
  C   C391      1.0  0.31319766462272125  0.9166971543278443  0.13047076916848188  1.0000
  C   C392      1.0  0.35203120252484305  0.8849640696948247  0.11250560891873551  1.0000
  H   H269      1.0  0.3466910426169173  0.8859221533454056  0.16964656457261684  1.0000
  H   H270      1.0  0.35694965808838885  0.9210441780668821  0.17366884228722346  1.0000
  H   H271      1.0  0.38693546390350547  0.8984270639286894  0.16010787447939623  1.0000
  H   H272      1.0  0.3943040936625468  0.9270463276575578  0.11547806488870216  1.0000
  H   H273      1.0  0.3587406731857462  0.9378251861794002  0.0952403588404549  1.0000
  H   H274      1.0  0.36619017560976325  0.9505635762501464  0.1303772579430289  1.0000
  H   H275      1.0  0.3028906750419902  0.9201077664693629  0.10834621564288871  1.0000
  H   H276      1.0  0.3097712622537835  0.9357541883623733  0.1421573375406997  1.0000
  H   H277      1.0  0.29790430725086414  0.9006479123239277  0.14146814722188017  1.0000
  H   H278      1.0  0.37828586605584813  0.8789925272806336  0.11129761011345374  1.0000
  H   H279      1.0  0.34294913392512694  0.8885201892347526  0.09004110186360581  1.0000
  H   H280      1.0  0.33783356496119676  0.8673538887628495  0.1218283883358029  1.0000
  N   N3        1.0  0.11774056213257746  0.907838715259512  0.1588988888937266  1.0000
  C   C393      1.0  0.10566774769788491  0.9343456708261961  0.16783729174545536  1.0000
  C   C394      1.0  0.1416368872058772  0.897536638895973  0.18068079389150826  1.0000
  C   C395      1.0  0.13397435777551978  0.9110575524145339  0.13062807993045844  1.0000
  C   C396      1.0  0.08971162084915107  0.8884825910190551  0.15651721672867835  1.0000
  H   H281      1.0  0.08661276672180071  0.942318358092615  0.15252056566037941  1.0000
  H   H282      1.0  0.1260679255883818  0.9497273751940145  0.16865892463796062  1.0000
  H   H283      1.0  0.09438087876440275  0.9327722319949916  0.18959517424220795  1.0000
  H   H284      1.0  0.1532021223392783  0.878505874999824  0.17380013468296163  1.0000
  H   H285      1.0  0.16178992456128055  0.912663602926168  0.18434321875042858  1.0000
  H   H286      1.0  0.12955631691185326  0.8931654494632167  0.20174688239150584  1.0000
  H   H287      1.0  0.1549023385625927  0.9259370408504486  0.1314508171372626  1.0000
  H   H288      1.0  0.11636944216436189  0.9183452574333343  0.11359125556155192  1.0000
  H   H289      1.0  0.14408719142371182  0.8915638555633997  0.12356274084640861  1.0000
  H   H290      1.0  0.09802023959706052  0.8682561405093888  0.149871633418027  1.0000
  H   H291      1.0  0.07108589686405553  0.8958605069343666  0.14038492042433104  1.0000
  H   H292      1.0  0.0768656253768214  0.8855168263607932  0.17745711514629936  1.0000
  N   N4        1.0  0.25047925793164344  0.14859922489547706  0.5325979137833435  1.0000
  C   C397      1.0  0.2830114019792123  0.16167465024548758  0.5274734241001952  1.0000
  C   C398      1.0  0.22746398001873008  0.156477289346145  0.508974779827309  1.0000
  C   C399      1.0  0.2373470186992343  0.15741947818345245  0.560281579584816  1.0000
  C   C400      1.0  0.2539689646582117  0.11883436159679607  0.5337241119958176  1.0000
  H   H293      1.0  0.3006620884490682  0.15709487252283894  0.5454543376589867  1.0000
  H   H294      1.0  0.28105301895191215  0.18408842102025347  0.5254714995490062  1.0000
  H   H295      1.0  0.2940882762812455  0.15485917625515488  0.5071657468620371  1.0000
  H   H296      1.0  0.202539686059385  0.1472481918347364  0.5123400938642946  1.0000
  H   H297      1.0  0.2243724311828799  0.17888397677104168  0.5075590943742259  1.0000
  H   H298      1.0  0.23643990061170908  0.1500822403136653  0.4877080584923127  1.0000
  H   H299      1.0  0.25453971964236816  0.15282653729418463  0.5785973312983923  1.0000
  H   H300      1.0  0.21343108670870767  0.14712282634151172  0.5652178958720817  1.0000
  H   H301      1.0  0.23288886674400303  0.17955781628166922  0.5598196402229211  1.0000
  H   H302      1.0  0.2298432697614521  0.10829199779204682  0.5374938059782488  1.0000
  H   H303      1.0  0.2707998055533109  0.11217852485762779  0.5516244445527037  1.0000
  H   H304      1.0  0.2639624736274712  0.11128684809477729  0.5133059920162155  1.0000
  N   N5        1.0  0.8504069689703619  0.30749026040969596  0.2579037760778582  1.0000
  C   C401      1.0  0.878413086654967  0.3062624549231903  0.23793706827018574  1.0000
  C   C402      1.0  0.8240233098120575  0.2885800259074778  0.24860914260862438  1.0000
  C   C403      1.0  0.8376630555686638  0.3353524277987852  0.2575573154244409  1.0000
  C   C404      1.0  0.8612912004948877  0.29979365414100934  0.287501974644654  1.0000
  H   H305      1.0  0.8884642776389183  0.285448469426034  0.2373737099929815  1.0000
  H   H306      1.0  0.898900896292865  0.32021156184572025  0.24429791235672724  1.0000
  H   H307      1.0  0.8707635557026515  0.31213841408737736  0.21548564341572218  1.0000
  H   H308      1.0  0.8026243746699359  0.28882117644508176  0.2634087097968953  1.0000
  H   H309      1.0  0.8148614181225555  0.2940420566720027  0.22651594280289125  1.0000
  H   H310      1.0  0.8327625397682156  0.26736941690715893  0.24824472524474006  1.0000
  H   H311      1.0  0.8568725710009014  0.35023652955654677  0.26441813595401203  1.0000
  H   H312      1.0  0.8164777387828054  0.33697153594222984  0.27243869156757855  1.0000
  H   H313      1.0  0.8289665615509203  0.34176905033030036  0.235578551205686  1.0000
  H   H314      1.0  0.8811397823461496  0.313681603704993  0.2953159987715323  1.0000
  H   H315      1.0  0.8709049581714019  0.2788140873638834  0.28865180467356444  1.0000
  H   H316      1.0  0.84046201303416  0.30063096576611176  0.3029336633106735  1.0000
  N   N6        1.0  0.38464510063381646  0.39775599570365566  0.12014056927241984  1.0000
  C   C405      1.0  0.4007862751560453  0.42459792559265785  0.12323946057460403  1.0000
  C   C406      1.0  0.35499060709179064  0.39596370798791264  0.13833661131285946  1.0000
  C   C407      1.0  0.40776159253032696  0.37628977059188795  0.12942490790153574  1.0000
  C   C408      1.0  0.3750740241319821  0.394230901077255  0.08959868842519224  1.0000
  H   H317      1.0  0.3838958034703249  0.4413024695077726  0.11683745960662308  1.0000
  H   H318      1.0  0.422909036455644  0.426844118993392  0.10937034327725947  1.0000
  H   H319      1.0  0.40894045353691333  0.4278575315589386  0.1459067906905437  1.0000
  H   H320      1.0  0.33705957392899594  0.4119695516833622  0.13210880550900989  1.0000
  H   H321      1.0  0.34207993330747904  0.3759913081198862  0.13649421937212416  1.0000
  H   H322      1.0  0.36147924793146696  0.3983840490009666  0.1615472561777951  1.0000
  H   H323      1.0  0.4152027198625937  0.3781622139353865  0.1524889126622361  1.0000
  H   H324      1.0  0.4307168779219535  0.3771966309815878  0.1165214404409407  1.0000
  H   H325      1.0  0.3966251786836615  0.35571201260548857  0.12716166429993017  1.0000
  H   H326      1.0  0.3627437517850527  0.37422111750472115  0.08636281300947068  1.0000
  H   H327      1.0  0.39693836344972294  0.39557134893641505  0.07528093335345232  1.0000
  H   H328      1.0  0.3578993325814268  0.4102867691721618  0.08179668306595644  1.0000
  N   N7        1.0  0.5796603117513005  0.3598300767665522  0.20718116357161492  1.0000
  C   C409      1.0  0.5837351808861888  0.371060407451526  0.17754112159119295  1.0000
  C   C410      1.0  0.5603367434367752  0.3787011135927184  0.2240995030997038  1.0000
  C   C411      1.0  0.612310737778514  0.3559483136409286  0.22099151715930063  1.0000
  C   C412      1.0  0.5622337142837409  0.3334101354808171  0.2061346870582764  1.0000
  H   H329      1.0  0.5986334332239087  0.35745669913261324  0.16433399969351148  1.0000
  H   H330      1.0  0.5963488279528396  0.39124116742276516  0.17756768456408623  1.0000
  H   H331      1.0  0.5594041318148574  0.3735334431380618  0.16642635588342933  1.0000
  H   H332      1.0  0.5566126961200619  0.3707031240321608  0.2465392222367597  1.0000
  H   H333      1.0  0.5729773259278989  0.3988080918363009  0.22550987696279023  1.0000
  H   H334      1.0  0.5355086523497836  0.3819887231591157  0.2141858721267265  1.0000
  H   H335      1.0  0.6100014336819833  0.3470840913549189  0.24325298137027743  1.0000
  H   H336      1.0  0.6261879428970599  0.3754617018213919  0.22261690113986135  1.0000
  H   H337      1.0  0.6275655895995627  0.34182432134399193  0.20870374448069007  1.0000
  H   H338      1.0  0.5589750142031553  0.32430471318372917  0.22813073087727545  1.0000
  H   H339      1.0  0.5759822620511952  0.3188803745254852  0.1931535374507339  1.0000
  H   H340      1.0  0.537327484003324  0.3352336093115227  0.19625720473374725  1.0000
  N   N8        1.0  0.8823165728196046  0.4299551676802951  0.8031867142956974  1.0000
  C   C413      1.0  0.9100353722002656  0.449591441837809  0.8000020896762521  1.0000
  C   C414      1.0  0.878947539371647  0.4139623238114155  0.776833040346628  1.0000
  C   C415      1.0  0.8515269059912404  0.44477042151278945  0.807596481487056  1.0000
  C   C416      1.0  0.8887114400960648  0.4115933117191323  0.8282879455844203  1.0000
  H   H341      1.0  0.905405491808169  0.46438295206773333  0.7818545982177102  1.0000
  H   H342      1.0  0.9336050266731007  0.43925621471612397  0.7956698398429557  1.0000
  H   H343      1.0  0.9139544730828885  0.46137469766998607  0.8198716419621558  1.0000
  H   H344      1.0  0.8726149085116393  0.42710737278942407  0.7577310897528807  1.0000
  H   H345      1.0  0.9022311288962586  0.40351857390245943  0.7719196836248622  1.0000
  H   H346      1.0  0.8591166242236922  0.39821822504034093  0.7788911465668509  1.0000
  H   H347      1.0  0.8461332400162852  0.4588459228422476  0.7889291345131073  1.0000
  H   H348      1.0  0.8531774101957285  0.45710493126518664  0.827282983623307  1.0000
  H   H349      1.0  0.8300233245262929  0.430619545918527  0.809987908982869  1.0000
  H   H350      1.0  0.890870787746123  0.42298560424877113  0.8486063097401993  1.0000
  H   H351      1.0  0.9121133765018302  0.40051173950004026  0.8257846207282789  1.0000
  H   H352      1.0  0.8685581812705597  0.39622823973717924  0.8311945381447418  1.0000
  N   N9        1.0  0.22926004515092094  0.36374598790902196  0.042692618228909573  1.0000
  C   C417      1.0  0.1967766898524095  0.3768254073273466  0.04273916523154586  1.0000
  C   C418      1.0  0.24158441193712107  0.36339559807171085  0.012880800886216237  1.0000
  C   C419      1.0  0.2259141521006361  0.3356802301746847  0.054223554866721146  1.0000
  C   C420      1.0  0.2527935296411626  0.37895106611727436  0.06094642400820205  1.0000
  H   H353      1.0  0.18658773442646828  0.37712964616654465  0.06487884431633617  1.0000
  H   H354      1.0  0.17856921007471627  0.3658920605809666  0.02892519901877133  1.0000
  H   H355      1.0  0.19850408363498284  0.3982007803211638  0.03440256881893289  1.0000
  H   H356      1.0  0.24406895357455108  0.38426051369629916  0.0034292984024251183  1.0000
  H   H357      1.0  0.26610446829107937  0.35373157926095883  0.011974600448002137  1.0000
  H   H358      1.0  0.22452932006314727  0.3518234850112666  0.9986561842298317  1.0000
  H   H359      1.0  0.24990571662551722  0.3251201536543667  0.0539262004975003  1.0000
  H   H360      1.0  0.20783529720087443  0.32366527669223866  0.04141415422833283  1.0000
  H   H361      1.0  0.21753845531485838  0.3351333669660618  0.07698615703393497  1.0000
  H   H362      1.0  0.2775209123823772  0.3695137433112215  0.06134108069991062  1.0000
  H   H363      1.0  0.24433483749427307  0.3793148842138737  0.08366820467321978  1.0000
  H   H364      1.0  0.25581599967329227  0.4003278126817369  0.052981935850573425  1.0000
  N   N10       1.0  0.6239397114179089  0.41685514460363243  0.5637845955043101  1.0000
  C   C421      1.0  0.5950093866536538  0.40794803973473026  0.5808608761712288  1.0000
  C   C422      1.0  0.6520330889146005  0.3992961829814483  0.5713993364638015  1.0000
  C   C423      1.0  0.6326097420059098  0.44530860872371425  0.5700763528444139  1.0000
  C   C424      1.0  0.616112287697191  0.4147259516489019  0.5327222253367251  1.0000
  H   H365      1.0  0.5873453497425914  0.3867623757285721  0.5759178606519881  1.0000
  H   H366      1.0  0.5734726917480135  0.4210069818499894  0.576128326445179  1.0000
  H   H367      1.0  0.6002506945393155  0.40871420887277193  0.6044169684442691  1.0000
  H   H368      1.0  0.6740137336025067  0.4047538048958231  0.5582185046220846  1.0000
  H   H369      1.0  0.6593402675032415  0.40094750666681783  0.5944800405252254  1.0000
  H   H370      1.0  0.6457793189091  0.37760664118540965  0.5676348378870645  1.0000
  H   H371      1.0  0.6119621308783733  0.4591062025406206  0.5643512810026018  1.0000
  H   H372      1.0  0.6543935538617925  0.4525334653900241  0.5575074340472478  1.0000
  H   H373      1.0  0.6385251947030288  0.4478228770399049  0.5933611894052301  1.0000
  H   H374      1.0  0.6376754197849505  0.42075098913629855  0.5192061078815898  1.0000
  H   H375      1.0  0.5952367946817168  0.4279492856047335  0.5261633713151624  1.0000
  H   H376      1.0  0.6089146096175264  0.39360914517697876  0.5273200391831118  1.0000
  N   N11       1.0  0.31671893013147234  0.48656581576576985  0.93423863420816  1.0000
  C   C425      1.0  0.2826390477737886  0.487418684226373  0.9450198126067759  1.0000
  C   C426      1.0  0.32399722815849624  0.458789637457339  0.9254688139005707  1.0000
  C   C427      1.0  0.340028279390464  0.49457965713253793  0.9573433323531578  1.0000
  C   C428      1.0  0.3201239734709425  0.5054059246676782  0.9090499473780829  1.0000
  H   H377      1.0  0.27644831408697473  0.5079492267878774  0.9523396696719453  1.0000
  H   H378      1.0  0.278866158526034  0.473037785854733  0.9636131692078  1.0000
  H   H379      1.0  0.2643552954317215  0.4819378199674076  0.9280127130070157  1.0000
  H   H380      1.0  0.3495029850295302  0.45740343380642373  0.9171531055706483  1.0000
  H   H381      1.0  0.3216428266884182  0.4439585585726395  0.9438928024273877  1.0000
  H   H382      1.0  0.30684472827208753  0.45216588975761945  0.9080365957650575  1.0000
  H   H383      1.0  0.3377596841883885  0.4808173321850269  0.9766854128525099  1.0000
  H   H384      1.0  0.3354107444797148  0.5154836837540934  0.964474395198767  1.0000
  H   H385      1.0  0.36606442128200734  0.49382713792361865  0.9501757563199643  1.0000
  H   H386      1.0  0.34550788521381226  0.5052643621732872  0.9002510904025792  1.0000
  H   H387      1.0  0.3146054447117713  0.5265675366560748  0.9147477905835611  1.0000
  H   H388      1.0  0.30281707876760544  0.4997209241393673  0.8912492153176687  1.0000
  N   N12       1.0  0.46375617154031085  0.8490648856833629  0.8482177986073969  1.0000
  C   C429      1.0  0.4870920786871422  0.838008359955201  0.870068637315013  1.0000
  C   C430      1.0  0.4763267823694153  0.8444846418547073  0.8190244633890961  1.0000
  C   C431      1.0  0.4603133005626014  0.8784615927441644  0.8521147000184771  1.0000
  C   C432      1.0  0.431275704503772  0.8353940179795611  0.851626907479958  1.0000
  H   H389      1.0  0.5117881186297122  0.8480157391986008  0.8682082639352366  1.0000
  H   H390      1.0  0.49022843453657067  0.8158227922947552  0.8678446364764346  1.0000
  H   H391      1.0  0.47811021598436315  0.8409866041749289  0.8923015986345784  1.0000
  H   H392      1.0  0.47941116326635425  0.8225231599121073  0.8153212314863628  1.0000
  H   H393      1.0  0.45908933897551873  0.852542630588091  0.8020731308578585  1.0000
  H   H394      1.0  0.5006764702066329  0.8548294865730568  0.8156602225132397  1.0000
  H   H395      1.0  0.449936984987696  0.8827849499176685  0.8735030359558635  1.0000
  H   H396      1.0  0.4433349214345629  0.8874687452705665  0.8356450105897553  1.0000
  H   H397      1.0  0.484427200858418  0.8894820714036015  0.8502659767167206  1.0000
  H   H398      1.0  0.4133536804651664  0.8426194122973442  0.8348280122284437  1.0000
  H   H399      1.0  0.42056156399743067  0.8392213553536556  0.8731143335799111  1.0000
  H   H400      1.0  0.43309778505912666  0.8130548160131363  0.8498500613626045  1.0000
  N   N13       1.0  0.837865390605364  0.778986239328132  0.05636619058842052  1.0000
  C   C433      1.0  0.8035846499153391  0.7852832753360867  0.0478726799514273  1.0000
  C   C434      1.0  0.8604915154894082  0.7895617766219588  0.03383376852873954  1.0000
  C   C435      1.0  0.8413482628013689  0.7493000404049271  0.0597004144800215  1.0000
  C   C436      1.0  0.8459785907077877  0.7918802844495516  0.08398233891439055  1.0000
  H   H401      1.0  0.7965204407840957  0.7760097476334388  0.02705099300728664  1.0000
  H   H402      1.0  0.8001085188602319  0.807467050831687  0.045214428431511466  1.0000
  H   H403      1.0  0.7858073981722776  0.7777648161879536  0.0644745912787299  1.0000
  H   H404      1.0  0.8865936139643992  0.7849915677559368  0.03945067908089839  1.0000
  H   H405      1.0  0.8547208475464358  0.7805041793990771  0.012610520204532794  1.0000
  H   H406      1.0  0.8586668554881227  0.8119487496472967  0.030926259399761014  1.0000
  H   H407      1.0  0.8353662581372345  0.738931323821886  0.03924076635906326  1.0000
  H   H408      1.0  0.8244126525676106  0.7405746734398027  0.0762954143627419  1.0000
  H   H409      1.0  0.8668025897588816  0.7437150429920749  0.06644966459430424  1.0000
  H   H410      1.0  0.8289792819747538  0.784782763464929  0.10136186269679648  1.0000
  H   H411      1.0  0.8438449531129709  0.8143075715793081  0.08211040092384114  1.0000
  H   H412      1.0  0.871465601740716  0.7871764024031825  0.09145640237515051  1.0000
  N   N14       1.0  0.3957025897958866  0.026291000420277433  0.7173005985605426  1.0000
  C   C437      1.0  0.36350830374855125  0.02472177385451224  0.7319019886863718  1.0000
  C   C438      1.0  0.3945863074231872  0.008909872467540048  0.6919232902675653  1.0000
  C   C439      1.0  0.42192181596265904  0.01687373784281876  0.7374481996396541  1.0000
  C   C440      1.0  0.4027695667626446  0.054600706817578004  0.7078086039613923  1.0000
  H   H413      1.0  0.3573642089116968  0.0036064629226477685  0.7393317339953066  1.0000
  H   H414      1.0  0.34306101547299706  0.03115691300844814  0.7170994245144623  1.0000
  H   H415      1.0  0.36320730039713384  0.03770974297938001  0.751067708753942  1.0000
  H   H416      1.0  0.41857264539914923  0.009172693492697004  0.6805131496504033  1.0000
  H   H417      1.0  0.3891387460935112  0.9875467796150814  0.6984351280054045  1.0000
  H   H418      1.0  0.37489987360150534  0.015178955532751948  0.676289672079467  1.0000
  H   H419      1.0  0.446484460111709  0.0173235893811563  0.7269502389244237  1.0000
  H   H420      1.0  0.41737549354947356  0.9955388036656314  0.7449988568235709  1.0000
  H   H421      1.0  0.4236975837237227  0.029536063082120423  0.7568528372862758  1.0000
  H   H422      1.0  0.4038085265430446  0.06833007192359553  0.7264147751395286  1.0000
  H   H423      1.0  0.38340860076917754  0.062257579073138114  0.692554927212699  1.0000
  H   H424      1.0  0.4268515505207042  0.056434613270923695  0.6966067674789339  1.0000
  N   N15       1.0  0.10647079343967271  0.8973547824927051  0.4723295010307966  1.0000
  C   C441      1.0  0.13219941144019573  0.9090440417315795  0.45320356052237865  1.0000
  C   C442      1.0  0.09934742240491172  0.8690949257473984  0.4643574742766007  1.0000
  C   C443      1.0  0.07616566721870321  0.9134008407011794  0.4691278731249799  1.0000
  C   C444      1.0  0.11815658873590669  0.8978841215717698  0.5026083816748713  1.0000
  H   H425      1.0  0.13846778730357667  0.9303235989068795  0.45875088079757514  1.0000
  H   H426      1.0  0.12413288046748623  0.9092550358061281  0.4302003717269286  1.0000
  H   H427      1.0  0.15529783181988394  0.8972328335265566  0.4550125677029997  1.0000
  H   H428      1.0  0.09266758907421299  0.8678323650862951  0.44112207091151795  1.0000
  H   H429      1.0  0.1210481332976477  0.8559975294779196  0.4684218258234173  1.0000
  H   H430      1.0  0.07858707280738142  0.8601376767621615  0.47707538705105357  1.0000
  H   H431      1.0  0.056424381376549725  0.905256437417924  0.48362806448787166  1.0000
  H   H432      1.0  0.06636376468082705  0.9131635916661343  0.4466218621665419  1.0000
  H   H433      1.0  0.08091633989492819  0.9349458124968574  0.4746767662523155  1.0000
  H   H434      1.0  0.09948875873689648  0.8889243251625435  0.5175646634489387  1.0000
  H   H435      1.0  0.12323805996162762  0.9189769547862223  0.5094295510731794  1.0000
  H   H436      1.0  0.1413142682885041  0.8863128285233849  0.5058563396020465  1.0000
  N   N16       1.0  0.9306264568846476  0.09015482102993788  0.587161222294328  1.0000
  C   C445      1.0  0.9387401282379243  0.10035623795471915  0.6160853455913122  1.0000
  C   C446      1.0  0.8945029571757037  0.08711356818070293  0.5839081625624364  1.0000
  C   C447      1.0  0.9461218539953884  0.06360287782009033  0.5837616674611721  1.0000
  C   C448      1.0  0.9431192498842118  0.10960147796091557  0.5648882846641627  1.0000
  H   H437      1.0  0.9285433418779575  0.12087849443705889  0.6188953094030935  1.0000
  H   H438      1.0  0.9658180294562643  0.10186105097113751  0.6197587110371812  1.0000
  H   H439      1.0  0.9283096990108088  0.08682386781660734  0.6334613647760928  1.0000
  H   H440      1.0  0.8840783806582477  0.07331813992812286  0.601049756717334  1.0000
  H   H441      1.0  0.882152584535543  0.10699854347899729  0.5852002466911943  1.0000
  H   H442      1.0  0.8874789180019347  0.07820796504986127  0.5628914542489423  1.0000
  H   H443      1.0  0.9376477943192689  0.04860503107320202  0.600571784691134  1.0000
  H   H444      1.0  0.9734323021568054  0.06529104033458388  0.5854519121209242  1.0000
  H   H445      1.0  0.9396920391442856  0.054807623188959154  0.5625420427992632  1.0000
  H   H446      1.0  0.9318562723931563  0.1298854320071503  0.566952790928895  1.0000
  H   H447      1.0  0.9373091075136881  0.10252837163506934  0.5428061627797285  1.0000
  H   H448      1.0  0.9703327256094219  0.11243286193424562  0.566689453158664  1.0000
  N   N17       1.0  0.33750408917705005  0.7660204233474509  0.3891915839438348  1.0000
  C   C449      1.0  0.3197943719448732  0.7890399810881856  0.4010136640959014  1.0000
  C   C450      1.0  0.36377232484952693  0.7573593994677871  0.4096508085087317  1.0000
  C   C451      1.0  0.35226213546281093  0.7744645200181263  0.3613064320322685  1.0000
  C   C452      1.0  0.31409762386442497  0.7431870659262242  0.3848448999407948  1.0000
  H   H449      1.0  0.30043514623218204  0.7965922862885803  0.3857741503594378  1.0000
  H   H450      1.0  0.33677108678752726  0.8063714555618633  0.4055427848684473  1.0000
  H   H451      1.0  0.307392959577503  0.783062657584551  0.42151145473991647  1.0000
  H   H452      1.0  0.378380416547109  0.7406261140586129  0.40100621427797256  1.0000
  H   H453      1.0  0.38110673450880533  0.7743581287478402  0.4146175017957266  1.0000
  H   H454      1.0  0.35326893241317425  0.7497696324914135  0.43045405937014314  1.0000
  H   H455      1.0  0.3654900822331467  0.7575323439464391  0.3515126642140152  1.0000
  H   H456      1.0  0.37007029875509984  0.7916475384815295  0.3638230837439395  1.0000
  H   H457      1.0  0.33309238063067204  0.781205597216088  0.345413020358444  1.0000
  H   H458      1.0  0.30219993828330294  0.736562519974593  0.4054806963047258  1.0000
  H   H459      1.0  0.3266110372905703  0.7253326346366159  0.37620570815396515  1.0000
  H   H460      1.0  0.2941089464768183  0.7488978320415935  0.3693566440684043  1.0000
  N   N18       1.0  0.05352797161011559  0.9186606032938909  0.6130761187709666  1.0000
  C   C453      1.0  0.08061596398047377  0.9325579948715982  0.6286953157931321  1.0000
  C   C454      1.0  0.05327771481270638  0.8894813521280663  0.6211506065738427  1.0000
  C   C455      1.0  0.058473673209549  0.9221741913868986  0.5816714635970783  1.0000
  C   C456      1.0  0.02168662841183377  0.9304653383469516  0.62069765959562  1.0000
  H   H461      1.0  0.08165168057982576  0.9545749121017095  0.6230004921876088  1.0000
  H   H462      1.0  0.10508733932858955  0.9241494208276987  0.6235431602323862  1.0000
  H   H463      1.0  0.07756976057533783  0.9306260777329195  0.6524854357744998  1.0000
  H   H464      1.0  0.0330959397038173  0.8783721155222601  0.6097623957770872  1.0000
  H   H465      1.0  0.07678732232594389  0.879841781034105  0.6152720219934712  1.0000
  H   H466      1.0  0.049742484528013886  0.8861148775820945  0.6447405516473022  1.0000
  H   H467      1.0  0.08210793989978017  0.9132113330072323  0.575055889569404  1.0000
  H   H468      1.0  0.0589296308048708  0.9439911435318974  0.5748755532435018  1.0000
  H   H469      1.0  0.038308698953135156  0.9120780562679143  0.5692861051820882  1.0000
  H   H470      1.0  0.0005435888969962391  0.9195819380447982  0.6105003104941951  1.0000
  H   H471      1.0  0.020411877076501828  0.9520400658142139  0.6133126131317727  1.0000
  H   H472      1.0  0.01782457323005504  0.929759505963544  0.6444595007917449  1.0000
  N   N19       1.0  0.07318661469793164  0.3395028086872356  0.6688360122255808  1.0000
  C   C457      1.0  0.05329260959780702  0.335401042067881  0.6423556925880843  1.0000
  C   C458      1.0  0.10511743105213656  0.3525020791156368  0.661219005066698  1.0000
  C   C459      1.0  0.07923382744061258  0.3130147798831485  0.6834403661925492  1.0000
  C   C460      1.0  0.05519664226051346  0.35703796775752017  0.6883440354334152  1.0000
  H   H473      1.0  0.04836528675968399  0.35498438491127143  0.6307501615699075  1.0000
  H   H474      1.0  0.028945659724525008  0.3256551300453406  0.6473506826611385  1.0000
  H   H475      1.0  0.06614390038395745  0.32219201352180654  0.627167222909202  1.0000
  H   H476      1.0  0.12077631898330576  0.3556824155561804  0.6807506451041105  1.0000
  H   H477      1.0  0.11938980058857718  0.33969971312515695  0.6466025635301356  1.0000
  H   H478      1.0  0.10176406245796432  0.37261379601851796  0.650245911041903  1.0000
  H   H479      1.0  0.09252371557792749  0.29922311220115294  0.6691462677525705  1.0000
  H   H480      1.0  0.05577831610473516  0.30278245970475914  0.6899289888974705  1.0000
  H   H481      1.0  0.09488143192215825  0.3153422957295647  0.7031571068538972  1.0000
  H   H482      1.0  0.06945755963193778  0.36041003316309334  0.7086010446102062  1.0000
  H   H483      1.0  0.03081418674201375  0.3479839690387108  0.694376395515197  1.0000
  H   H484      1.0  0.05045444164634616  0.377295016129835  0.6781223601421066  1.0000
  N   N20       1.0  0.5187234727032212  0.3911603782025161  0.4445561522087064  1.0000
  C   C461      1.0  0.5416279988859025  0.38819077195459617  0.4694298396099195  1.0000
  C   C462      1.0  0.527734737072015  0.37209932168728604  0.42209205432020824  1.0000
  C   C463      1.0  0.5208538854543391  0.4192540610002143  0.43275495382886514  1.0000
  C   C464      1.0  0.48465171591203066  0.38511977559737753  0.4539930539492419  1.0000
  H   H485      1.0  0.5361762784263855  0.4028163792514524  0.48641299533645715  1.0000
  H   H486      1.0  0.5677399865982168  0.39153394682948034  0.4630055658941226  1.0000
  H   H487      1.0  0.5397059220396435  0.367613698526749  0.4796055889056254  1.0000
  H   H488      1.0  0.5254751870542517  0.3507354951662312  0.4301895617644075  1.0000
  H   H489      1.0  0.5113877834306418  0.37418247854777154  0.4027460443117531  1.0000
  H   H490      1.0  0.5536609348607596  0.37544117243406333  0.41505346702468204  1.0000
  H   H491      1.0  0.5035884355892971  0.42235193946917965  0.414151310058458  1.0000
  H   H492      1.0  0.5462054932467111  0.4244204818722783  0.42525788331982267  1.0000
  H   H493      1.0  0.5144639248687818  0.4340976141820898  0.44937580588148307  1.0000
  H   H494      1.0  0.4763893251202732  0.3999387266721059  0.4698797322552826  1.0000
  H   H495      1.0  0.4825037488735859  0.36453762515704896  0.46441335401726924  1.0000
  H   H496      1.0  0.46685143174473503  0.3858664173378259  0.43555411273700323  1.0000
  N   N21       1.0  0.051307269643500186  0.05978688426011857  0.12707826944646405  1.0000
  C   C465      1.0  0.03367212930395902  0.04742454701720544  0.1519983487930301  1.0000
  C   C466      1.0  0.08501666792906915  0.04895867263318521  0.12635595670999855  1.0000
  C   C467      1.0  0.053065865370266474  0.08953837439591904  0.1298100922879688  1.0000
  C   C468      1.0  0.03345201399248032  0.05310663816917204  0.10016503287099798  1.0000
  H   H497      1.0  0.007843488131509702  0.05450506595411664  0.1527699958139519  1.0000
  H   H498      1.0  0.04596916164447906  0.05254504096073087  0.17275747953993092  1.0000
  H   H499      1.0  0.03255723397186827  0.024905543962000516  0.15086538271971772  1.0000
  H   H500      1.0  0.0989745963057278  0.05730349689266778  0.1074914315353892  1.0000
  H   H501      1.0  0.09939565723472832  0.05382038516187104  0.14617750009159014  1.0000
  H   H502      1.0  0.08446695904678703  0.026518012606370434  0.12471510070721603  1.0000
  H   H503      1.0  0.0656474822776345  0.09952263925966709  0.11107102956685777  1.0000
  H   H504      1.0  0.06661075173628572  0.09539393320209813  0.14975307469753818  1.0000
  H   H505      1.0  0.028049404382653353  0.09833914132152247  0.13089102348312354  1.0000
  H   H506      1.0  0.00868748755972959  0.06236419450142994  0.09909381680317764  1.0000
  H   H507      1.0  0.029628479187131074  0.030851203370794177  0.0984312863833603  1.0000
  H   H508      1.0  0.04706891251077194  0.060478044191415455  0.08072164225627909  1.0000
  N   N22       1.0  0.11148607083904995  0.7859362618559076  0.3834606834525612  1.0000
  C   C469      1.0  0.10483176712208246  0.7887971130234556  0.3521169114305359  1.0000
  C   C470      1.0  0.1248200596485579  0.8118422802021698  0.39425069482646846  1.0000
  C   C471      1.0  0.13572326178864771  0.7643473865241781  0.38902622397711906  1.0000
  C   C472      1.0  0.08049277419511114  0.7787589898164489  0.3984954263945374  1.0000
  H   H509      1.0  0.12766320263667397  0.7937881676073235  0.3398936689411402  1.0000
  H   H510      1.0  0.08683275783873577  0.805108871808311  0.3472107703903166  1.0000
  H   H511      1.0  0.09426754000944516  0.7697611497780645  0.34323380050694935  1.0000
  H   H512      1.0  0.12983535256186143  0.8103912186692044  0.41788985960205316  1.0000
  H   H513      1.0  0.1484223593926686  0.8177811583902908  0.38360671291769705  1.0000
  H   H514      1.0  0.1070991745138818  0.8285562480791655  0.39033800620506026  1.0000
  H   H515      1.0  0.14079914871582283  0.7614079619797511  0.4125748629870211  1.0000
  H   H516      1.0  0.15960953829070457  0.7692757116349052  0.3784045372695007  1.0000
  H   H517      1.0  0.12662409891043752  0.7445855802382931  0.3808421959283938  1.0000
  H   H518      1.0  0.08437360098137092  0.776979094857214  0.4222919972155245  1.0000
  H   H519      1.0  0.06999176260756235  0.759105529679681  0.39126073711741827  1.0000
  H   H520      1.0  0.06145605842622027  0.7943460013961731  0.39432608796700475  1.0000
  N   N23       1.0  0.40069937882827245  0.4075901670876834  0.6171056801705803  1.0000
  C   C473      1.0  0.4162328126178222  0.4176069509129999  0.643804725971299  1.0000
  C   C474      1.0  0.37096154421556365  0.39120550329383624  0.6244390365112473  1.0000
  C   C475      1.0  0.42432274401331754  0.39072684648183725  0.6019734774458964  1.0000
  C   C476      1.0  0.39117601735594837  0.43086360152506165  0.5982058200044081  1.0000
  H   H521      1.0  0.39849258920002567  0.42928831025011344  0.6562959106056093  1.0000
  H   H522      1.0  0.4378620413689498  0.43118393757507884  0.6390942090862736  1.0000
  H   H523      1.0  0.424819092051853  0.40067632365302475  0.6582010729370872  1.0000
  H   H524      1.0  0.35226956891500566  0.40348856268378  0.6352919535949741  1.0000
  H   H525      1.0  0.3589422835736346  0.3830229057253527  0.6048037688020294  1.0000
  H   H526      1.0  0.3768830027739258  0.37375811838787504  0.639256224693855  1.0000
  H   H527      1.0  0.446325214186925  0.4028233983634896  0.5947877640038053  1.0000
  H   H528      1.0  0.41283732516802457  0.38177269238400907  0.5824741121782494  1.0000
  H   H529      1.0  0.4331136495797686  0.3736137722170458  0.6160113595049467  1.0000
  H   H530      1.0  0.37954138196831855  0.4239697596579592  0.577750764806452  1.0000
  H   H531      1.0  0.41295469162825343  0.44384243524100947  0.5923554454792328  1.0000
  H   H532      1.0  0.37322475672350414  0.4439537957806173  0.6089724404597656  1.0000
  N   N24       1.0  0.8578153840660196  0.34781232233589904  0.6277596092232133  1.0000
  C   C477      1.0  0.8690756343045528  0.32498640784102373  0.6106898478071664  1.0000
  C   C478      1.0  0.862280032151156  0.3411689353378795  0.6588287989479963  1.0000
  C   C479      1.0  0.8225617327556497  0.35271252641666206  0.6215289870428641  1.0000
  C   C480      1.0  0.8773234821665378  0.3724400906665788  0.6200102990964046  1.0000
  H   H533      1.0  0.8956428538725575  0.32084412004605783  0.6147644777574752  1.0000
  H   H534      1.0  0.8654408027508976  0.32907428582848147  0.5871578189059379  1.0000
  H   H535      1.0  0.855135941029717  0.3060101044838102  0.616205735805976  1.0000
  H   H536      1.0  0.8538936231134003  0.35793162748776103  0.6723167125241986  1.0000
  H   H537      1.0  0.8477351021945092  0.3226821340790217  0.6653072954254556  1.0000
  H   H538      1.0  0.8886171366150234  0.33737706319608984  0.6644291486205522  1.0000
  H   H539      1.0  0.8180267575487936  0.357435449413305  0.5982240593381886  1.0000
  H   H540      1.0  0.8134109316418735  0.3700571013362004  0.633763156905939  1.0000
  H   H541      1.0  0.8069836541536617  0.33479990398144227  0.6275962008054495  1.0000
  H   H542      1.0  0.8742243682535733  0.37813037636831115  0.5967471225748133  1.0000
  H   H543      1.0  0.9040525629839841  0.36962418700501404  0.624590690552308  1.0000
  H   H544      1.0  0.8692481706898458  0.3901148238433819  0.6323278871955065  1.0000
  N   N25       1.0  0.3744047360663409  0.8039877038152516  0.029571940404048203  1.0000
  C   C481      1.0  0.40437375743375026  0.81630472924103  0.042448513136066346  1.0000
  C   C482      1.0  0.3781513486418821  0.7742987912348377  0.028562680044999178  1.0000
  C   C483      1.0  0.3695557516810993  0.8152149533034841  0.9999621052234203  1.0000
  C   C484      1.0  0.3455928076419842  0.810262629174282  0.04724647106110602  1.0000
  H   H545      1.0  0.4028233428139447  0.8387782580438399  0.04260252851772339  1.0000
  H   H546      1.0  0.4268183344642498  0.8111707266153573  0.030389056223258493  1.0000
  H   H547      1.0  0.40814151356201167  0.8092318350622626  0.06513689584882498  1.0000
  H   H548      1.0  0.35552275426577135  0.7642355501329186  0.019912619089555328  1.0000
  H   H549      1.0  0.39882895653732453  0.768929499310775  0.01440137146656939  1.0000
  H   H550      1.0  0.3834123385348479  0.7651949606691247  0.05029917087078162  1.0000
  H   H551      1.0  0.39129948120359365  0.8116163898078769  0.9862587807451132  1.0000
  H   H552      1.0  0.3657830864985098  0.8374788855534011  0.9999787060074579  1.0000
  H   H553      1.0  0.34767754653497923  0.805892429732219  0.9892102825144485  1.0000
  H   H554      1.0  0.32242674705157964  0.8014976444391563  0.03809735165964079  1.0000
  H   H555      1.0  0.3423031322486186  0.8325661674374761  0.04845554406886632  1.0000
  H   H556      1.0  0.34834911380326405  0.802079426519488  0.06977142275780257  1.0000
  N   N26       1.0  0.4020897450073328  0.7081228713314361  0.1786392234930425  1.0000
  C   C485      1.0  0.37881446929540363  0.7258651693610751  0.19305626974261303  1.0000
  C   C486      1.0  0.39035851922897674  0.7033157365513167  0.14890943564293524  1.0000
  C   C487      1.0  0.4041445342000485  0.6819457818059929  0.19481687558813743  1.0000
  C   C488      1.0  0.4350528327076504  0.7213371692442814  0.177701664668378  1.0000
  H   H557      1.0  0.3866412885505591  0.7297014043265148  0.21566190863326762  1.0000
  H   H558      1.0  0.3534797825953602  0.7168574335965061  0.19357766933131493  1.0000
  H   H559      1.0  0.3770276015998211  0.7459039639969041  0.18164060533985293  1.0000
  H   H560      1.0  0.38854383386989766  0.7226453789275803  0.13607080909133096  1.0000
  H   H561      1.0  0.4074087982147316  0.6899344960168979  0.1375192943704111  1.0000
  H   H562      1.0  0.36554371560400056  0.693367469044545  0.1487075480964155  1.0000
  H   H563      1.0  0.3796801151459085  0.6714550995374876  0.19598182175196843  1.0000
  H   H564      1.0  0.4133170805338535  0.6847114029546971  0.2172538336496359  1.0000
  H   H565      1.0  0.42128881402262264  0.6679626653838754  0.18436058628053242  1.0000
  H   H566      1.0  0.44464187141314543  0.7255463592453957  0.1997092691405633  1.0000
  H   H567      1.0  0.4344612320769244  0.7409740093377676  0.16530736532563628  1.0000
  H   H568      1.0  0.45329371185793904  0.7083645612361315  0.1671824806668012  1.0000
  N   N27       1.0  0.34097577939083784  0.9757828857509965  0.9489894757729472  1.0000
  C   C489      1.0  0.31625557996324183  0.9896565965496419  0.9661497160817749  1.0000
  C   C490      1.0  0.33472926590100044  0.9815690721785563  0.9179713087632527  1.0000
  C   C491      1.0  0.3385438055028967  0.9462349143975537  0.954916031242049  1.0000
  C   C492      1.0  0.37437518498012934  0.9856776256183005  0.9569261900432088  1.0000
  H   H569      1.0  0.320056074166013  0.9855671102030946  0.9896114509254744  1.0000
  H   H570      1.0  0.29071964129820604  0.9828176718880807  0.9607142891964103  1.0000
  H   H571      1.0  0.3176946552770237  0.012042281086813267  0.9626657330746863  1.0000
  H   H572      1.0  0.30980783357280905  0.9742512148197602  0.9111963766035814  1.0000
  H   H573      1.0  0.3364931025462263  0.003675042004984255  0.912729156154095  1.0000
  H   H574      1.0  0.3529474245901267  0.9714211631110057  0.9043579007175513  1.0000
  H   H575      1.0  0.31369252700263955  0.9380193006449701  0.9492149842011074  1.0000
  H   H576      1.0  0.34318406956250863  0.941154401416041  0.9781208186267284  1.0000
  H   H577      1.0  0.3568987209225795  0.9351708213999845  0.9423085139115591  1.0000
  H   H578      1.0  0.37708230660818326  0.007935455816512338  0.9530211751322935  1.0000
  H   H579      1.0  0.3936524419771033  0.9757714731490941  0.944224484129203  1.0000
  H   H580      1.0  0.38003523459582744  0.9813784224115498  0.9801118401951965  1.0000
  N   N28       1.0  0.16812301853076173  0.12942273654326872  0.06768617820722111  1.0000
  C   C493      1.0  0.18141777661939434  0.1496797429038717  0.046595322759425795  1.0000
  C   C494      1.0  0.19302339470783697  0.10848184626042542  0.07380027900451114  1.0000
  C   C495      1.0  0.13809050291766015  0.11646363188098674  0.05563400653215522  1.0000
  C   C496      1.0  0.16006411861386668  0.14297408060186334  0.09465741708114717  1.0000
  H   H581      1.0  0.18824016162864932  0.1401464667528414  0.026113046602571632  1.0000
  H   H582      1.0  0.204045904844365  0.1598818340194875  0.055101195676648285  1.0000
  H   H583      1.0  0.16331077059271426  0.1658171096527096  0.0413475008351778  1.0000
  H   H584      1.0  0.21631162098396003  0.11748852766590455  0.08220045912359897  1.0000
  H   H585      1.0  0.1842844820541976  0.0930902466177122  0.09011271257147624  1.0000
  H   H586      1.0  0.19913310918759952  0.09743349365837056  0.05402982173044357  1.0000
  H   H587      1.0  0.11861557057965066  0.13156013245819803  0.05072901925426554  1.0000
  H   H588      1.0  0.12783782665741358  0.1007362412871276  0.07085405529084987  1.0000
  H   H589      1.0  0.1434919139883673  0.10595531457972755  0.03532302205535287  1.0000
  H   H590      1.0  0.1504766898447332  0.1282790131303381  0.1112749879782653  1.0000
  H   H591      1.0  0.14129273605485979  0.15892562306674526  0.09090436507223831  1.0000
  H   H592      1.0  0.18218662338352695  0.15309944900695918  0.1041574527408149  1.0000
  N   N29       1.0  0.8085826449365997  0.49998038477306994  0.5323113368436353  1.0000
  C   C497      1.0  0.7773758214020536  0.5085507318021902  0.5450704628510319  1.0000
  C   C498      1.0  0.8014129654759898  0.47941212065578137  0.5104682046928564  1.0000
  C   C499      1.0  0.8301920085824926  0.4882105849339856  0.5551238853394387  1.0000
  C   C500      1.0  0.8253697300365678  0.523770281554214  0.5186703823912916  1.0000
  H   H593      1.0  0.7604447175088678  0.5174672237027295  0.528453583231206  1.0000
  H   H594      1.0  0.7818722652207422  0.5240555864411011  0.5617058082581445  1.0000
  H   H595      1.0  0.7640617665310813  0.4911403747861899  0.5556446352726097  1.0000
  H   H596      1.0  0.8243091622213141  0.47266540892723236  0.5000953002076471  1.0000
  H   H597      1.0  0.7892998414627186  0.4610550897435042  0.5203452867373083  1.0000
  H   H598      1.0  0.7845207821723811  0.4872713873841115  0.4932046031767853  1.0000
  H   H599      1.0  0.8536908571097952  0.48099357189175673  0.5462465557116596  1.0000
  H   H600      1.0  0.8180799878345726  0.4706061884394449  0.5663419160647634  1.0000
  H   H601      1.0  0.8365890800277132  0.5032461878650175  0.5717769246840344  1.0000
  H   H602      1.0  0.8491618451038329  0.5181348088282645  0.5090141711794702  1.0000
  H   H603      1.0  0.8309585855246376  0.5396057397701078  0.5347881302050671  1.0000
  H   H604      1.0  0.8098308972648864  0.5332039304199104  0.5013168415442866  1.0000
  N   N30       1.0  0.2888149815924592  0.3209629345940357  0.5674029557935387  1.0000
  C   C501      1.0  0.2632312375661438  0.33615205368883727  0.5821612403834171  1.0000
  C   C502      1.0  0.30118916673973345  0.2991163939299534  0.5869269563402815  1.0000
  C   C503      1.0  0.31643362813047826  0.33948549874652595  0.5593691826569178  1.0000
  C   C504      1.0  0.27449570414045865  0.309044975535517  0.5411407409093031  1.0000
  H   H605      1.0  0.24268912867666148  0.3225187865603615  0.5896417155489617  1.0000
  H   H606      1.0  0.25253140788371087  0.35219981773155223  0.56774470685515  1.0000
  H   H607      1.0  0.27352531709163413  0.34627700606819384  0.6014710152465504  1.0000
  H   H608      1.0  0.3206790404995215  0.2873103508537939  0.5764607021614256  1.0000
  H   H609      1.0  0.3119366315355279  0.30744555357778797  0.6070996303984356  1.0000
  H   H610      1.0  0.2810862376189306  0.2845687876199179  0.5932685031338244  1.0000
  H   H611      1.0  0.3365168927905182  0.32851578509184504  0.5487455414646809  1.0000
  H   H612      1.0  0.327437163764838  0.34914788247104733  0.5786388570662226  1.0000
  H   H613      1.0  0.3083652898803985  0.355928746224211  0.5440583182042887  1.0000
  H   H614      1.0  0.25426257115621376  0.2942397773716516  0.5463904554722803  1.0000
  H   H615      1.0  0.2934650985280844  0.2981834354376727  0.5291497066276655  1.0000
  H   H616      1.0  0.26430500842541227  0.3248316253771738  0.5260940352789429  1.0000
  N   N31       1.0  0.33352758886426936  0.7995225119001713  0.5800194614804973  1.0000
  C   C505      1.0  0.34422279765407304  0.7965836002069941  0.6105161467935522  1.0000
  C   C506      1.0  0.3566551877483152  0.8179794577300084  0.5644242127992097  1.0000
  C   C507      1.0  0.300016332152056  0.8108217185159944  0.5783497837426442  1.0000
  C   C508      1.0  0.33333405607624317  0.7726933404066711  0.5667319260642432  1.0000
  H   H617      1.0  0.32769175935825295  0.7824794313960869  0.6229300629007349  1.0000
  H   H618      1.0  0.34430868146570953  0.8163820174764687  0.6213730793971144  1.0000
  H   H619      1.0  0.36971018712398207  0.7885814000354466  0.6124117633740094  1.0000
  H   H620      1.0  0.35804145790773184  0.838229928557355  0.5743367675446708  1.0000
  H   H621      1.0  0.3820682695173136  0.809748514299916  0.5646186953395054  1.0000
  H   H622      1.0  0.3490787745409915  0.8210142669049472  0.5414407289957982  1.0000
  H   H623      1.0  0.29128456278806486  0.8134034856029158  0.5555477610036795  1.0000
  H   H624      1.0  0.2992639888243628  0.8310803505687445  0.5881898646240313  1.0000
  H   H625      1.0  0.2818151650283873  0.7973742479122824  0.5897403257541792  1.0000
  H   H626      1.0  0.3249403854822859  0.7740859924367332  0.5438237461290161  1.0000
  H   H627      1.0  0.31654319692933014  0.7580610467736488  0.5781561038977528  1.0000
  H   H628      1.0  0.35843310569010495  0.7638505366744325  0.5671223982632898  1.0000
  N   N32       1.0  0.7910629318025226  0.9379652103088225  0.9991159931668304  1.0000
  C   C509      1.0  0.7976790840097577  0.9128001400965658  0.9838752211670878  1.0000
  C   C510      1.0  0.8141565802728707  0.9595868151429243  0.9889796430719896  1.0000
  C   C511      1.0  0.7956946117628757  0.9332008931182697  0.03050136547656246  1.0000
  C   C512      1.0  0.7567599692969663  0.9462133547523311  0.9930940562614262  1.0000
  H   H629      1.0  0.7814851431801605  0.8957949955274892  0.991684345902928  1.0000
  H   H630      1.0  0.8236777053297681  0.9065175169782979  0.9869633860537067  1.0000
  H   H631      1.0  0.7930058806802697  0.9153217206221618  0.9602381856408966  1.0000
  H   H632      1.0  0.8099887267005709  0.9789061441378178  3.873601573722851e-05  1.0000
  H   H633      1.0  0.8402998746739303  0.9538969294828473  0.9933027451406342  1.0000
  H   H634      1.0  0.8114174231802823  0.963631170719128  0.9653392790329723  1.0000
  H   H635      1.0  0.779911592592674  0.9160395737484749  0.038739932060743776  1.0000
  H   H636      1.0  0.7896051524799041  0.9514234913332392  0.042788120321845424  1.0000
  H   H637      1.0  0.8216857873150974  0.9282264528212245  0.035890127334068156  1.0000
  H   H638      1.0  0.7521278277167478  0.9493484030442381  0.9695142778350553  1.0000
  H   H639      1.0  0.7509041401674726  0.9653474498325099  0.0038468288588906496  1.0000
  H   H640      1.0  0.7388125286069721  0.9303419492139176  0.0007640647262625588  1.0000
  N   N33       1.0  0.0009509554940283493  0.31357054836892  0.9131457337056964  1.0000
  C   C513      1.0  0.011580744400306875  0.3188329452221349  0.9430732638214634  1.0000
  C   C514      1.0  0.968500357091479  0.29943920384838907  0.9133421097750462  1.0000
  C   C515      1.0  0.025442757337082345  0.29642120613165335  0.8994682678206036  1.0000
  C   C516      1.0  0.9983564629361519  0.33956605518959815  0.8966894587719236  1.0000
  H   H641      1.0  0.035513672644422734  0.3301987833282833  0.943787560787979  1.0000
  H   H642      1.0  0.014501633696049288  0.2996726580547557  0.9559799620165148  1.0000
  H   H643      1.0  0.9932794853573689  0.33115465223753415  0.954251629980031  1.0000
  H   H644      1.0  0.9693173491860249  0.2800109530430554  0.9261262545901537  1.0000
  H   H645      1.0  0.9491764316714529  0.31200200590718175  0.9228921339288237  1.0000
  H   H646      1.0  0.9600340804185353  0.29463977364193844  0.8911016025058986  1.0000
  H   H647      1.0  0.018310131901719817  0.29222772996324853  0.8767508566468426  1.0000
  H   H648      1.0  0.0277653592062026  0.27651463296952233  0.9111438811571104  1.0000
  H   H649      1.0  0.05025505777028694  0.3063886093124741  0.8991131055304735  1.0000
  H   H650      1.0  0.022456300401622276  0.350674639308741  0.8958550089768171  1.0000
  H   H651      1.0  0.9804408437683999  0.3531755131507358  0.9066163509260116  1.0000
  H   H652      1.0  0.9899632664118326  0.3363186042209865  0.8740795881425999  1.0000
  N   N34       1.0  0.11075682570990307  0.4484527494936771  0.8387011730431277  1.0000
  C   C517      1.0  0.12176302626816495  0.46647475354989004  0.8619561079607189  1.0000
  C   C518      1.0  0.08766206544889815  0.4630638977252017  0.8191498332520532  1.0000
  C   C519      1.0  0.09386451178061907  0.42424816098004003  0.8514198414808202  1.0000
  C   C520      1.0  0.13966192787782866  0.44003927326631076  0.822299921236502  1.0000
  H   H653      1.0  0.13946030997827008  0.4561714367227893  0.8769784827045565  1.0000
  H   H654      1.0  0.1006402928512343  0.47268387507864534  0.8752349635397573  1.0000
  H   H655      1.0  0.13424746644705962  0.4851361383022709  0.8532024576785244  1.0000
  H   H656      1.0  0.09949878962667431  0.48135113527906465  0.8089087632534904  1.0000
  H   H657      1.0  0.07842087564854895  0.44989989198097585  0.8015897181898531  1.0000
  H   H658      1.0  0.06562009747510911  0.4697491958374646  0.8309491503065317  1.0000
  H   H659      1.0  0.08443578734528658  0.41049878978411336  0.8344964296456095  1.0000
  H   H660      1.0  0.0722536572942718  0.4299830284553934  0.8644080193791331  1.0000
  H   H661      1.0  0.11055427639540645  0.41252298407730753  0.8661306086419841  1.0000
  H   H662      1.0  0.13230863165460308  0.42597443080026104  0.8049857170948016  1.0000
  H   H663      1.0  0.15792775788990118  0.42955283951706846  0.8365842095731488  1.0000
  H   H664      1.0  0.15258738510659942  0.4577858569167448  0.8118939458801825  1.0000
  N   N35       1.0  0.7741622045130933  0.8428270666213741  0.7556758150488119  1.0000
  C   C521      1.0  0.8076025610701646  0.8314509288507163  0.7556323871617392  1.0000
  C   C522      1.0  0.7598787521213793  0.8420120337773592  0.7262315868775464  1.0000
  C   C523      1.0  0.776111608593028  0.87119655093228  0.7650437761313724  1.0000
  C   C524      1.0  0.7532418182907538  0.8264863709340762  0.7757093012285698  1.0000
  H   H665      1.0  0.8190375161237572  0.8315018287586765  0.7775660849578034  1.0000
  H   H666      1.0  0.8241225396966756  0.8433436464532807  0.7408268267621624  1.0000
  H   H667      1.0  0.806977655156391  0.8100979181994917  0.7484239403885229  1.0000
  H   H668      1.0  0.7342984325803237  0.849793334264189  0.725445079921326  1.0000
  H   H669      1.0  0.7747558129528854  0.8544419034662969  0.710643855857732  1.0000
  H   H670      1.0  0.7587539360218942  0.8209447412592261  0.7183297238836683  1.0000
  H   H671      1.0  0.7864159904177684  0.8725426608063652  0.7873056648320389  1.0000
  H   H672      1.0  0.7514179172430647  0.8805793876336984  0.7650716784796233  1.0000
  H   H673      1.0  0.7919112089370756  0.8840649683691123  0.7504941946440231  1.0000
  H   H674      1.0  0.7274440016908551  0.8337300991604883  0.7756031296104228  1.0000
  H   H675      1.0  0.7624278868478012  0.827405889503919  0.798377318212095  1.0000
  H   H676      1.0  0.7522456415568665  0.8047945862636153  0.7697567725938089  1.0000
  N   N36       1.0  0.8576519101464695  0.13905736061972818  0.12852075539667673  1.0000
  C   C525      1.0  0.8845492617928626  0.1523979931401527  0.14485024482394282  1.0000
  C   C526      1.0  0.858614983817036  0.148439247752704  0.09798345557012289  1.0000
  C   C527      1.0  0.8256797775676292  0.14612551612399402  0.14094372085731544  1.0000
  C   C528      1.0  0.8618827143310906  0.10936755886599232  0.13026757665915123  1.0000
  H   H677      1.0  0.9088791715622496  0.14834028720264536  0.13544479690838607  1.0000
  H   H678      1.0  0.885439681224502  0.1451542653563396  0.16777050394961845  1.0000
  H   H679      1.0  0.881807052389098  0.17477748229845844  0.14466429338978481  1.0000
  H   H680      1.0  0.8383181838111395  0.1391281152924457  0.08510822176338362  1.0000
  H   H681      1.0  0.8561880740689388  0.17087117850213487  0.09587927241281435  1.0000
  H   H682      1.0  0.8822416900417757  0.143022240740862  0.08779438275334939  1.0000
  H   H683      1.0  0.804717130384802  0.13643545391705633  0.12921707955296236  1.0000
  H   H684      1.0  0.8219734726614971  0.16848370977177915  0.13974994527186935  1.0000
  H   H685      1.0  0.8242006076048757  0.1395398201194014  0.16404597080558103  1.0000
  H   H686      1.0  0.8420748145552329  0.09855898730756073  0.11815118192629082  1.0000
  H   H687      1.0  0.8616246613647613  0.10150764845059651  0.1529929779631385  1.0000
  H   H688      1.0  0.8858253186144284  0.10355693983751853  0.12092057858372196  1.0000
  N   N37       1.0  0.687129099234664  0.6270456912754598  0.1533892088114468  1.0000
  C   C529      1.0  0.6856566969900432  0.598020347253915  0.16210708826087972  1.0000
  C   C530      1.0  0.6539714753018762  0.6360587716924471  0.14416602440158743  1.0000
  C   C531      1.0  0.710110938902078  0.6309425679506278  0.1291084162879712  1.0000
  C   C532      1.0  0.6987812037952638  0.6430879142710006  0.1780489733424495  1.0000
  H   H689      1.0  0.7104401082391514  0.5903769250063847  0.16860672935462984  1.0000
  H   H690      1.0  0.6764196638021664  0.5854664221233588  0.14409462272219464  1.0000
  H   H691      1.0  0.669003917817919  0.5942276425051904  0.18070399268760395  1.0000
  H   H692      1.0  0.6358905647858616  0.6333702696182621  0.16189384684894748  1.0000
  H   H693      1.0  0.6542714701791283  0.657896238095171  0.1374343715676154  1.0000
  H   H694      1.0  0.6444704649173185  0.6243947817486424  0.12551705749640174  1.0000
  H   H695      1.0  0.735625666924861  0.6252253817198711  0.13553191122547426  1.0000
  H   H696      1.0  0.7110614198797996  0.6524611267342609  0.12126280923301436  1.0000
  H   H697      1.0  0.7027303775796476  0.6181495710549848  0.11067872718179306  1.0000
  H   H698      1.0  0.6997205421550644  0.6651842702545326  0.17239883082555219  1.0000
  H   H699      1.0  0.7239811709651177  0.6370359738982834  0.18530830166789847  1.0000
  H   H700      1.0  0.6822358456385825  0.6403189241321361  0.19688001679071476  1.0000
  N   N38       1.0  0.8959788352424637  0.4971028095361542  0.98354045068587  1.0000
  C   C533      1.0  0.8685900018061242  0.4834338489721096  0.9681200448341422  1.0000
  C   C534      1.0  0.895863399335339  0.48836032873137236  0.014302762222125676  1.0000
  C   C535      1.0  0.8917185017556897  0.5267572083436968  0.981153128031401  1.0000
  C   C536      1.0  0.927631446940134  0.48991065114291704  0.9705735835062969  1.0000
  H   H701      1.0  0.8694497736347014  0.48782393081202047  0.9444648786372081  1.0000
  H   H702      1.0  0.8442581841575763  0.49008804095737135  0.9757601025705492  1.0000
  H   H703      1.0  0.869546097683096  0.46100053491914994  0.9712440074411945  1.0000
  H   H704      1.0  0.9167595109614848  0.49763104329961705  0.026471741515317726  1.0000
  H   H705      1.0  0.8727309293036827  0.4942530172402351  0.024922021311222675  1.0000
  H   H706      1.0  0.8977929824926368  0.4659504409220994  0.016988723499502978  1.0000
  H   H707      1.0  0.8913440869080597  0.5340149126416562  0.9582078436756347  1.0000
  H   H708      1.0  0.9119994702179307  0.5377677001417323  0.9924611889969699  1.0000
  H   H709      1.0  0.8680647266659094  0.5328035072254512  0.9909409274076519  1.0000
  H   H710      1.0  0.948954256730963  0.4997565160935208  0.9816322857865428  1.0000
  H   H711      1.0  0.9284542153995199  0.4959475640683127  0.9472751507717737  1.0000
  H   H712      1.0  0.931421572609531  0.46766369318350187  0.9718633368000215  1.0000
  N   N39       1.0  0.004700235785268347  0.24085411393619433  0.729993395419703  1.0000
  C   C537      1.0  0.9856195301520415  0.2640617501792447  0.7184754391577161  1.0000
  C   C538      1.0  0.03330151915509694  0.25097173751038865  0.7468274055375036  1.0000
  C   C539      1.0  0.016333365597832383  0.2248576002445309  0.7057997147374797  1.0000
  C   C540      1.0  0.9834901312877639  0.22361035054831796  0.7489077875476766  1.0000
  H   H713      1.0  0.9773279548598632  0.2770858315289254  0.7359474191487105  1.0000
  H   H714      1.0  0.9631342670936885  0.25724399588530317  0.7065886623324252  1.0000
  H   H715      1.0  0.00032753594958845333  0.2770300625395901  0.703238314871873  1.0000
  H   H716      1.0  0.048462541753878874  0.23400454634954954  0.7556277035307379  1.0000
  H   H717      1.0  0.04962355932381346  0.2644130453961883  0.7333799287291841  1.0000
  H   H718      1.0  0.025268486113002364  0.2629063929142698  0.7654460878007661  1.0000
  H   H719      1.0  0.03006166640100849  0.2067127998209016  0.7135783246215377  1.0000
  H   H720      1.0  0.033092708655107606  0.23708314533384203  0.6915564698520996  1.0000
  H   H721      1.0  0.9953982102385291  0.2177545515813228  0.6920608497760161  1.0000
  H   H722      1.0  0.9607662219832508  0.21664198179930344  0.737380159667474  1.0000
  H   H723      1.0  0.975416727056612  0.23481904591485617  0.7679638999642103  1.0000
  H   H724      1.0  0.9965753108128517  0.20531503815721083  0.7571758827621506  1.0000
  N   N40       1.0  0.0943057006665482  0.1069082790923721  0.6406011129682414  1.0000
  C   C541      1.0  0.12459640055272114  0.10535127328892768  0.6585945440404715  1.0000
  C   C542      1.0  0.07893632134131368  0.07963541756405501  0.6389672744209456  1.0000
  C   C543      1.0  0.10264605222051904  0.11701139176293873  0.6112306702926862  1.0000
  C   C544      1.0  0.07105109505962481  0.1256326528858127  0.6535634334451078  1.0000
  H   H725      1.0  0.13667516313275896  0.12565477398767988  0.6607114404059692  1.0000
  H   H726      1.0  0.14295617213185285  0.09170807201143027  0.6491901080758976  1.0000
  H   H727      1.0  0.11923366523255607  0.09738473931439073  0.6807538541507552  1.0000
  H   H728      1.0  0.0718508801497304  0.07132591050939685  0.6606119235248836  1.0000
  H   H729      1.0  0.05637112768448205  0.07983024533055194  0.6250650934591175  1.0000
  H   H730      1.0  0.09609740815494461  0.06501863929271501  0.629546419613591  1.0000
  H   H731      1.0  0.08030158536149123  0.11851733525942754  0.5971330099550213  1.0000
  H   H732      1.0  0.12006588239339311  0.103375266917898  0.6006641044505177  1.0000
  H   H733      1.0  0.11407049417261583  0.13766318129336952  0.6115956631525262  1.0000
  H   H734      1.0  0.08230319942137343  0.14625572311294688  0.6555871677462816  1.0000
  H   H735      1.0  0.06347573837247333  0.11835980517039157  0.6754483665828345  1.0000
  H   H736      1.0  0.04841257633581053  0.12805662929448225  0.6399814098031463  1.0000
  N   N41       1.0  0.8412513544018133  0.903304504483905  0.6043737133913817  1.0000
  C   C545      1.0  0.8202283091223801  0.883609488251703  0.588924241514096  1.0000
  C   C546      1.0  0.8225258980311413  0.9282210013256164  0.6089253745580551  1.0000
  C   C547      1.0  0.8708104727904212  0.9099747354229683  0.587091280455764  1.0000
  C   C548      1.0  0.851446597938818  0.8913346819790569  0.632602946567953  1.0000
  H   H737      1.0  0.8337948969091277  0.8647121244669248  0.5848954345790336  1.0000
  H   H738      1.0  0.811840970558604  0.8920317210336494  0.567623230311441  1.0000
  H   H739      1.0  0.7979715969843539  0.8777353608725778  0.601579035495932  1.0000
  H   H740      1.0  0.8375868857890477  0.9434696346874524  0.6206563364388865  1.0000
  H   H741      1.0  0.814480256488092  0.9379494978825583  0.5881366889523889  1.0000
  H   H742      1.0  0.800262001714152  0.9239488590179862  0.6222223742199394  1.0000
  H   H743      1.0  0.8874871956146279  0.9244148887379599  0.5983475800081155  1.0000
  H   H744      1.0  0.8641796648188819  0.9194696621802583  0.5657827631912576  1.0000
  H   H745      1.0  0.8852781233221387  0.8915387571562077  0.5830486701576596  1.0000
  H   H746      1.0  0.8676787443404433  0.9055043791467505  0.644744631651621  1.0000
  H   H747      1.0  0.8652756169357383  0.8723472185308165  0.6301550699751393  1.0000
  H   H748      1.0  0.8298033504045779  0.8864323398915342  0.646411498173106  1.0000
  N   N42       1.0  0.8976433335479498  0.8635864171425903  0.16359644079340455  1.0000
  C   C549      1.0  0.8734896022696693  0.8832857350062179  0.1733950638899028  1.0000
  C   C550      1.0  0.9215476930758406  0.8774133705571451  0.14415238612182435  1.0000
  C   C551      1.0  0.880203664889939  0.8418467278540357  0.14799338756581062  1.0000
  C   C552      1.0  0.9153754112057122  0.8517824521573034  0.18885847321865495  1.0000
  H   H749      1.0  0.8544603842026969  0.8733264041789782  0.18734645908546627  1.0000
  H   H750      1.0  0.8606727486847625  0.8935360490940708  0.1548591847411796  1.0000
  H   H751      1.0  0.8856729869396818  0.8994472922266469  0.18613424243234064  1.0000
  H   H752      1.0  0.939861481282206  0.863093097188732  0.1359830981600241  1.0000
  H   H753      1.0  0.9090650086889909  0.8871402122610642  0.1251649222352583  1.0000
  H   H754      1.0  0.9355515879796251  0.8936141754861409  0.1553678778524726  1.0000
  H   H755      1.0  0.8976531739362253  0.8264465235393926  0.14056032303544427  1.0000
  H   H756      1.0  0.8666524505970866  0.8500335695004952  0.128733825636519  1.0000
  H   H757      1.0  0.8618923839209492  0.8309641022986537  0.16200008014855938  1.0000
  H   H758      1.0  0.9347369895854772  0.8376872230112803  0.18219057825340199  1.0000
  H   H759      1.0  0.8983266424030749  0.8403651600411387  0.2036068601567145  1.0000
  H   H760      1.0  0.9279850661706914  0.8676920743114035  0.20161784768922456  1.0000
  N   N43       1.0  0.675078315372485  0.6617427410706399  0.025960041402835365  1.0000
  C   C553      1.0  0.6700936048567903  0.6906222032202411  0.01808974772102978  1.0000
  C   C554      1.0  0.7008665811344351  0.6507797817080866  0.007576043867915105  1.0000
  C   C555      1.0  0.6438323941385419  0.6464422773952837  0.021768980148124895  1.0000
  C   C556      1.0  0.6855556079958811  0.6590797042830648  0.056509160516491796  1.0000
  H   H761      1.0  0.693046228667701  0.7027803203661954  0.02124357165937063  1.0000
  H   H762      1.0  0.6507534357694307  0.699614898903379  0.03144566063156118  1.0000
  H   H763      1.0  0.6624630398566407  0.6934605464335997  0.9950954885258947  1.0000
  H   H764      1.0  0.7051310517542086  0.6289478172161287  0.012832940329021714  1.0000
  H   H765      1.0  0.694009825204788  0.6526582824311973  0.9843105910021556  1.0000
  H   H766      1.0  0.7248128060865945  0.6617985377477973  0.010574202996464832  1.0000
  H   H767      1.0  0.6350642571961599  0.6480002757190978  0.9989801833867247  1.0000
  H   H768      1.0  0.6240186574238223  0.6542269756504651  0.03559686070232759  1.0000
  H   H769      1.0  0.6466834168899828  0.6245340348561979  0.027554911075794886  1.0000
  H   H770      1.0  0.690133811787978  0.6375289819641335  0.06275761680004432  1.0000
  H   H771      1.0  0.6662241168159146  0.6664309807216461  0.07103283536312843  1.0000
  H   H772      1.0  0.7086858149280931  0.6708991051651947  0.06071704076498108  1.0000
  N   N44       1.0  0.2867990252849839  0.926981308922428  0.5970675438845657  1.0000
  C   C557      1.0  0.2574191708020882  0.9137938152929805  0.6101935053064195  1.0000
  C   C558      1.0  0.2817016930813069  0.9298495162822891  0.5655266123683867  1.0000
  C   C559      1.0  0.3160252527258318  0.9102205792812995  0.6033696930867328  1.0000
  C   C560      1.0  0.2919981643446448  0.9540579533843041  0.6092563084184479  1.0000
  H   H773      1.0  0.25242716507454577  0.8934816387110113  0.601155233812059  1.0000
  H   H774      1.0  0.23492930920930014  0.9261432591684452  0.6063994446055122  1.0000
  H   H775      1.0  0.2606220560656449  0.9109687797779796  0.6339365966746974  1.0000
  H   H776      1.0  0.30318659173928875  0.9399981176088034  0.554869437271358  1.0000
  H   H777      1.0  0.2779913644291388  0.9097561851093657  0.5555639123387655  1.0000
  H   H778      1.0  0.2595558470737615  0.9421328366400119  0.5601057688100382  1.0000
  H   H779      1.0  0.33877673251080725  0.9196234835759891  0.5940572487581868  1.0000
  H   H780      1.0  0.31304083150248796  0.8896415497787431  0.5944457087101404  1.0000
  H   H781      1.0  0.32044176417216264  0.9075127396693498  0.6270452906498962  1.0000
  H   H782      1.0  0.31318287911757325  0.965095568687902  0.5991138757833758  1.0000
  H   H783      1.0  0.2972662107225875  0.9525134678642193  0.6328215450659417  1.0000
  H   H784      1.0  0.26983556062509245  0.9668847907211294  0.6060902379765075  1.0000
  N   N45       1.0  0.22584795824436302  0.3673234148193189  0.8059672380046515  1.0000
  C   C561      1.0  0.2467262749753102  0.36159892447630815  0.8317061872510793  1.0000
  C   C562      1.0  0.23199465591499904  0.39547418851943716  0.7953822224486198  1.0000
  C   C563      1.0  0.19077008498190248  0.36382175587586396  0.8136301725648505  1.0000
  C   C564      1.0  0.23400579527119536  0.34837549281860514  0.7831204878478756  1.0000
  H   H785      1.0  0.2733813578183547  0.363418629145204  0.8264186944899244  1.0000
  H   H786      1.0  0.24219714196041542  0.340729993080354  0.8407163899888531  1.0000
  H   H787      1.0  0.2419348208809029  0.3759194247120824  0.849213674786889  1.0000
  H   H788      1.0  0.2162622545685446  0.40073815263324897  0.7762586292323956  1.0000
  H   H789      1.0  0.2272684754072697  0.41042583147957046  0.8122629652500265  1.0000
  H   H790      1.0  0.2580142866562187  0.3985160902747139  0.7886179958269998  1.0000
  H   H791      1.0  0.1743643113004458  0.36824991415287534  0.7947420095490093  1.0000
  H   H792      1.0  0.1840164291669483  0.3775250857612838  0.8311362406156108  1.0000
  H   H793      1.0  0.18513160475349955  0.34266816270350337  0.8212408147721546  1.0000
  H   H794      1.0  0.2604561940205481  0.3503399249697442  0.7770675856111254  1.0000
  H   H795      1.0  0.21916295035630862  0.35235822580786114  0.7631666803524484  1.0000
  H   H796      1.0  0.22929821841722375  0.32693052824386715  0.7901360331954671  1.0000
  N   N46       1.0  0.9075482803743828  0.6975419093205473  0.241556278478696  1.0000
  C   C565      1.0  0.9164184890670559  0.6801318722094292  0.21754761001528597  1.0000
  C   C566      1.0  0.9339445398446904  0.7180500283300022  0.24607589670797514  1.0000
  C   C567      1.0  0.9032397911217126  0.6806902305873896  0.2681406424970444  1.0000
  C   C568      1.0  0.8763780144403238  0.7113190386250509  0.23438806094936715  1.0000
  H   H797      1.0  0.9399197816939834  0.6694646932726497  0.22208871353835868  1.0000
  H   H798      1.0  0.9193199093103759  0.6921633083104844  0.1970238402167844  1.0000
  H   H799      1.0  0.8969928667235447  0.6643889894939373  0.21365054214571072  1.0000
  H   H800      1.0  0.937769273219925  0.7310038175525853  0.226323169399473  1.0000
  H   H801      1.0  0.9278614878441152  0.7318180935457629  0.26381303837053866  1.0000
  H   H802      1.0  0.957867544748443  0.7084807180708942  0.2517628791460457  1.0000
  H   H803      1.0  0.8834197755474249  0.6650143701665984  0.2652633763763679  1.0000
  H   H804      1.0  0.8962454390719696  0.6932275096005618  0.28659638233121937  1.0000
  H   H805      1.0  0.9262859194794877  0.6699679130708827  0.27428992637780575  1.0000
  H   H806      1.0  0.8780477877410928  0.7228621489518259  0.2134925671628026  1.0000
  H   H807      1.0  0.869709221280316  0.7257500624132095  0.25126177872501626  1.0000
  H   H808      1.0  0.8555452714025576  0.6965417126474645  0.2324291846670079  1.0000
  N   N47       1.0  0.5918265241906859  0.7592897829297436  0.6495756319642979  1.0000
  C   C569      1.0  0.6269923465890589  0.7525535696834322  0.646881898448644  1.0000
  C   C570      1.0  0.573747200190437  0.7359898862333382  0.6628950017025167  1.0000
  C   C571      1.0  0.5776534576054695  0.7655494887975202  0.6206862018179881  1.0000
  C   C572      1.0  0.5887428449094589  0.7830966351868076  0.667854114979207  1.0000
  H   H809      1.0  0.6413615968978126  0.7696304209431623  0.6367479083174239  1.0000
  H   H810      1.0  0.6301341277593608  0.734579566707122  0.6333237071955063  1.0000
  H   H811      1.0  0.6386008083299408  0.7478718761521677  0.6683024490204051  1.0000
  H   H812      1.0  0.5470792455923482  0.7404416610287654  0.6652026174758736  1.0000
  H   H813      1.0  0.5754117403983426  0.7176857587420991  0.649606009351172  1.0000
  H   H814      1.0  0.583809781715876  0.7306773371964084  0.6847187057583711  1.0000
  H   H815      1.0  0.5512744495548191  0.7711228767101016  0.6220480255297246  1.0000
  H   H816      1.0  0.5789099185158975  0.7478906066879897  0.6064182371254452  1.0000
  H   H817      1.0  0.5909863233095378  0.7827354752737439  0.6097178951180499  1.0000
  H   H818      1.0  0.6014295102161521  0.8012615910178864  0.6581493683103754  1.0000
  H   H819      1.0  0.5998821770698319  0.7794038160278449  0.6896506602382839  1.0000
  H   H820      1.0  0.5624316521261475  0.7882811631430027  0.6708272563816766  1.0000
  N   N48       1.0  0.5999300834508083  0.7960411687237658  0.1277816323399361  1.0000
  C   C573      1.0  0.636202999736663  0.7945348290284876  0.1259770507310907  1.0000
  C   C574      1.0  0.5899996906073175  0.824675653502481  0.12853830515716286  1.0000
  C   C575      1.0  0.5885266640556077  0.7815372329046456  0.15423436021022519  1.0000
  C   C576      1.0  0.5847167154701723  0.7833579064293782  0.10232842301417054  1.0000
  H   H821      1.0  0.6443675101478  0.7731771606137599  0.12495933453723043  1.0000
  H   H822      1.0  0.6486446752996132  0.8036639001940411  0.14494603178777127  1.0000
  H   H823      1.0  0.6455132375181736  0.8054620005722678  0.10627367324073188  1.0000
  H   H824      1.0  0.6011233035546485  0.8349884462396665  0.147384169750882  1.0000
  H   H825      1.0  0.5978912225597453  0.8362372467143387  0.10879826091695843  1.0000
  H   H826      1.0  0.5626952776717989  0.8263742953926834  0.129755274891947  1.0000
  H   H827      1.0  0.599613739207918  0.7904791258560897  0.17391295437756038  1.0000
  H   H828      1.0  0.5952873379951068  0.7598350875764275  0.15431384210725888  1.0000
  H   H829      1.0  0.561201586598082  0.7823004471988685  0.15610662166753234  1.0000
  H   H830      1.0  0.5931613204306088  0.7934095286153284  0.0818908047992639  1.0000
  H   H831      1.0  0.557430940901284  0.7848801898817683  0.10265786622004545  1.0000
  H   H832      1.0  0.5910731131702848  0.7615749369219135  0.10129920155261261  1.0000
  N   N49       1.0  0.6078989510215409  0.8848366310509767  0.9167482629899497  1.0000
  C   C577      1.0  0.6230439456132307  0.8582705055493414  0.9124808255633478  1.0000
  C   C578      1.0  0.5752128454719256  0.880722197302344  0.9300451913373343  1.0000
  C   C579      1.0  0.6041960055158501  0.8993382647131892  0.8885586952742157  1.0000
  C   C580      1.0  0.6292686224962105  0.9010252815553935  0.9359781267970275  1.0000
  H   H833      1.0  0.6475815994007199  0.8607285161008444  0.902296477425149  1.0000
  H   H834      1.0  0.6076319848090221  0.8453899877631771  0.8981705342470561  1.0000
  H   H835      1.0  0.6267774467153364  0.8469133950862007  0.9333410890365909  1.0000
  H   H836      1.0  0.5583268387685  0.8686258588379576  0.9162207558616954  1.0000
  H   H837      1.0  0.577200432091723  0.8699247605941614  0.9514137714427268  1.0000
  H   H838      1.0  0.5631450997493785  0.9004018500338232  0.9337546394916115  1.0000
  H   H839      1.0  0.5929383584405183  0.9195409759328927  0.890943481452643  1.0000
  H   H840      1.0  0.5882431204615481  0.8877642565527591  0.8733827097956371  1.0000
  H   H841      1.0  0.6284920183070201  0.9026837199046531  0.8779635488772204  1.0000
  H   H842      1.0  0.6536389621842981  0.9055838881331928  0.9261243532184152  1.0000
  H   H843      1.0  0.634092593826643  0.890053758802773  0.9568875387988491  1.0000
  H   H844      1.0  0.6178969872973121  0.9207039243454749  0.940825338464412  1.0000
  N   N50       1.0  0.5695162822785002  0.6142636575561536  0.5553816464816694  1.0000
  C   C581      1.0  0.604381260069195  0.6233525839743239  0.5541891063340607  1.0000
  C   C582      1.0  0.5650686560825163  0.5895842123170877  0.5383983751620527  1.0000
  C   C583      1.0  0.5481057233230877  0.6358287902036925  0.5432960450212522  1.0000
  C   C584      1.0  0.560495534452111  0.608126167704997  0.5856665625457896  1.0000
  H   H845      1.0  0.6087166259607237  0.641973990579965  0.5666986920957473  1.0000
  H   H846      1.0  0.6120329340188649  0.6281291137311591  0.5316396709459984  1.0000
  H   H847      1.0  0.6210658830345845  0.6074727954452158  0.5632780733803113  1.0000
  H   H848      1.0  0.5712554097543306  0.5934289975839945  0.5153433201306785  1.0000
  H   H849      1.0  0.5809325734801276  0.5728978081278203  0.5468406559486979  1.0000
  H   H850      1.0  0.5391651612076608  0.5819591924390476  0.5391086506212525  1.0000
  H   H851      1.0  0.5216485716258338  0.6294689665064894  0.5437475765900533  1.0000
  H   H852      1.0  0.5543195349871316  0.6411720115561584  0.520522679842476  1.0000
  H   H853      1.0  0.5505855011254888  0.6547389101547445  0.555655300738853  1.0000
  H   H854      1.0  0.5639033374307836  0.6261926785518138  0.5992214320731715  1.0000
  H   H855      1.0  0.575841450590061  0.5915917877780548  0.5953005868062005  1.0000
  H   H856      1.0  0.5342051713511395  0.6014927413127948  0.5873243418264534  1.0000
  N   N51       1.0  0.9217479604410734  0.89431338429512  0.4173527137753541  1.0000
  C   C585      1.0  0.9176124740825613  0.881243133381002  0.389243282020109  1.0000
  C   C586      1.0  0.9101574615900871  0.922516087972266  0.4149665621591473  1.0000
  C   C587      1.0  0.9569392845292629  0.894384449338094  0.4259349111263825  1.0000
  C   C588      1.0  0.9023285488972417  0.8790948831413566  0.439379655847218  1.0000
  H   H857      1.0  0.9257011598857013  0.859823486204369  0.3905388670251102  1.0000
  H   H858      1.0  0.9324604284274783  0.8918272929399568  0.37218150810514833  1.0000
  H   H859      1.0  0.891387169131798  0.8810421146079078  0.38194437363429823  1.0000
  H   H860      1.0  0.9129579024545166  0.9328685232987507  0.4359250961446212  1.0000
  H   H861      1.0  0.9243874099179942  0.9346411242750343  0.3986373118350512  1.0000
  H   H862      1.0  0.883634563121778  0.9232589303460779  0.40866751797625417  1.0000
  H   H863      1.0  0.9609672492173986  0.9047013002009746  0.4467508349339811  1.0000
  H   H864      1.0  0.9725526046625521  0.9049774794742631  0.4094452363169528  1.0000
  H   H865      1.0  0.9661913205602147  0.8733956124281674  0.4287656397842132  1.0000
  H   H866      1.0  0.8756361958871912  0.8784774822526686  0.4336734953910401  1.0000
  H   H867      1.0  0.9049045554984994  0.888424804009669  0.4608492512990906  1.0000
  H   H868      1.0  0.9105529702175836  0.8577571494686991  0.44191632661424607  1.0000
  N   N52       1.0  0.3305541759470501  0.20016495601911333  0.15322764034861253  1.0000
  C   C589      1.0  0.33758520184150737  0.17191769183475586  0.14594262892961943  1.0000
  C   C590      1.0  0.30011066612087917  0.20070137095068974  0.17035616472102777  1.0000
  C   C591      1.0  0.3261719793233462  0.2167282890339089  0.12641712919231052  1.0000
  C   C592      1.0  0.35836167976321004  0.2113660642736312  0.17024104707773813  1.0000
  H   H869      1.0  0.3172776428007767  0.16295606430587867  0.13282876628533788  1.0000
  H   H870      1.0  0.3404982924172158  0.15874423719510933  0.16567116220084563  1.0000
  H   H871      1.0  0.36051339648841674  0.17070181240003732  0.1331859136616127  1.0000
  H   H872      1.0  0.29383564722809025  0.22174861394790457  0.17589984228264732  1.0000
  H   H873      1.0  0.27865967125917285  0.19216882625504622  0.15832450484193428  1.0000
  H   H874      1.0  0.30262776867771785  0.18871659618347142  0.19093745490534803  1.0000
  H   H875      1.0  0.3205192213763497  0.23815230530095235  0.13115819003584936  1.0000
  H   H876      1.0  0.3055730912738206  0.2087106998676262  0.1128795831534837  1.0000
  H   H877      1.0  0.3487242938848807  0.21698368841189963  0.11303159796491112  1.0000
  H   H878      1.0  0.35404097716402605  0.23276252606937226  0.175664639515549  1.0000
  H   H879      1.0  0.3818805248822099  0.21108353662782664  0.15821018015343433  1.0000
  H   H880      1.0  0.3619818108166698  0.1998779108438645  0.19101076743470904  1.0000
  N   N53       1.0  0.5740785460424737  0.48654494264247644  0.11714222219497819  1.0000
  C   C593      1.0  0.5675249780869553  0.48809447386140997  0.14832548656021027  1.0000
  C   C594      1.0  0.5458079744333744  0.49745583013348016  0.10052303698402865  1.0000
  C   C595      1.0  0.5789621681435774  0.45798504783545224  0.10976115725119562  1.0000
  C   C596      1.0  0.603994749265438  0.5026566019699646  0.1099356614251894  1.0000
  H   H881      1.0  0.5631198315610212  0.5093171762936411  0.154540339799754  1.0000
  H   H882      1.0  0.5885868129538023  0.4803084555018406  0.1615693842392919  1.0000
  H   H883      1.0  0.5451626126978887  0.4759478199772539  0.15447793057808776  1.0000
  H   H884      1.0  0.541909834685826  0.5191414024322379  0.10507515325646709  1.0000
  H   H885      1.0  0.5493789968213623  0.49583833248119025  0.07686821219345852  1.0000
  H   H886      1.0  0.5227046046586422  0.48637610915358775  0.10625679394932264  1.0000
  H   H887      1.0  0.5849810983410252  0.45616050424216376  0.08653850205755531  1.0000
  H   H888      1.0  0.5565577786304478  0.44534539700038545  0.11420241572727444  1.0000
  H   H889      1.0  0.599725055265923  0.4489795646269515  0.1224259232566287  1.0000
  H   H890      1.0  0.6100907401857586  0.501429035592557  0.08664728728703629  1.0000
  H   H891      1.0  0.6256023938378983  0.4951281603510143  0.12252966223304684  1.0000
  H   H892      1.0  0.6010643794143125  0.5244507560691815  0.11462067010501115  1.0000
  N   N54       1.0  0.8835317006939285  0.7184177094613056  0.6071843325938205  1.0000
  C   C597      1.0  0.9009521297565203  0.73651247576375  0.5862523550657917  1.0000
  C   C598      1.0  0.9022497324440268  0.6932352798570189  0.6120220609360137  1.0000
  C   C599      1.0  0.8503743335974546  0.7116204463215805  0.5957291994518928  1.0000
  C   C600      1.0  0.8803956799722711  0.7323096274405584  0.6347842385345573  1.0000
  H   H893      1.0  0.8874426477317188  0.7557328645592428  0.5823938788549471  1.0000
  H   H894      1.0  0.9034104676388094  0.726880497772238  0.5650149573596581  1.0000
  H   H895      1.0  0.9261203298476294  0.742084027449851  0.5941173952552454  1.0000
  H   H896      1.0  0.9048970517197514  0.6821252107044913  0.5916792744171789  1.0000
  H   H897      1.0  0.927388128114991  0.6975262801978023  0.6207776964065385  1.0000
  H   H898      1.0  0.8896078175829352  0.6791949137186422  0.6277559446152561  1.0000
  H   H899      1.0  0.8364561764544085  0.6982599961371668  0.6111364759776398  1.0000
  H   H900      1.0  0.8516011213803218  0.701022895357539  0.574955137271328  1.0000
  H   H901      1.0  0.8355583494401081  0.7300965697449099  0.5917825891808187  1.0000
  H   H902      1.0  0.8676088818411949  0.7190883113273637  0.6511865228142538  1.0000
  H   H903      1.0  0.865971915672775  0.7512231844782457  0.6319544325672143  1.0000
  H   H904      1.0  0.9049183198275579  0.7380365794379654  0.6439349717691534  1.0000
  N   N55       1.0  0.8069804693962139  0.14368525980360752  0.736406829742148  1.0000
  C   C601      1.0  0.8009821250885266  0.1418146431908518  0.7050195809786839  1.0000
  C   C602      1.0  0.8347535145365058  0.16273891139571742  0.7416606803706833  1.0000
  C   C603      1.0  0.8150621615367033  0.1166197624084165  0.7487560539422085  1.0000
  C   C604      1.0  0.7770753188658609  0.15366157627899021  0.7502005584957196  1.0000
  H   H905      1.0  0.7798431460551323  0.12795287692157845  0.700203492512928  1.0000
  H   H906      1.0  0.8227596250181164  0.13381178137675168  0.6940264860429347  1.0000
  H   H907      1.0  0.7957064256516169  0.16199823268213875  0.694804950270596  1.0000
  H   H908      1.0  0.8291815652248307  0.18354370627754737  0.7333296398715473  1.0000
  H   H909      1.0  0.8405986099090121  0.16431562814797246  0.7650645361330137  1.0000
  H   H910      1.0  0.8576051136427866  0.15641239227959705  0.7309271230958484  1.0000
  H   H911      1.0  0.8379700306887313  0.10878010223286148  0.739364800000521  1.0000
  H   H912      1.0  0.7951370814095665  0.10144299358507267  0.744440085699316  1.0000
  H   H913      1.0  0.8191290522386341  0.11711766261635231  0.772494699896685  1.0000
  H   H914      1.0  0.7556435114349825  0.13967180626957063  0.7468737704033669  1.0000
  H   H915      1.0  0.7702289999610593  0.1739893118108174  0.7411751206035025  1.0000
  H   H916      1.0  0.7808815850698932  0.15563888171873397  0.7738612660342601  1.0000
  N   N56       1.0  0.48067116505876156  0.614565955713978  0.02095726752625482  1.0000
  C   C605      1.0  0.48610693678729566  0.611690188786723  0.05244089549237296  1.0000
  C   C606      1.0  0.4457173343528271  0.6208013010900916  0.014956303371495006  1.0000
  C   C607      1.0  0.48906126279051176  0.5889577245264559  0.007298877548115534  1.0000
  C   C608      1.0  0.5017765213998356  0.6368397450947426  0.009204788420638765  1.0000
  H   H917      1.0  0.4710235474202058  0.5946988772803582  0.06190711972542373  1.0000
  H   H918      1.0  0.47907658792089636  0.6303060117818883  0.06355347065986794  1.0000
  H   H919      1.0  0.5123834428171224  0.6077893621068831  0.05790764279095151  1.0000
  H   H920      1.0  0.4406096464248173  0.6229921517288588  0.9914064566178113  1.0000
  H   H921      1.0  0.42902005853877745  0.6045367975638759  0.023773645422110024  1.0000
  H   H922      1.0  0.4387162243532535  0.6401422427120568  0.024868395737476456  1.0000
  H   H923      1.0  0.48474231830509207  0.5900553325291974  0.9835800723619216  1.0000
  H   H924      1.0  0.47405517393164187  0.5716106816128397  0.016142419892331672  1.0000
  H   H925      1.0  0.5154096887230285  0.5838598949879998  0.011079067382953056  1.0000
  H   H926      1.0  0.49840905308792155  0.6394906820540679  0.9854551717581617  1.0000
  H   H927      1.0  0.5283248973090171  0.6330854625520925  0.01372822550547892  1.0000
  H   H928      1.0  0.49568264156385633  0.656509527483004  0.018810858068063707  1.0000
  N   N57       1.0  0.1802346067612818  0.8640247099709361  0.28676149593174877  1.0000
  C   C609      1.0  0.18948066740048888  0.835280784881037  0.28557041940414424  1.0000
  C   C610      1.0  0.16538875867674094  0.8688967933304826  0.31502987435729096  1.0000
  C   C611      1.0  0.15620970622395733  0.8702732201652075  0.2633921366150767  1.0000
  C   C612      1.0  0.20987582962352797  0.8815514138940226  0.28297793556265854  1.0000
  H   H929      1.0  0.20060528061366364  0.8308569420364769  0.26452341600456547  1.0000
  H   H930      1.0  0.16768384912058448  0.8214922847345179  0.2882982029263449  1.0000
  H   H931      1.0  0.20780118856874857  0.8297166017988074  0.30264350351191166  1.0000
  H   H932      1.0  0.1429935098017019  0.8559396173547397  0.3185503090458494  1.0000
  H   H933      1.0  0.18309158855983326  0.864355304458504  0.3330455607626789  1.0000
  H   H934      1.0  0.15798057602818877  0.8903741127006765  0.316751533775506  1.0000
  H   H935      1.0  0.13379429627977368  0.8570551805402302  0.265156350682947  1.0000
  H   H936      1.0  0.1669852424535862  0.8669303187772768  0.24182275128808078  1.0000
  H   H937      1.0  0.14816803440531284  0.8916819714913947  0.2638067744193762  1.0000
  H   H938      1.0  0.22097681161695773  0.8791667846953053  0.2613921211045791  1.0000
  H   H939      1.0  0.22919240856470913  0.8766250485397094  0.2994598596225488  1.0000
  H   H940      1.0  0.20399236976082752  0.9033545327711995  0.28479371425990807  1.0000
  N   N58       1.0  0.04928579153270785  0.28990648602257224  0.055698163825689484  1.0000
  C   C613      1.0  0.05284901560709733  0.28992348394689516  0.024041395973009028  1.0000
  C   C614      1.0  0.014437703955786585  0.2943362964004238  0.06283990660112093  1.0000
  C   C615      1.0  0.06998697345995653  0.31185210294877724  0.06771580175180447  1.0000
  C   C616      1.0  0.05985144676775845  0.2635209949039152  0.0681743314637897  1.0000
  H   H941      1.0  0.0379516052771276  0.27322080082489036  0.014484943568391806  1.0000
  H   H942      1.0  0.07897286826442308  0.2870350917627198  0.017947771351872976  1.0000
  H   H943      1.0  0.04467302438020804  0.30941622658025697  0.013885854592039726  1.0000
  H   H944      1.0  0.0056029917136251025  0.3139979724347271  0.05351885101496889  1.0000
  H   H945      1.0  0.998135987742032  0.27804076983570175  0.0543104949989881  1.0000
  H   H946      1.0  0.010910778411406637  0.2945309120829126  0.08660451488384391  1.0000
  H   H947      1.0  0.0627485886243313  0.33202386469133754  0.05854655300798162  1.0000
  H   H948      1.0  0.0965111338277276  0.3090411450846794  0.06292102502274566  1.0000
  H   H949      1.0  0.06766980219894814  0.3123738333555533  0.09158731561113043  1.0000
  H   H950      1.0  0.04499981250719376  0.24648191565659858  0.0592142479445148  1.0000
  H   H951      1.0  0.05688972158925143  0.2625627733767006  0.09198576573540507  1.0000
  H   H952      1.0  0.0862812224337608  0.259822506627577  0.06366820281985408  1.0000
  N   N59       1.0  0.36320659548649203  0.5787472788165676  0.6283625692958981  1.0000
  C   C617      1.0  0.38146400899010957  0.6000691147665856  0.6439436678797232  1.0000
  C   C618      1.0  0.3533544608055095  0.5567546422874735  0.648956058065432  1.0000
  C   C619      1.0  0.3845105524681158  0.5677795462381393  0.6060334506010182  1.0000
  C   C620      1.0  0.33349803761003066  0.5904275173545067  0.6144672119626519  1.0000
  H   H953      1.0  0.36639347934929567  0.6085507917310252  0.6612735643749531  1.0000
  H   H954      1.0  0.3887207363646849  0.617248241877233  0.6291420140695789  1.0000
  H   H955      1.0  0.40446171376905377  0.5921044934982279  0.654140995880326  1.0000
  H   H956      1.0  0.3371933998855985  0.5641903936141205  0.6661095530529354  1.0000
  H   H957      1.0  0.3395083114361083  0.5402581599909934  0.6379580993187857  1.0000
  H   H958      1.0  0.3751948179020591  0.5474267860276889  0.6598327298212722  1.0000
  H   H959      1.0  0.40727855457504847  0.5588579726753921  0.6156978385486486  1.0000
  H   H960      1.0  0.3923314906594395  0.5838486053943759  0.5900692784348308  1.0000
  H   H961      1.0  0.37159029728854204  0.5515950133281567  0.5938450541846388  1.0000
  H   H962      1.0  0.3191354200027951  0.5748208219009914  0.6025472056682152  1.0000
  H   H963      1.0  0.34016013169547565  0.6070721853375481  0.5987479653973414  1.0000
  H   H964      1.0  0.3168745044639033  0.5989700346435224  0.6306589764422933  1.0000
  N   N60       1.0  0.7786701595547912  0.41646166623258285  0.13945690512895026  1.0000
  C   C621      1.0  0.806868299580635  0.39981357145149354  0.13141684870587828  1.0000
  C   C622      1.0  0.7908201876506991  0.4425459480200861  0.1507268310377909  1.0000
  C   C623      1.0  0.7594044768596042  0.40175259091413684  0.16195126975136448  1.0000
  C   C624      1.0  0.7574908178656394  0.42171735388031667  0.11379661928992009  1.0000
  H   H965      1.0  0.7984166616747284  0.37977699016347016  0.12349289726819038  1.0000
  H   H966      1.0  0.8235612263183555  0.3957269859528856  0.15021877907113346  1.0000
  H   H967      1.0  0.8217527661543012  0.4099619695657602  0.1140996632007489  1.0000
  H   H968      1.0  0.8070691678032716  0.43944213353239714  0.16999694236550025  1.0000
  H   H969      1.0  0.805082482631134  0.45441205577034316  0.13419867825972234  1.0000
  H   H970      1.0  0.7700396971409874  0.4554190328898475  0.15729745600172274  1.0000
  H   H971      1.0  0.73841640411092  0.41395571155042915  0.16903903810398488  1.0000
  H   H972      1.0  0.7747745637205455  0.39692018625934217  0.181417768662409  1.0000
  H   H973      1.0  0.7491473797787773  0.38225128619336257  0.15404579335726376  1.0000
  H   H974      1.0  0.7712981270359826  0.4326892169617227  0.09628880117671178  1.0000
  H   H975      1.0  0.7361304785341084  0.4344256501537894  0.11907786144988784  1.0000
  H   H976      1.0  0.7473572912655638  0.40258924639620214  0.10489838278873376  1.0000
  N   N61       1.0  0.8350482107093801  0.3129843339147008  0.06245023060546461  1.0000
  C   C625      1.0  0.8066985096495348  0.29965607617725887  0.07706454387045314  1.0000
  C   C626      1.0  0.8242809084468272  0.3239517881269333  0.03394636945308993  1.0000
  C   C627      1.0  0.8612090539053315  0.29294253689746425  0.05868794779323627  1.0000
  C   C628      1.0  0.8478957640961476  0.3353596823471049  0.08010500793936659  1.0000
  H   H977      1.0  0.7963856050808562  0.2826844882096942  0.06429018785467289  1.0000
  H   H978      1.0  0.7865435614068058  0.31415162213369574  0.08054136439827864  1.0000
  H   H979      1.0  0.8139960956001153  0.29101624899269657  0.09853849083501487  1.0000
  H   H980      1.0  0.8039918011759986  0.3386267971436039  0.035841876485252167  1.0000
  H   H981      1.0  0.8448180923585867  0.33478633972594696  0.022647946897492274  1.0000
  H   H982      1.0  0.8155833834058654  0.3075416630803775  0.019576486464807363  1.0000
  H   H983      1.0  0.8828673073733782  0.30209940412964126  0.047320798129512065  1.0000
  H   H984      1.0  0.8522472143253484  0.2757082270101288  0.04561741345165715  1.0000
  H   H985      1.0  0.8700539943923357  0.2843087142513734  0.07978373705922004  1.0000
  H   H986      1.0  0.8694785676981874  0.34575870787122537  0.06987388450939358  1.0000
  H   H987      1.0  0.856038587662716  0.32789990625863347  0.10182118527615923  1.0000
  H   H988      1.0  0.828991000118751  0.3510545779658086  0.0830329062135946  1.0000
  N   N62       1.0  0.52707890071137  0.8725648954596184  0.6955624085658254  1.0000
  C   C629      1.0  0.5495877110539806  0.8946266552460919  0.6855056133336069  1.0000
  C   C630      1.0  0.49263481702457834  0.8816240937196584  0.6929186329999545  1.0000
  C   C631      1.0  0.5347311569451372  0.8654829277972278  0.7260715362108616  1.0000
  C   C632      1.0  0.5313627645705495  0.8485236967839033  0.6778159559278331  1.0000
  H   H989      1.0  0.5470176061715232  0.9130393937982519  0.6985777516285927  1.0000
  H   H990      1.0  0.5445134802181294  0.9006008814765648  0.6625918858815987  1.0000
  H   H991      1.0  0.5758435677885625  0.8884100451252327  0.6872128417612143  1.0000
  H   H992      1.0  0.4885001377179054  0.8998003549954726  0.7059392964272481  1.0000
  H   H993      1.0  0.48588745660726496  0.8870819357944066  0.6701740316261336  1.0000
  H   H994      1.0  0.47504157105733075  0.8654653590284943  0.7004098226685476  1.0000
  H   H995      1.0  0.5180567027540705  0.8490866337508557  0.7345323561969036  1.0000
  H   H996      1.0  0.5321047470736109  0.8832681875738658  0.7400035403397361  1.0000
  H   H997      1.0  0.5605112540348524  0.8583702859651738  0.7287713800403052  1.0000
  H   H998      1.0  0.5572887383614183  0.8415723908460584  0.6787204151691824  1.0000
  H   H999      1.0  0.5248676857124821  0.8528670942057889  0.6547760392044942  1.0000
  H   H1000     1.0  0.515376405372049  0.831247065675752  0.6853441296938714  1.0000
  N   N63       1.0  0.4676042396287231  0.2930439364263311  0.36172335810605216  1.0000
  C   C633      1.0  0.45865292129953655  0.2685742400496578  0.34556383653805467  1.0000
  C   C634      1.0  0.49969715423302724  0.28909409722719515  0.3765222634413173  1.0000
  C   C635      1.0  0.4419675766998923  0.2978852731675765  0.3832546501867368  1.0000
  C   C636      1.0  0.4700657305130138  0.3165950440695433  0.3414340632129164  1.0000
  H   H1001     1.0  0.43449911434142796  0.270930753995833  0.33415610777972443  1.0000
  H   H1002     1.0  0.45667093714438384  0.2503544670776301  0.3601608350945732  1.0000
  H   H1003     1.0  0.47733527962627154  0.2644422854984194  0.32891095150933186  1.0000
  H   H1004     1.0  0.4985990621249631  0.27170391164568475  0.39234952978816723  1.0000
  H   H1005     1.0  0.5195083305783994  0.2851169317536404  0.3608589596308066  1.0000
  H   H1006     1.0  0.5071990247578496  0.307240602541758  0.3888297424732248  1.0000
  H   H1007     1.0  0.4471942333108436  0.3167228628182519  0.39520546279461805  1.0000
  H   H1008     1.0  0.44027480840970346  0.2809352750666101  0.39955084454174966  1.0000
  H   H1009     1.0  0.4172081433657767  0.29996357606246415  0.3729188200550082  1.0000
  H   H1010     1.0  0.44628812158767156  0.3200186492979644  0.32994375528179204  1.0000
  H   H1011     1.0  0.4890327744607497  0.3135686597372569  0.3247177998147737  1.0000
  H   H1012     1.0  0.47639020686385614  0.3355757306443614  0.3527221304852538  1.0000
  N   N64       1.0  0.7278807377303369  0.597098544680309  0.6621475190826559  1.0000
  C   C637      1.0  0.7154064282731333  0.6064588455704738  0.6898701462155107  1.0000
  C   C638      1.0  0.74978948758152  0.5738123302291469  0.6674334233258162  1.0000
  C   C639      1.0  0.7465729043175122  0.6193685046572921  0.6476161509483275  1.0000
  C   C640      1.0  0.6997629989449483  0.5888858178677177  0.6436259111697499  1.0000
  H   H1013     1.0  0.6988424826610798  0.6240970198770148  0.6864865909695674  1.0000
  H   H1014     1.0  0.7359600302729769  0.612974058971198  0.7043474931446276  1.0000
  H   H1015     1.0  0.7011498271316604  0.5901061456622652  0.7014205007999437  1.0000
  H   H1016     1.0  0.7365021324505823  0.5564456100856975  0.678226774499093  1.0000
  H   H1017     1.0  0.7598662590161723  0.5664261189785145  0.6469289726859322  1.0000
  H   H1018     1.0  0.7712594778893758  0.5793306831956211  0.6813820794790475  1.0000
  H   H1019     1.0  0.7567390872176738  0.6129252965822062  0.6267993819960878  1.0000
  H   H1020     1.0  0.7675525330053085  0.6264824153770324  0.6612784300763324  1.0000
  H   H1021     1.0  0.7307038805507814  0.6370853162812189  0.6428397756474628  1.0000
  H   H1022     1.0  0.68262856780689  0.6059820719444706  0.6394182021019824  1.0000
  H   H1023     1.0  0.6852380821573262  0.5718946120588895  0.6538254709575567  1.0000
  H   H1024     1.0  0.7082327504890691  0.5820549753648094  0.6223680412382379  1.0000
