data_image0
_chemical_formula_structural       H7CH4SC4HFeH2SH2CN2C3SH2CSHCS2CFe2C4HCFeH2SCS2CHCH2C2HFeHCHSHSHCHC2FeNH2CH2SH4CHC2HC2H4SH3CH4FeHC3SHFeH2SCH2SHC2SH2SCHCH4NSFeC2HFeHCHCFeHSNCHSC5HC2SCHCH2C2SH2NH2CHCHCH4CHCFeCHC2HFeSHS2C2H3CH6CHSHCH4CSH2CHCH4C2H2C2HSCH3CSHNSH4C3HC2HCH4C2NH3SH2CS2H2FeH2C4HFeSFeCFeSHFeCHCHCSH3CHC2H2NCH2CHSH3CHCH3C3H6CHNCH2CSH3C3SHFeH4CNHNH6CHCH2CSFeH3S2CSHFeCFeHCH3CSHFeHCHCSC3H4CH4C3H9CHFeSNCHC2H5C5HCSH3CH3C4H2SNHCS2HFeHCH5C2H3CHSH3C2HCFeC3H2SCFeHCH2C3HCH4SNCFeHC2HCSH2CHSCSCHNC2H2CH6FeH2SH2SH2C3H4CHCHFeHCNH3CS3C2NH5C2H3FeCHFeH3C2HCH3CHCHSHCHSH4FeCFeSCFeH2CFe2H2CHS2HFeSH2C2FeS2CSNSHSHCH3SH3CHSHSHCH2C2HCHCHCHCH2SH2CHCHCSHCHFeSCHCSHC2H2NC2HNHCSCH2FeSH4CSCHCH4CH2C2FeHCHCH2SH2C2NC3H3SC2HCSCH2NHFeH2SH2SH2SCFeHCH5C2H3CHCSFeHC2HSH2SCH2CH2NCS2CSFeC4SH2CFeH3CH2SHFe3C2HCHSH4NS2HCHSH3C2S2NH6SHCHFeC2HSNCHCHCSH2CH3CHCSC3H2CH3CH2CFeCHCHCH2S2HCHS2H6C2H2CHFe2CSH2C2SNHCHCHSH2NC2FeHCNHCFeHCSCH3SCHCH2SNCH3SCH2SHSH2FeHC2SC2HFeH3FeCFeH3C2FeHCFeSCHSNC3HSC2FeHCHCH3SHSFeHC3HCHC2H4FeHC2NSHSH7C2HSHS2HCHSFeCH3CHSC2H4FeHC3HCH2CH4FeH2CSC3H3NH2C4SHFeCH3CSH2SC2HS2FeCHFeSHC2FeHCH5CH4C3H3CH2NHCHCH2C2H2C2HSH2SNHSH3CSC
_chemical_formula_sum              "H576 C360 S144 Fe72 N36"
_cell_length_a       22.4331
_cell_length_b       28.6482
_cell_length_c       25.4623
_cell_angle_alpha    88.5739
_cell_angle_beta     98.1527
_cell_angle_gamma    97.7851

_space_group_name_H-M_alt    "P 1"
_space_group_IT_number       1

loop_
  _space_group_symop_operation_xyz
  'x, y, z'

loop_
  _atom_site_type_symbol
  _atom_site_label
  _atom_site_symmetry_multiplicity
  _atom_site_fract_x
  _atom_site_fract_y
  _atom_site_fract_z
  _atom_site_occupancy
  H   H1        1.0  0.52965  0.36109  0.65542  1.0000
  H   H2        1.0  0.72712  0.29137  0.76016  1.0000
  H   H3        1.0  0.75660  0.59085  0.68500  1.0000
  H   H4        1.0  0.77973  0.27839  0.71802  1.0000
  H   H5        1.0  0.80089  0.57427  0.74494  1.0000
  H   H6        1.0  0.55809  0.47907  0.83142  1.0000
  H   H7        1.0  0.70139  0.19787  0.65703  1.0000
  C   C1        1.0  0.60662  0.56938  0.72663  1.0000
  H   H8        1.0  0.76860  0.53297  0.87779  1.0000
  H   H9        1.0  0.70163  0.27989  0.69134  1.0000
  H   H10       1.0  0.52501  0.64869  0.68339  1.0000
  H   H11       1.0  0.78684  0.49427  0.82968  1.0000
  S   S1        1.0  0.67671  0.42738  0.85341  1.0000
  C   C2        1.0  0.48030  0.17380  0.69886  1.0000
  C   C3        1.0  0.58758  0.18705  0.87763  1.0000
  C   C4        1.0  0.58749  0.55336  0.80498  1.0000
  C   C5        1.0  0.65405  0.20707  0.74670  1.0000
  H   H12       1.0  0.58132  0.56748  0.85508  1.0000
  Fe  Fe1       1.0  0.70855  0.35715  0.84951  1.0000
  H   H13       1.0  0.62292  0.21631  0.71119  1.0000
  H   H14       1.0  0.75355  0.64868  0.81112  1.0000
  S   S2        1.0  0.61885  0.64241  0.78713  1.0000
  H   H15       1.0  0.72569  0.58775  0.74610  1.0000
  H   H16       1.0  0.74730  0.22601  0.82273  1.0000
  C   C6        1.0  0.57667  0.51121  0.79384  1.0000
  N   N1        1.0  0.79192  0.64805  0.73833  1.0000
  N   N2        1.0  0.71853  0.21850  0.73892  1.0000
  C   C7        1.0  0.64232  0.19323  0.89414  1.0000
  C   C8        1.0  0.73218  0.26916  0.72645  1.0000
  C   C9        1.0  0.67448  0.16283  0.88719  1.0000
  S   S3        1.0  0.54373  0.37017  0.87200  1.0000
  H   H17       1.0  0.60098  0.51339  0.66499  1.0000
  H   H18       1.0  0.64366  0.22640  0.78093  1.0000
  C   C10       1.0  0.75776  0.20742  0.78804  1.0000
  S   S4        1.0  0.75053  0.48542  0.66118  1.0000
  H   H19       1.0  0.77859  0.19832  0.68749  1.0000
  C   C11       1.0  0.49604  0.20585  0.66875  1.0000
  S   S5        1.0  0.62685  0.32587  0.79480  1.0000
  S   S6        1.0  0.56190  0.43843  0.73239  1.0000
  C   C12       1.0  0.58061  0.49815  0.74903  1.0000
  Fe  Fe2       1.0  0.54203  0.65508  0.82856  1.0000
  Fe  Fe3       1.0  0.59231  0.39479  0.80291  1.0000
  C   C13       1.0  0.76782  0.59805  0.72818  1.0000
  C   C14       1.0  0.73043  0.19034  0.69462  1.0000
  C   C15       1.0  0.47936  0.24465  0.67189  1.0000
  C   C16       1.0  0.59549  0.52729  0.71534  1.0000
  H   H20       1.0  0.62239  0.60190  0.68848  1.0000
  C   C17       1.0  0.60315  0.58238  0.77147  1.0000
  Fe  Fe4       1.0  0.58705  0.30393  0.86919  1.0000
  H   H21       1.0  0.75198  0.16900  0.79701  1.0000
  H   H22       1.0  0.64211  0.16883  0.75497  1.0000
  S   S7        1.0  0.54117  0.23095  0.88442  1.0000
  C   C18       1.0  0.79794  0.65725  0.79587  1.0000
  S   S8        1.0  0.80412  0.35283  0.83525  1.0000
  S   S9        1.0  0.63664  0.43508  0.99925  1.0000
  C   C19       1.0  0.49129  0.60230  0.05320  1.0000
  H   H23       1.0  0.48562  0.28196  0.00984  1.0000
  C   C20       1.0  0.71336  0.50803  0.03027  1.0000
  H   H24       1.0  0.49978  0.40971  0.97556  1.0000
  H   H25       1.0  0.68184  0.58123  0.90351  1.0000
  C   C21       1.0  0.69374  0.55481  0.94892  1.0000
  C   C22       1.0  0.66513  0.51528  0.95301  1.0000
  H   H26       1.0  0.62122  0.49792  0.91225  1.0000
  Fe  Fe5       1.0  0.79798  0.65422  0.06370  1.0000
  H   H27       1.0  0.63704  0.29684  0.10474  1.0000
  C   C23       1.0  0.51967  0.56506  0.13741  1.0000
  H   H28       1.0  0.51287  0.40842  0.04657  1.0000
  S   S10       1.0  0.53314  0.64093  0.91385  1.0000
  H   H29       1.0  0.79938  0.42251  0.07525  1.0000
  S   S11       1.0  0.74480  0.62249  0.12708  1.0000
  H   H30       1.0  0.66802  0.23326  0.92191  1.0000
  C   C24       1.0  0.74278  0.54700  0.02577  1.0000
  H   H31       1.0  0.72443  0.48217  0.07616  1.0000
  C   C25       1.0  0.73231  0.57074  0.98543  1.0000
  C   C26       1.0  0.59215  0.58064  0.07542  1.0000
  Fe  Fe6       1.0  0.63091  0.39837  0.92192  1.0000
  N   N3        1.0  0.52732  0.56710  0.08062  1.0000
  H   H32       1.0  0.50666  0.63826  0.06970  1.0000
  H   H33       1.0  0.49459  0.60375  0.01012  1.0000
  C   C27       1.0  0.78671  0.39337  0.10295  1.0000
  H   H34       1.0  0.51323  0.52036  0.01394  1.0000
  H   H35       1.0  0.60981  0.61516  0.09460  1.0000
  S   S12       1.0  0.67111  0.33126  0.92346  1.0000
  H   H36       1.0  0.53142  0.49279  0.07739  1.0000
  H   H37       1.0  0.59939  0.58380  0.03299  1.0000
  H   H38       1.0  0.73586  0.17008  0.90576  1.0000
  H   H39       1.0  0.76387  0.27614  0.90035  1.0000
  C   C28       1.0  0.61992  0.36235  0.14514  1.0000
  H   H40       1.0  0.79952  0.36056  0.08756  1.0000
  C   C29       1.0  0.67487  0.49202  0.99381  1.0000
  C   C30       1.0  0.47769  0.39965  0.01147  1.0000
  H   H41       1.0  0.52829  0.32877  0.97771  1.0000
  C   C31       1.0  0.50630  0.52036  0.05642  1.0000
  C   C32       1.0  0.50289  0.32029  0.01198  1.0000
  H   H42       1.0  0.61263  0.38349  0.09582  1.0000
  H   H43       1.0  0.62038  0.55397  0.09423  1.0000
  H   H44       1.0  0.53619  0.32638  0.04864  1.0000
  H   H45       1.0  0.73625  0.38872  0.10061  1.0000
  S   S13       1.0  0.77175  0.62746  0.98059  1.0000
  H   H46       1.0  0.78995  0.56234  0.06484  1.0000
  H   H47       1.0  0.78882  0.47374  0.94811  1.0000
  H   H48       1.0  0.47128  0.55416  0.14269  1.0000
  C   C33       1.0  0.69582  0.61865  0.26481  1.0000
  H   H49       1.0  0.74813  0.44374  0.17633  1.0000
  H   H50       1.0  0.61959  0.38988  0.27390  1.0000
  H   H51       1.0  0.74503  0.61510  0.27423  1.0000
  H   H52       1.0  0.69767  0.40140  0.34907  1.0000
  Fe  Fe7       1.0  0.51958  0.51072  0.33915  1.0000
  H   H53       1.0  0.52349  0.22337  0.28819  1.0000
  C   C34       1.0  0.63851  0.30255  0.19362  1.0000
  C   C35       1.0  0.49985  0.20036  0.25495  1.0000
  C   C36       1.0  0.79830  0.44709  0.17659  1.0000
  S   S14       1.0  0.59934  0.47540  0.32703  1.0000
  H   H54       1.0  0.67017  0.58266  0.25927  1.0000
  Fe  Fe8       1.0  0.54596  0.44932  0.25019  1.0000
  H   H55       1.0  0.53509  0.19174  0.23143  1.0000
  H   H56       1.0  0.53408  0.60008  0.15663  1.0000
  S   S15       1.0  0.73163  0.16913  0.32176  1.0000
  C   C37       1.0  0.63385  0.32473  0.23306  1.0000
  H   H57       1.0  0.66927  0.63672  0.39013  1.0000
  H   H58       1.0  0.74921  0.35906  0.19427  1.0000
  S   S16       1.0  0.59187  0.44075  0.17886  1.0000
  H   H59       1.0  0.73522  0.50938  0.35104  1.0000
  C   C38       1.0  0.63138  0.32128  0.14942  1.0000
  C   C39       1.0  0.62263  0.36553  0.22870  1.0000
  S   S17       1.0  0.49963  0.38401  0.28504  1.0000
  H   H60       1.0  0.51451  0.26083  0.17366  1.0000
  H   H61       1.0  0.47998  0.16698  0.27296  1.0000
  S   S18       1.0  0.74312  0.28433  0.34065  1.0000
  C   C40       1.0  0.61480  0.38424  0.18480  1.0000
  H   H62       1.0  0.58154  0.61557  0.28230  1.0000
  C   C41       1.0  0.74738  0.48781  0.38688  1.0000
  H   H63       1.0  0.72578  0.43844  0.29730  1.0000
  H   H64       1.0  0.68921  0.63740  0.22619  1.0000
  H   H65       1.0  0.73050  0.61131  0.36858  1.0000
  H   H66       1.0  0.63645  0.30335  0.28226  1.0000
  N   N4        1.0  0.67491  0.64431  0.30688  1.0000
  S   S19       1.0  0.65522  0.24431  0.20008  1.0000
  Fe  Fe9       1.0  0.72400  0.23459  0.27183  1.0000
  C   C42       1.0  0.73968  0.41809  0.33375  1.0000
  C   C43       1.0  0.79885  0.36382  0.19295  1.0000
  H   H67       1.0  0.54668  0.53909  0.15941  1.0000
  Fe  Fe10      1.0  0.54941  0.41256  0.36241  1.0000
  H   H68       1.0  0.76324  0.38905  0.32195  1.0000
  C   C44       1.0  0.48071  0.26777  0.19957  1.0000
  H   H69       1.0  0.65360  0.58264  0.35397  1.0000
  C   C45       1.0  0.68251  0.61743  0.35708  1.0000
  Fe  Fe11      1.0  0.75614  0.21951  0.39004  1.0000
  H   H70       1.0  0.50523  0.29179  0.23159  1.0000
  S   S20       1.0  0.52821  0.58239  0.37391  1.0000
  N   N5        1.0  0.77909  0.44841  0.37436  1.0000
  C   C46       1.0  0.61017  0.64989  0.29177  1.0000
  H   H71       1.0  0.57195  0.19876  0.39415  1.0000
  S   S21       1.0  0.47290  0.44940  0.38033  1.0000
  C   C47       1.0  0.58131  0.54806  0.46099  1.0000
  C   C48       1.0  0.62290  0.58742  0.52933  1.0000
  C   C49       1.0  0.55788  0.31312  0.41303  1.0000
  C   C50       1.0  0.50244  0.31194  0.40951  1.0000
  C   C51       1.0  0.74889  0.28697  0.49965  1.0000
  H   H72       1.0  0.64189  0.27782  0.41188  1.0000
  C   C52       1.0  0.68261  0.27916  0.56926  1.0000
  C   C53       1.0  0.60845  0.62375  0.50738  1.0000
  S   S22       1.0  0.66619  0.58961  0.59224  1.0000
  C   C54       1.0  0.74873  0.32056  0.52935  1.0000
  H   H73       1.0  0.78662  0.36200  0.52406  1.0000
  C   C55       1.0  0.57993  0.62212  0.46223  1.0000
  H   H74       1.0  0.62057  0.50830  0.53195  1.0000
  H   H75       1.0  0.78633  0.29141  0.46089  1.0000
  C   C56       1.0  0.57991  0.39729  0.53942  1.0000
  C   C57       1.0  0.54645  0.23912  0.40050  1.0000
  S   S23       1.0  0.71559  0.20062  0.46457  1.0000
  H   H76       1.0  0.53216  0.19870  0.63102  1.0000
  H   H77       1.0  0.56899  0.50538  0.43552  1.0000
  N   N6        1.0  0.53379  0.38681  0.57556  1.0000
  H   H78       1.0  0.77622  0.51176  0.41657  1.0000
  H   H79       1.0  0.64381  0.27423  0.60704  1.0000
  C   C58       1.0  0.56257  0.36859  0.62637  1.0000
  H   H80       1.0  0.61889  0.42277  0.55735  1.0000
  C   C59       1.0  0.79596  0.65068  0.46117  1.0000
  H   H81       1.0  0.77242  0.57720  0.49057  1.0000
  C   C60       1.0  0.60862  0.54961  0.50635  1.0000
  H   H82       1.0  0.54468  0.45781  0.60377  1.0000
  H   H83       1.0  0.50214  0.31803  0.54279  1.0000
  H   H84       1.0  0.58203  0.33575  0.62063  1.0000
  H   H85       1.0  0.52808  0.16639  0.54905  1.0000
  C   C61       1.0  0.56665  0.58427  0.43889  1.0000
  H   H86       1.0  0.56058  0.41232  0.50108  1.0000
  C   C62       1.0  0.71608  0.24952  0.50530  1.0000
  Fe  Fe12      1.0  0.76162  0.43589  0.59709  1.0000
  C   C63       1.0  0.57989  0.27668  0.40915  1.0000
  H   H87       1.0  0.53195  0.63705  0.58886  1.0000
  C   C64       1.0  0.71553  0.31653  0.56416  1.0000
  C   C65       1.0  0.48442  0.35113  0.55125  1.0000
  H   H88       1.0  0.59907  0.36493  0.53038  1.0000
  Fe  Fe13      1.0  0.73147  0.53659  0.59536  1.0000
  S   S24       1.0  0.73584  0.48580  0.53078  1.0000
  H   H89       1.0  0.70526  0.47474  0.40412  1.0000
  S   S25       1.0  0.71477  0.36244  0.60860  1.0000
  S   S26       1.0  0.60407  0.36750  0.41639  1.0000
  C   C66       1.0  0.68313  0.24583  0.54011  1.0000
  C   C67       1.0  0.50853  0.43032  0.58525  1.0000
  H   H90       1.0  0.64555  0.20443  0.54634  1.0000
  H   H91       1.0  0.50636  0.17288  0.47956  1.0000
  H   H92       1.0  0.75081  0.40731  0.44058  1.0000
  C   C68       1.0  0.79283  0.42033  0.42297  1.0000
  H   H93       1.0  0.60086  0.39437  0.64519  1.0000
  H   H94       1.0  0.48636  0.44511  0.54779  1.0000
  H   H95       1.0  0.49430  0.27910  0.63565  1.0000
  H   H96       1.0  0.47680  0.35248  0.41385  1.0000
  H   H97       1.0  0.74058  0.65912  0.47393  1.0000
  H   H98       1.0  0.47384  0.42349  0.61262  1.0000
  C   C69       1.0  0.49087  0.23809  0.39611  1.0000
  H   H99       1.0  0.71580  0.02923  0.73271  1.0000
  S   S27       1.0  0.50284  0.72283  0.82555  1.0000
  H   H100      1.0  0.70956  0.97199  0.70380  1.0000
  C   C70       1.0  0.59664  0.03749  0.71352  1.0000
  H   H101      1.0  0.54935  0.03069  0.72276  1.0000
  H   H102      1.0  0.62232  0.06384  0.74264  1.0000
  H   H103      1.0  0.54107  0.95073  0.68582  1.0000
  H   H104      1.0  0.71541  0.89584  0.74716  1.0000
  C   C71       1.0  0.68724  0.00440  0.70334  1.0000
  S   S28       1.0  0.69869  0.08635  0.84636  1.0000
  H   H105      1.0  0.57948  0.96703  0.78204  1.0000
  H   H106      1.0  0.70399  0.67107  0.72108  1.0000
  C   C72       1.0  0.58871  0.95942  0.67747  1.0000
  H   H107      1.0  0.68371  0.78903  0.81824  1.0000
  C   C73       1.0  0.76977  0.88543  0.77410  1.0000
  H   H108      1.0  0.74809  0.81434  0.73444  1.0000
  H   H109      1.0  0.60861  0.92580  0.67868  1.0000
  H   H110      1.0  0.77892  0.75999  0.85971  1.0000
  H   H111      1.0  0.65451  0.99769  0.80003  1.0000
  C   C74       1.0  0.74992  0.67827  0.70893  1.0000
  C   C75       1.0  0.59711  0.11993  0.84777  1.0000
  H   H112      1.0  0.62943  0.80263  0.85921  1.0000
  H   H113      1.0  0.57125  0.07938  0.82081  1.0000
  C   C76       1.0  0.62574  0.97359  0.77022  1.0000
  C   C77       1.0  0.49589  0.89406  0.82768  1.0000
  H   H114      1.0  0.64478  0.93969  0.77371  1.0000
  S   S29       1.0  0.50023  0.11772  0.69039  1.0000
  C   C78       1.0  0.56497  0.15005  0.85524  1.0000
  H   H115      1.0  0.70021  0.84070  0.85916  1.0000
  H   H116      1.0  0.58027  0.86335  0.81549  1.0000
  H   H117      1.0  0.74428  0.67201  0.66537  1.0000
  C   C79       1.0  0.54433  0.88147  0.84741  1.0000
  S   S30       1.0  0.78467  0.97211  0.80686  1.0000
  H   H118      1.0  0.59496  0.05388  0.67345  1.0000
  N   N7        1.0  0.62460  0.99362  0.71610  1.0000
  S   S31       1.0  0.47460  0.89199  0.75816  1.0000
  H   H119      1.0  0.68810  0.02046  0.66324  1.0000
  H   H120      1.0  0.76645  0.71632  0.71596  1.0000
  H   H121      1.0  0.72174  0.15191  0.70321  1.0000
  H   H122      1.0  0.68465  0.70889  0.86150  1.0000
  C   C80       1.0  0.65191  0.12643  0.86340  1.0000
  C   C81       1.0  0.67881  0.80315  0.85749  1.0000
  C   C82       1.0  0.78530  0.84650  0.76799  1.0000
  H   H123      1.0  0.54568  0.71078  0.67379  1.0000
  C   C83       1.0  0.50656  0.68218  0.67157  1.0000
  C   C84       1.0  0.80371  0.91502  0.80255  1.0000
  H   H124      1.0  0.47819  0.68983  0.70196  1.0000
  C   C85       1.0  0.56210  0.88700  0.89533  1.0000
  H   H125      1.0  0.50363  0.14241  0.83737  1.0000
  H   H126      1.0  0.48023  0.07223  0.89337  1.0000
  H   H127      1.0  0.67411  0.95044  0.12842  1.0000
  H   H128      1.0  0.50445  0.04034  0.05929  1.0000
  C   C86       1.0  0.58263  0.72322  0.02796  1.0000
  C   C87       1.0  0.61548  0.71385  0.06856  1.0000
  N   N8        1.0  0.49054  0.06460  0.97821  1.0000
  H   H129      1.0  0.48198  0.99457  0.01095  1.0000
  H   H130      1.0  0.66396  0.69009  0.06432  1.0000
  H   H131      1.0  0.72245  0.83320  0.95606  1.0000
  S   S32       1.0  0.67346  0.04279  0.98518  1.0000
  H   H132      1.0  0.53332  0.12311  0.02743  1.0000
  H   H133      1.0  0.53953  0.03848  0.92076  1.0000
  C   C88       1.0  0.67083  0.85805  0.10422  1.0000
  S   S33       1.0  0.69324  0.95769  0.90817  1.0000
  S   S34       1.0  0.49301  0.75863  0.97241  1.0000
  H   H134      1.0  0.61653  0.87284  0.91733  1.0000
  H   H135      1.0  0.59693  0.71146  0.97975  1.0000
  Fe  Fe14      1.0  0.77973  0.95152  0.96231  1.0000
  H   H136      1.0  0.55756  0.02420  0.01854  1.0000
  H   H137      1.0  0.69546  0.70460  0.93245  1.0000
  C   C89       1.0  0.60460  0.72542  0.11201  1.0000
  C   C90       1.0  0.50962  0.02969  0.01866  1.0000
  C   C91       1.0  0.53128  0.90510  0.92343  1.0000
  C   C92       1.0  0.56046  0.74576  0.11485  1.0000
  H   H138      1.0  0.57849  0.10577  0.98026  1.0000
  Fe  Fe15      1.0  0.71888  0.03588  0.91363  1.0000
  S   S35       1.0  0.78708  0.72817  0.08237  1.0000
  Fe  Fe16      1.0  0.48549  0.70518  0.90866  1.0000
  C   C93       1.0  0.52808  0.75577  0.07412  1.0000
  Fe  Fe17      1.0  0.76248  0.03137  0.03182  1.0000
  S   S36       1.0  0.73807  0.95326  0.03644  1.0000
  H   H139      1.0  0.57565  0.90005  0.12121  1.0000
  Fe  Fe18      1.0  0.65331  0.96394  0.98261  1.0000
  C   C94       1.0  0.53902  0.74433  0.03052  1.0000
  H   H140      1.0  0.64965  0.87718  0.06935  1.0000
  C   C95       1.0  0.49319  0.04649  0.92488  1.0000
  H   H141      1.0  0.65152  0.79566  0.95711  1.0000
  C   C96       1.0  0.53132  0.10966  0.98655  1.0000
  S   S37       1.0  0.56221  0.92302  0.98847  1.0000
  H   H142      1.0  0.72008  0.85911  0.10131  1.0000
  H   H143      1.0  0.65006  0.82064  0.10027  1.0000
  H   H144      1.0  0.72168  0.77623  0.98680  1.0000
  C   C97       1.0  0.70030  0.79594  0.95263  1.0000
  H   H145      1.0  0.51592  0.13729  0.95818  1.0000
  C   C98       1.0  0.67731  0.72609  0.89826  1.0000
  C   C99       1.0  0.48172  0.91584  0.90411  1.0000
  H   H146      1.0  0.79544  0.75672  0.93078  1.0000
  H   H147      1.0  0.48000  0.78003  0.07824  1.0000
  N   N9        1.0  0.70713  0.77535  0.90147  1.0000
  C   C100      1.0  0.77219  0.77619  0.89727  1.0000
  H   H148      1.0  0.79564  0.81293  0.89723  1.0000
  H   H149      1.0  0.62747  0.72424  0.89760  1.0000
  C   C101      1.0  0.67137  0.05035  0.39046  1.0000
  H   H150      1.0  0.70683  0.71276  0.27721  1.0000
  S   S38       1.0  0.55963  0.94121  0.32870  1.0000
  H   H151      1.0  0.58659  0.89403  0.19252  1.0000
  H   H152      1.0  0.75242  0.97547  0.33882  1.0000
  H   H153      1.0  0.68931  0.94247  0.19901  1.0000
  C   C102      1.0  0.53076  0.74198  0.34120  1.0000
  H   H154      1.0  0.62549  0.03118  0.37641  1.0000
  C   C103      1.0  0.71126  0.69129  0.31415  1.0000
  H   H155      1.0  0.73847  0.03262  0.31262  1.0000
  H   H156      1.0  0.73497  0.84756  0.19958  1.0000
  H   H157      1.0  0.69635  0.71145  0.34569  1.0000
  C   C104      1.0  0.48427  0.72144  0.31600  1.0000
  C   C105      1.0  0.53244  0.75066  0.38841  1.0000
  C   C106      1.0  0.47693  0.99344  0.34293  1.0000
  H   H158      1.0  0.58158  0.75564  0.31684  1.0000
  H   H159      1.0  0.68073  0.86433  0.23844  1.0000
  H   H160      1.0  0.60300  0.67311  0.25643  1.0000
  H   H161      1.0  0.47315  0.96927  0.38983  1.0000
  H   H162      1.0  0.76036  0.68856  0.32589  1.0000
  H   H163      1.0  0.79171  0.07595  0.38995  1.0000
  C   C107      1.0  0.68564  0.84944  0.19956  1.0000
  H   H164      1.0  0.54908  0.99516  0.23401  1.0000
  N   N10       1.0  0.71890  0.01904  0.39239  1.0000
  C   C108      1.0  0.47565  0.03412  0.25682  1.0000
  H   H165      1.0  0.67651  0.98715  0.31843  1.0000
  H   H166      1.0  0.66173  0.81275  0.19764  1.0000
  C   C109      1.0  0.51154  0.98449  0.31221  1.0000
  S   S39       1.0  0.65448  0.71673  0.16954  1.0000
  H   H167      1.0  0.59175  0.66582  0.32443  1.0000
  H   H168      1.0  0.54722  0.75806  0.16353  1.0000
  H   H169      1.0  0.74252  0.92806  0.15795  1.0000
  C   C110      1.0  0.72183  0.00300  0.33820  1.0000
  C   C111      1.0  0.51100  0.00497  0.26916  1.0000
  C   C112      1.0  0.69307  0.92699  0.16015  1.0000
  S   S40       1.0  0.48319  0.71095  0.24825  1.0000
  H   H170      1.0  0.67938  0.08041  0.36280  1.0000
  Fe  Fe19      1.0  0.74066  0.69642  0.14921  1.0000
  H   H171      1.0  0.48992  0.90637  0.23012  1.0000
  H   H172      1.0  0.47437  0.05626  0.20801  1.0000
  H   H173      1.0  0.48437  0.83220  0.28131  1.0000
  H   H174      1.0  0.57013  0.84268  0.15093  1.0000
  C   C113      1.0  0.59547  0.87885  0.15504  1.0000
  N   N11       1.0  0.66123  0.87832  0.15473  1.0000
  H   H175      1.0  0.74033  0.95442  0.43071  1.0000
  N   N12       1.0  0.51124  0.10163  0.50563  1.0000
  H   H176      1.0  0.54814  0.69930  0.57697  1.0000
  H   H177      1.0  0.48516  0.66565  0.53808  1.0000
  H   H178      1.0  0.60756  0.11915  0.52906  1.0000
  H   H179      1.0  0.56442  0.66315  0.43775  1.0000
  H   H180      1.0  0.51377  0.03655  0.54939  1.0000
  H   H181      1.0  0.58277  0.12615  0.45958  1.0000
  C   C114      1.0  0.77273  0.91428  0.53740  1.0000
  H   H182      1.0  0.77732  0.05762  0.45560  1.0000
  C   C115      1.0  0.79974  0.98618  0.55869  1.0000
  H   H183      1.0  0.47749  0.09892  0.42199  1.0000
  H   H184      1.0  0.78779  0.02743  0.57945  1.0000
  C   C116      1.0  0.57468  0.10378  0.49504  1.0000
  S   S41       1.0  0.69164  0.95327  0.57813  1.0000
  Fe  Fe20      1.0  0.61188  0.91515  0.52586  1.0000
  H   H185      1.0  0.53219  0.08862  0.58941  1.0000
  H   H186      1.0  0.47455  0.04263  0.45480  1.0000
  H   H187      1.0  0.58577  0.77230  0.41631  1.0000
  S   S42       1.0  0.52918  0.87602  0.55496  1.0000
  S   S43       1.0  0.48980  0.75382  0.47751  1.0000
  C   C117      1.0  0.49821  0.14981  0.51415  1.0000
  S   S44       1.0  0.80275  0.73650  0.42690  1.0000
  H   H188      1.0  0.67017  0.06520  0.43017  1.0000
  Fe  Fe21      1.0  0.47628  0.92355  0.50118  1.0000
  C   C118      1.0  0.77829  0.04481  0.41484  1.0000
  Fe  Fe22      1.0  0.54956  0.91472  0.41094  1.0000
  H   H189      1.0  0.66131  0.95602  0.40896  1.0000
  C   C119      1.0  0.51078  0.66972  0.57887  1.0000
  H   H190      1.0  0.73090  0.87409  0.53515  1.0000
  H   H191      1.0  0.48393  0.75403  0.60409  1.0000
  H   H192      1.0  0.58587  0.06818  0.48764  1.0000
  C   C120      1.0  0.70399  0.97774  0.42623  1.0000
  S   S45       1.0  0.55937  0.96571  0.47746  1.0000
  H   H193      1.0  0.58711  0.97327  0.63616  1.0000
  Fe  Fe23      1.0  0.52209  0.83122  0.48254  1.0000
  H   H194      1.0  0.69804  0.98857  0.46656  1.0000
  C   C121      1.0  0.48768  0.73886  0.41074  1.0000
  H   H195      1.0  0.62613  0.66677  0.53198  1.0000
  C   C122      1.0  0.76140  0.95094  0.55541  1.0000
  S   S46       1.0  0.60915  0.86693  0.45710  1.0000
  C   C123      1.0  0.50281  0.07286  0.55368  1.0000
  C   C124      1.0  0.96528  0.20109  0.70783  1.0000
  C   C125      1.0  0.00018  0.23748  0.71851  1.0000
  H   H196      1.0  0.01409  0.47334  0.79200  1.0000
  H   H197      1.0  0.09177  0.39444  0.72095  1.0000
  H   H198      1.0  0.94606  0.44385  0.71119  1.0000
  H   H199      1.0  0.97991  0.22865  0.84950  1.0000
  C   C126      1.0  0.98091  0.16963  0.68302  1.0000
  H   H200      1.0  0.01036  0.43759  0.67783  1.0000
  H   H201      1.0  0.98337  0.27182  0.74819  1.0000
  H   H202      1.0  0.00432  0.64156  0.66806  1.0000
  H   H203      1.0  0.07975  0.46818  0.76043  1.0000
  C   C127      1.0  0.97011  0.38079  0.78859  1.0000
  C   C128      1.0  0.05765  0.37540  0.74454  1.0000
  C   C129      1.0  0.98641  0.55134  0.72361  1.0000
  H   H204      1.0  0.96341  0.50845  0.64829  1.0000
  H   H205      1.0  0.94606  0.34767  0.76940  1.0000
  H   H206      1.0  0.07172  0.43956  0.82251  1.0000
  H   H207      1.0  0.93438  0.40266  0.79508  1.0000
  H   H208      1.0  0.91772  0.39344  0.88580  1.0000
  H   H209      1.0  0.00374  0.59646  0.79689  1.0000
  H   H210      1.0  0.09066  0.28281  0.71667  1.0000
  H   H211      1.0  0.99359  0.37170  0.82818  1.0000
  H   H212      1.0  0.92554  0.52315  0.85133  1.0000
  C   C130      1.0  0.06712  0.21023  0.68114  1.0000
  H   H213      1.0  0.03091  0.63146  0.87625  1.0000
  Fe  Fe24      1.0  0.84895  0.51171  0.66050  1.0000
  S   S47       1.0  0.89941  0.18984  0.73713  1.0000
  N   N13       1.0  0.01322  0.40617  0.75549  1.0000
  C   C131      1.0  0.04584  0.44865  0.78380  1.0000
  H   H214      1.0  0.08340  0.36335  0.78185  1.0000
  C   C132      1.0  0.05784  0.53809  0.68178  1.0000
  C   C133      1.0  0.07799  0.58077  0.75073  1.0000
  H   H215      1.0  0.11939  0.60798  0.78660  1.0000
  H   H216      1.0  0.84856  0.65111  0.67697  1.0000
  H   H217      1.0  0.08977  0.21992  0.86335  1.0000
  H   H218      1.0  0.88523  0.63671  0.74151  1.0000
  H   H219      1.0  0.95295  0.38849  0.68307  1.0000
  C   C134      1.0  0.03174  0.17434  0.66941  1.0000
  C   C135      1.0  0.00367  0.53384  0.68608  1.0000
  C   C136      1.0  0.02337  0.57529  0.75575  1.0000
  C   C137      1.0  0.97919  0.41970  0.70469  1.0000
  C   C138      1.0  0.09515  0.56190  0.71361  1.0000
  H   H220      1.0  0.03493  0.34421  0.72117  1.0000
  C   C139      1.0  0.05127  0.24205  0.70510  1.0000
  S   S48       1.0  0.91022  0.53831  0.73435  1.0000
  H   H221      1.0  0.05700  0.29946  0.85843  1.0000
  H   H222      1.0  0.88494  0.46492  0.84159  1.0000
  H   H223      1.0  0.05366  0.54602  0.86283  1.0000
  C   C140      1.0  0.90283  0.49247  0.87200  1.0000
  H   H224      1.0  0.80654  0.21842  0.78501  1.0000
  H   H225      1.0  0.82582  0.55312  0.83668  1.0000
  H   H226      1.0  0.83093  0.63626  0.81895  1.0000
  C   C141      1.0  0.80654  0.52235  0.85904  1.0000
  C   C142      1.0  0.98201  0.22827  0.89350  1.0000
  C   C143      1.0  0.85194  0.65848  0.72000  1.0000
  C   C144      1.0  0.84218  0.33423  0.89509  1.0000
  H   H227      1.0  0.05207  0.51815  0.03864  1.0000
  H   H228      1.0  0.89547  0.55513  0.14250  1.0000
  S   S49       1.0  0.88869  0.65561  0.11449  1.0000
  N   N14       1.0  0.04255  0.24856  0.92019  1.0000
  H   H229      1.0  0.08082  0.18381  0.92111  1.0000
  C   C145      1.0  0.03033  0.58600  0.00029  1.0000
  S   S50       1.0  0.06672  0.47637  0.94168  1.0000
  S   S51       1.0  0.08165  0.36366  0.01756  1.0000
  H   H230      1.0  0.00866  0.26873  0.98996  1.0000
  Fe  Fe25      1.0  0.00832  0.35574  0.06911  1.0000
  H   H231      1.0  0.97054  0.19097  0.90566  1.0000
  C   C146      1.0  0.84255  0.29272  0.96584  1.0000
  H   H232      1.0  0.02261  0.31979  0.91187  1.0000
  H   H233      1.0  0.00264  0.24159  0.10400  1.0000
  H   H234      1.0  0.84309  0.55555  0.95793  1.0000
  H   H235      1.0  0.86113  0.45174  0.95866  1.0000
  H   H236      1.0  0.99339  0.17880  0.11053  1.0000
  C   C147      1.0  0.04933  0.53307  0.95025  1.0000
  C   C148      1.0  0.02545  0.61296  0.96223  1.0000
  H   H237      1.0  0.12038  0.17873  0.04724  1.0000
  H   H238      1.0  0.08816  0.26123  0.99987  1.0000
  H   H239      1.0  0.91434  0.53300  0.96770  1.0000
  C   C149      1.0  0.04476  0.56016  0.91219  1.0000
  H   H240      1.0  0.10229  0.31391  0.92125  1.0000
  S   S52       1.0  0.92358  0.30524  0.04973  1.0000
  H   H241      1.0  0.02240  0.60005  0.05001  1.0000
  H   H242      1.0  0.92999  0.20819  0.08359  1.0000
  H   H243      1.0  0.98900  0.51330  0.13226  1.0000
  C   C150      1.0  0.04279  0.54626  0.99445  1.0000
  C   C151      1.0  0.82679  0.46488  0.92798  1.0000
  H   H244      1.0  0.81495  0.25681  0.99483  1.0000
  C   C152      1.0  0.03338  0.60036  0.91832  1.0000
  Fe  Fe26      1.0  0.07480  0.44032  0.02064  1.0000
  C   C153      1.0  0.87878  0.54428  0.93693  1.0000
  C   C154      1.0  0.89064  0.31598  0.98470  1.0000
  C   C155      1.0  0.05667  0.29768  0.90207  1.0000
  H   H245      1.0  0.96692  0.37595  0.97815  1.0000
  H   H246      1.0  0.03075  0.21105  0.99298  1.0000
  S   S53       1.0  0.99756  0.43183  0.06861  1.0000
  C   C156      1.0  0.04260  0.24751  0.97828  1.0000
  Fe  Fe27      1.0  0.06966  0.43803  0.13937  1.0000
  H   H247      1.0  0.09916  0.22350  0.12932  1.0000
  C   C157      1.0  0.91470  0.34773  0.95820  1.0000
  H   H248      1.0  0.80817  0.43511  0.90065  1.0000
  H   H249      1.0  0.94557  0.24791  0.90361  1.0000
  C   C158      1.0  0.89080  0.35649  0.91350  1.0000
  C   C159      1.0  0.08919  0.22081  0.90692  1.0000
  C   C160      1.0  0.81812  0.30200  0.92098  1.0000
  H   H250      1.0  0.89956  0.57606  0.91674  1.0000
  C   C161      1.0  0.97096  0.21053  0.11425  1.0000
  H   H251      1.0  0.89898  0.37751  0.14433  1.0000
  H   H252      1.0  0.89867  0.43965  0.13350  1.0000
  H   H253      1.0  0.13547  0.23557  0.92614  1.0000
  H   H254      1.0  0.93840  0.47855  0.90071  1.0000
  S   S54       1.0  0.07406  0.36022  0.14389  1.0000
  N   N15       1.0  0.85371  0.50599  0.89903  1.0000
  C   C162      1.0  0.02767  0.65427  0.24210  1.0000
  Fe  Fe28      1.0  0.83417  0.62908  0.17928  1.0000
  H   H255      1.0  0.97705  0.63339  0.32988  1.0000
  C   C163      1.0  0.94862  0.53238  0.27093  1.0000
  C   C164      1.0  0.93242  0.26005  0.17332  1.0000
  H   H256      1.0  0.03007  0.17943  0.20307  1.0000
  C   C165      1.0  0.83612  0.46725  0.35391  1.0000
  S   S55       1.0  0.85403  0.57346  0.24023  1.0000
  H   H257      1.0  0.11712  0.30695  0.36458  1.0000
  H   H258      1.0  0.92665  0.26662  0.21494  1.0000
  C   C166      1.0  0.11787  0.38245  0.29960  1.0000
  H   H259      1.0  0.82175  0.36977  0.23433  1.0000
  S   S56       1.0  0.90747  0.35150  0.32283  1.0000
  C   C167      1.0  0.99244  0.51229  0.26598  1.0000
  S   S57       1.0  0.82127  0.24139  0.25894  1.0000
  C   C168      1.0  0.98570  0.40573  0.38686  1.0000
  H   H260      1.0  0.11720  0.56614  0.30430  1.0000
  N   N16       1.0  0.95490  0.21446  0.16812  1.0000
  C   C169      1.0  0.93025  0.54001  0.18708  1.0000
  C   C170      1.0  0.00478  0.50503  0.22165  1.0000
  H   H261      1.0  0.92449  0.65988  0.28274  1.0000
  H   H262      1.0  0.09825  0.28793  0.29668  1.0000
  C   C171      1.0  0.00913  0.21186  0.20787  1.0000
  H   H263      1.0  0.93585  0.54004  0.32122  1.0000
  H   H264      1.0  0.81054  0.33002  0.17927  1.0000
  H   H265      1.0  0.02814  0.49858  0.31081  1.0000
  H   H266      1.0  0.86035  0.43852  0.34253  1.0000
  H   H267      1.0  0.82753  0.49022  0.31850  1.0000
  H   H268      1.0  0.00689  0.42287  0.34094  1.0000
  Fe  Fe29      1.0  0.83122  0.18062  0.31490  1.0000
  H   H269      1.0  0.09786  0.38763  0.33620  1.0000
  H   H270      1.0  0.88816  0.26144  0.14763  1.0000
  S   S58       1.0  0.06479  0.47251  0.21663  1.0000
  H   H271      1.0  0.96496  0.28996  0.16164  1.0000
  H   H272      1.0  0.89117  0.17888  0.21588  1.0000
  S   S59       1.0  0.85604  0.22668  0.38646  1.0000
  H   H273      1.0  0.04209  0.62138  0.26109  1.0000
  H   H274      1.0  0.98545  0.64381  0.21411  1.0000
  C   C172      1.0  0.97405  0.51929  0.18210  1.0000
  C   C173      1.0  0.13582  0.30375  0.32689  1.0000
  C   C174      1.0  0.91743  0.54618  0.23164  1.0000
  H   H275      1.0  0.90777  0.41671  0.19988  1.0000
  H   H276      1.0  0.08013  0.36937  0.26807  1.0000
  H   H277      1.0  0.82060  0.45591  0.21770  1.0000
  H   H278      1.0  0.86812  0.48866  0.38432  1.0000
  C   C175      1.0  0.94237  0.37425  0.38455  1.0000
  H   H279      1.0  0.04448  0.24249  0.20402  1.0000
  C   C176      1.0  0.90713  0.17550  0.17716  1.0000
  H   H280      1.0  0.99769  0.21144  0.24905  1.0000
  Fe  Fe30      1.0  0.84096  0.28678  0.33068  1.0000
  H   H281      1.0  0.86662  0.17447  0.14610  1.0000
  C   C177      1.0  0.88347  0.40953  0.15893  1.0000
  N   N17       1.0  0.81681  0.40348  0.15781  1.0000
  H   H282      1.0  0.81133  0.47788  0.15113  1.0000
  H   H283      1.0  0.94836  0.27550  0.48496  1.0000
  H   H284      1.0  0.97559  0.22566  0.45944  1.0000
  C   C178      1.0  0.97530  0.24603  0.49605  1.0000
  S   S60       1.0  0.02654  0.42686  0.53372  1.0000
  S   S61       1.0  0.82881  0.56704  0.60037  1.0000
  S   S62       1.0  0.86182  0.45916  0.60016  1.0000
  C   C179      1.0  0.07132  0.22319  0.53523  1.0000
  C   C180      1.0  0.92303  0.35942  0.42530  1.0000
  N   N18       1.0  0.03770  0.26361  0.52072  1.0000
  H   H285      1.0  0.04360  0.32409  0.46905  1.0000
  H   H286      1.0  0.09627  0.63833  0.63023  1.0000
  H   H287      1.0  0.87404  0.32455  0.42320  1.0000
  H   H288      1.0  0.00963  0.26922  0.59733  1.0000
  H   H289      1.0  0.82518  0.44131  0.45367  1.0000
  C   C181      1.0  0.86086  0.60319  0.45899  1.0000
  C   C182      1.0  0.81171  0.61150  0.46975  1.0000
  H   H290      1.0  0.95018  0.62584  0.42790  1.0000
  H   H291      1.0  0.00433  0.58465  0.59253  1.0000
  H   H292      1.0  0.07430  0.27435  0.44715  1.0000
  Fe  Fe31      1.0  0.11251  0.47798  0.53809  1.0000
  C   C183      1.0  0.94660  0.37618  0.46846  1.0000
  H   H293      1.0  0.00803  0.60771  0.52680  1.0000
  Fe  Fe32      1.0  0.83503  0.51400  0.53949  1.0000
  H   H294      1.0  0.10328  0.65953  0.56398  1.0000
  H   H295      1.0  0.92317  0.35995  0.51382  1.0000
  H   H296      1.0  0.11505  0.30989  0.50095  1.0000
  C   C184      1.0  0.01008  0.42215  0.43023  1.0000
  C   C185      1.0  0.99104  0.61317  0.56488  1.0000
  H   H297      1.0  0.94070  0.60825  0.55682  1.0000
  C   C186      1.0  0.06892  0.29430  0.48269  1.0000
  H   H298      1.0  0.08173  0.30252  0.58988  1.0000
  H   H299      1.0  0.01293  0.32285  0.55896  1.0000
  H   H300      1.0  0.95055  0.22247  0.52360  1.0000
  C   C187      1.0  0.89445  0.63455  0.43942  1.0000
  H   H301      1.0  0.07574  0.20271  0.49974  1.0000
  C   C188      1.0  0.03531  0.29074  0.56885  1.0000
  H   H302      1.0  0.04851  0.19875  0.56306  1.0000
  S   S63       1.0  0.11526  0.55429  0.55714  1.0000
  H   H303      1.0  0.05863  0.45749  0.43243  1.0000
  C   C189      1.0  0.99058  0.40722  0.47106  1.0000
  H   H304      1.0  0.11813  0.23510  0.55514  1.0000
  S   S64       1.0  0.88414  0.54735  0.47392  1.0000
  H   H305      1.0  0.07598  0.51239  0.64343  1.0000
  H   H306      1.0  0.13420  0.56936  0.40735  1.0000
  H   H307      1.0  0.81342  0.38884  0.41431  1.0000
  H   H308      1.0  0.93771  0.65927  0.62901  1.0000
  Fe  Fe33      1.0  0.91572  0.12351  0.78094  1.0000
  C   C190      1.0  0.10908  0.03566  0.70067  1.0000
  Fe  Fe34      1.0  0.06890  0.74619  0.79836  1.0000
  S   S65       1.0  0.03900  0.81741  0.80036  1.0000
  C   C191      1.0  0.96497  0.90369  0.73171  1.0000
  Fe  Fe35      1.0  0.07410  0.81614  0.88706  1.0000
  H   H309      1.0  0.86696  0.94712  0.70895  1.0000
  H   H310      1.0  0.81447  0.69481  0.80501  1.0000
  C   C192      1.0  0.87185  0.92015  0.67965  1.0000
  Fe  Fe36      1.0  0.86579  0.02811  0.82017  1.0000
  Fe  Fe37      1.0  0.99638  0.04561  0.79494  1.0000
  H   H311      1.0  0.96919  0.98872  0.68792  1.0000
  H   H312      1.0  0.00112  0.70236  0.65203  1.0000
  C   C193      1.0  0.86759  0.86624  0.81959  1.0000
  H   H313      1.0  0.88801  0.93549  0.86131  1.0000
  S   S66       1.0  0.86937  0.10151  0.85124  1.0000
  S   S67       1.0  0.98042  0.70675  0.81529  1.0000
  H   H314      1.0  0.13112  0.92957  0.75707  1.0000
  Fe  Fe38      1.0  0.96340  0.09348  0.89147  1.0000
  S   S68       1.0  0.06514  0.99826  0.78442  1.0000
  H   H315      1.0  0.92235  0.85625  0.84620  1.0000
  H   H316      1.0  0.07649  0.07223  0.70676  1.0000
  C   C194      1.0  0.10624  0.00136  0.73068  1.0000
  C   C195      1.0  0.85215  0.90500  0.82553  1.0000
  Fe  Fe39      1.0  0.95223  0.77796  0.82108  1.0000
  S   S69       1.0  0.01017  0.12011  0.82285  1.0000
  S   S70       1.0  0.95558  0.01883  0.86649  1.0000
  C   C196      1.0  0.96818  0.95965  0.65959  1.0000
  S   S71       1.0  0.10322  0.73537  0.72218  1.0000
  N   N19       1.0  0.93621  0.91510  0.67803  1.0000
  S   S72       1.0  0.11124  0.74784  0.88376  1.0000
  H   H317      1.0  0.95891  0.92995  0.76139  1.0000
  S   S73       1.0  0.85972  0.78427  0.77694  1.0000
  H   H318      1.0  0.01595  0.95614  0.65519  1.0000
  C   C197      1.0  0.83467  0.83727  0.79031  1.0000
  H   H319      1.0  0.94234  0.12833  0.67140  1.0000
  H   H320      1.0  0.84598  0.88639  0.69059  1.0000
  H   H321      1.0  0.87104  0.69616  0.72639  1.0000
  S   S74       1.0  0.90606  0.05108  0.74665  1.0000
  H   H322      1.0  0.01466  0.90322  0.73311  1.0000
  H   H323      1.0  0.94478  0.86867  0.74508  1.0000
  H   H324      1.0  0.91597  0.84257  0.65432  1.0000
  C   C198      1.0  0.13545  0.96904  0.72512  1.0000
  H   H325      1.0  0.11397  0.06471  0.87880  1.0000
  S   S75       1.0  0.01158  0.11373  0.97290  1.0000
  H   H326      1.0  0.00512  0.72746  0.06617  1.0000
  S   S76       1.0  0.83729  0.89498  0.95383  1.0000
  H   H327      1.0  0.89718  0.14713  0.95255  1.0000
  C   C199      1.0  0.87010  0.86782  0.01119  1.0000
  H   H328      1.0  0.81120  0.13092  0.00940  1.0000
  H   H329      1.0  0.07319  0.76333  0.00680  1.0000
  C   C200      1.0  0.03460  0.91726  0.02952  1.0000
  C   C201      1.0  0.96776  0.09521  0.06119  1.0000
  H   H330      1.0  0.04802  0.99766  0.08702  1.0000
  C   C202      1.0  0.07008  0.99895  0.05046  1.0000
  H   H331      1.0  0.85665  0.92872  0.06171  1.0000
  C   C203      1.0  0.08549  0.80305  0.10341  1.0000
  H   H332      1.0  0.00775  0.89181  0.99996  1.0000
  C   C204      1.0  0.04429  0.72070  0.09585  1.0000
  H   H333      1.0  0.94841  0.97228  0.03377  1.0000
  C   C205      1.0  0.87588  0.09845  0.07177  1.0000
  H   H334      1.0  0.97110  0.01472  0.98541  1.0000
  H   H335      1.0  0.08146  0.90750  0.03756  1.0000
  S   S77       1.0  0.80991  0.02889  0.96014  1.0000
  H   H336      1.0  0.92436  0.76436  0.03852  1.0000
  H   H337      1.0  0.88525  0.81052  0.95698  1.0000
  C   C206      1.0  0.89739  0.86441  0.09495  1.0000
  H   H338      1.0  0.11236  0.96526  0.96896  1.0000
  C   C207      1.0  0.95837  0.11341  0.01695  1.0000
  H   H339      1.0  0.12482  0.83044  0.09943  1.0000
  C   C208      1.0  0.90877  0.80846  0.04542  1.0000
  S   S78       1.0  0.12770  0.86980  0.94333  1.0000
  H   H340      1.0  0.05313  0.68424  0.08867  1.0000
  C   C209      1.0  0.06405  0.97163  0.96101  1.0000
  H   H341      1.0  0.04578  0.81318  0.07632  1.0000
  Fe  Fe40      1.0  0.01932  0.71548  0.90105  1.0000
  S   S79       1.0  0.00563  0.66856  0.97075  1.0000
  C   C210      1.0  0.90891  0.12640  0.00163  1.0000
  H   H342      1.0  0.94558  0.95494  0.96607  1.0000
  C   C211      1.0  0.11232  0.75521  0.03595  1.0000
  S   S80       1.0  0.98410  0.78368  0.90819  1.0000
  H   H343      1.0  0.06314  0.00767  0.94419  1.0000
  C   C212      1.0  0.97233  0.97751  0.99833  1.0000
  C   C213      1.0  0.88797  0.82980  0.00638  1.0000
  H   H344      1.0  0.07520  0.03588  0.03532  1.0000
  H   H345      1.0  0.04053  0.94615  0.92997  1.0000
  N   N20       1.0  0.03521  0.96628  0.00985  1.0000
  C   C214      1.0  0.87502  0.88545  0.05552  1.0000
  C   C215      1.0  0.86785  0.11917  0.02911  1.0000
  H   H346      1.0  0.01453  0.91219  0.06713  1.0000
  N   N21       1.0  0.09819  0.75552  0.09093  1.0000
  H   H347      1.0  0.02394  0.08245  0.08006  1.0000
  C   C216      1.0  0.92615  0.08715  0.08837  1.0000
  S   S81       1.0  0.81246  0.07434  0.10048  1.0000
  C   C217      1.0  0.91391  0.82569  0.08971  1.0000
  H   H348      1.0  0.12365  0.72028  0.02543  1.0000
  H   H349      1.0  0.90177  0.88372  0.14471  1.0000
  Fe  Fe41      1.0  0.87300  0.72727  0.13864  1.0000
  S   S82       1.0  0.93974  0.79273  0.14510  1.0000
  H   H350      1.0  0.93479  0.06225  0.13531  1.0000
  H   H351      1.0  0.02976  0.72181  0.13566  1.0000
  H   H352      1.0  0.11643  0.98963  0.06227  1.0000
  H   H353      1.0  0.07482  0.80495  0.14462  1.0000
  C   C218      1.0  0.96769  0.66734  0.31030  1.0000
  S   S83       1.0  0.89984  0.13068  0.31095  1.0000
  C   C219      1.0  0.00293  0.73215  0.25534  1.0000
  H   H354      1.0  0.92382  0.14072  0.17727  1.0000
  C   C220      1.0  0.09869  0.85884  0.29835  1.0000
  H   H355      1.0  0.87807  0.96717  0.36138  1.0000
  H   H356      1.0  0.01813  0.98066  0.20625  1.0000
  H   H357      1.0  0.04041  0.74947  0.23440  1.0000
  H   H358      1.0  0.99843  0.84381  0.26584  1.0000
  C   C221      1.0  0.84574  0.98678  0.27626  1.0000
  H   H359      1.0  0.96717  0.99727  0.24885  1.0000
  H   H360      1.0  0.80637  0.00351  0.19187  1.0000
  C   C222      1.0  0.12019  0.90096  0.21602  1.0000
  C   C223      1.0  0.87239  0.07130  0.29722  1.0000
  Fe  Fe42      1.0  0.98814  0.83817  0.37098  1.0000
  H   H361      1.0  0.02040  0.95745  0.27230  1.0000
  C   C224      1.0  0.12149  0.01822  0.26446  1.0000
  H   H362      1.0  0.08865  0.06920  0.33953  1.0000
  C   C225      1.0  0.01434  0.98963  0.24785  1.0000
  H   H363      1.0  0.11395  0.71157  0.30009  1.0000
  H   H364      1.0  0.96137  0.72558  0.22579  1.0000
  S   S84       1.0  0.82554  0.70106  0.20738  1.0000
  H   H365      1.0  0.06210  0.00827  0.34919  1.0000
  H   H366      1.0  0.13152  0.98725  0.28989  1.0000
  C   C226      1.0  0.83339  0.01671  0.24235  1.0000
  C   C227      1.0  0.87009  0.99938  0.32092  1.0000
  N   N22       1.0  0.01814  0.68808  0.28201  1.0000
  C   C228      1.0  0.04946  0.07203  0.23471  1.0000
  C   C229      1.0  0.05441  0.03941  0.32331  1.0000
  C   C230      1.0  0.06825  0.88326  0.22081  1.0000
  H   H367      1.0  0.06953  0.72635  0.34901  1.0000
  H   H368      1.0  0.91329  0.05471  0.38096  1.0000
  H   H369      1.0  0.83260  0.09217  0.21457  1.0000
  S   S85       1.0  0.82972  0.92633  0.26077  1.0000
  C   C231      1.0  0.84641  0.05905  0.25299  1.0000
  C   C232      1.0  0.05745  0.86268  0.26194  1.0000
  H   H370      1.0  0.99460  0.75818  0.28423  1.0000
  C   C233      1.0  0.07399  0.69871  0.32041  1.0000
  S   S86       1.0  0.89990  0.80918  0.32190  1.0000
  C   C234      1.0  0.88419  0.04145  0.33107  1.0000
  H   H371      1.0  0.02111  0.88640  0.18020  1.0000
  H   H372      1.0  0.08352  0.10289  0.24833  1.0000
  N   N23       1.0  0.05989  0.02983  0.26756  1.0000
  H   H373      1.0  0.12681  0.00962  0.22324  1.0000
  Fe  Fe43      1.0  0.87608  0.88294  0.32515  1.0000
  H   H374      1.0  0.00337  0.08182  0.23658  1.0000
  H   H375      1.0  0.95988  0.69163  0.34107  1.0000
  S   S87       1.0  0.08260  0.82935  0.35727  1.0000
  H   H376      1.0  0.05326  0.06590  0.19236  1.0000
  H   H377      1.0  0.00865  0.04860  0.32721  1.0000
  S   S88       1.0  0.96682  0.91205  0.36888  1.0000
  H   H378      1.0  0.06360  0.66936  0.21834  1.0000
  H   H379      1.0  0.08457  0.66704  0.34403  1.0000
  S   S89       1.0  0.13252  0.93130  0.15689  1.0000
  C   C235      1.0  0.93992  0.87665  0.64147  1.0000
  Fe  Fe44      1.0  0.86556  0.79758  0.40059  1.0000
  H   H380      1.0  0.10068  0.69987  0.61619  1.0000
  C   C236      1.0  0.87856  0.67418  0.43105  1.0000
  H   H381      1.0  0.09799  0.91963  0.43521  1.0000
  H   H382      1.0  0.81480  0.02173  0.41774  1.0000
  H   H383      1.0  0.01467  0.73268  0.56358  1.0000
  H   H384      1.0  0.94697  0.69430  0.53821  1.0000
  H   H385      1.0  0.91654  0.71006  0.41117  1.0000
  C   C237      1.0  0.82904  0.68193  0.44153  1.0000
  C   C238      1.0  0.11918  0.91653  0.54271  1.0000
  H   H386      1.0  0.07002  0.90876  0.52674  1.0000
  H   H387      1.0  0.01595  0.69279  0.51045  1.0000
  H   H388      1.0  0.04942  0.13819  0.64296  1.0000
  C   C239      1.0  0.82270  0.91265  0.52320  1.0000
  H   H389      1.0  0.84922  0.93070  0.64055  1.0000
  C   C240      1.0  0.08156  0.66464  0.59973  1.0000
  S   S90       1.0  0.93328  0.94548  0.50797  1.0000
  Fe  Fe45      1.0  0.92496  0.89336  0.44250  1.0000
  H   H390      1.0  0.89196  0.02449  0.54775  1.0000
  C   C241      1.0  0.86095  0.94796  0.52611  1.0000
  C   C242      1.0  0.84934  0.98473  0.54380  1.0000
  H   H391      1.0  0.94607  0.97067  0.62038  1.0000
  S   S91       1.0  0.83326  0.86840  0.39866  1.0000
  H   H392      1.0  0.12889  0.95499  0.55140  1.0000
  H   H393      1.0  0.83650  0.86998  0.50798  1.0000
  S   S92       1.0  0.95509  0.82188  0.44955  1.0000
  C   C243      1.0  0.99731  0.69667  0.54813  1.0000
  H   H394      1.0  0.91871  0.88413  0.60053  1.0000
  H   H395      1.0  0.12732  0.89773  0.58130  1.0000
  C   C244      1.0  0.98812  0.66605  0.63620  1.0000
  H   H396      1.0  0.09633  0.84162  0.47783  1.0000
  H   H397      1.0  0.98795  0.87177  0.63969  1.0000
  N   N24       1.0  0.01463  0.66016  0.58725  1.0000
  C   C245      1.0  0.26332  0.45669  0.83303  1.0000
  S   S93       1.0  0.18216  0.28734  0.80462  1.0000
  S   S94       1.0  0.28568  0.23105  0.76754  1.0000
  C   C246      1.0  0.32335  0.52072  0.84784  1.0000
  S   S95       1.0  0.14102  0.21485  0.66651  1.0000
  Fe  Fe46      1.0  0.23814  0.35339  0.78197  1.0000
  C   C247      1.0  0.38832  0.41870  0.69393  1.0000
  C   C248      1.0  0.32271  0.47747  0.70141  1.0000
  C   C249      1.0  0.27891  0.49803  0.82170  1.0000
  C   C250      1.0  0.40951  0.47156  0.76809  1.0000
  S   S96       1.0  0.20583  0.42261  0.79140  1.0000
  H   H398      1.0  0.41073  0.50801  0.78245  1.0000
  H   H399      1.0  0.24729  0.51918  0.77936  1.0000
  C   C251      1.0  0.29101  0.43842  0.87150  1.0000
  Fe  Fe47      1.0  0.27171  0.26697  0.84118  1.0000
  H   H400      1.0  0.22778  0.56691  0.87848  1.0000
  H   H401      1.0  0.22020  0.16812  0.84344  1.0000
  H   H402      1.0  0.31887  0.51351  0.71486  1.0000
  C   C252      1.0  0.44804  0.25197  0.70595  1.0000
  H   H403      1.0  0.23565  0.16440  0.67738  1.0000
  H   H404      1.0  0.36184  0.39258  0.71747  1.0000
  S   S97       1.0  0.17238  0.56848  0.70583  1.0000
  H   H405      1.0  0.29253  0.45201  0.72266  1.0000
  Fe  Fe48      1.0  0.20216  0.25878  0.72856  1.0000
  Fe  Fe49      1.0  0.44189  0.60255  0.88369  1.0000
  Fe  Fe50      1.0  0.33504  0.30049  0.74608  1.0000
  C   C253      1.0  0.42364  0.50099  0.68031  1.0000
  C   C254      1.0  0.44919  0.18097  0.73303  1.0000
  H   H406      1.0  0.40662  0.22961  0.78017  1.0000
  C   C255      1.0  0.43418  0.22038  0.73731  1.0000
  H   H407      1.0  0.38091  0.44753  0.79232  1.0000
  S   S98       1.0  0.32724  0.33465  0.82260  1.0000
  H   H408      1.0  0.34012  0.56701  0.83422  1.0000
  H   H409      1.0  0.42508  0.53770  0.69418  1.0000
  H   H410      1.0  0.43559  0.40985  0.69987  1.0000
  H   H411      1.0  0.30442  0.47497  0.65857  1.0000
  N   N25       1.0  0.38609  0.46724  0.71095  1.0000
  S   S99       1.0  0.41849  0.30578  0.70553  1.0000
  S   S100      1.0  0.25133  0.32644  0.70322  1.0000
  H   H412      1.0  0.27198  0.39291  0.88651  1.0000
  C   C256      1.0  0.35184  0.50203  0.88562  1.0000
  H   H413      1.0  0.45637  0.46219  0.77669  1.0000
  S   S101      1.0  0.45445  0.61155  0.79838  1.0000
  H   H414      1.0  0.36966  0.41308  0.65145  1.0000
  H   H415      1.0  0.47106  0.49304  0.68450  1.0000
  H   H416      1.0  0.20499  0.36380  0.99497  1.0000
  C   C257      1.0  0.21092  0.54695  0.91267  1.0000
  C   C258      1.0  0.27252  0.27473  0.05760  1.0000
  S   S102      1.0  0.34561  0.53414  0.09513  1.0000
  S   S103      1.0  0.28668  0.23414  0.92174  1.0000
  N   N26       1.0  0.23392  0.57126  0.96344  1.0000
  H   H417      1.0  0.16069  0.54242  0.90479  1.0000
  H   H418      1.0  0.31908  0.59589  0.93634  1.0000
  H   H419      1.0  0.22978  0.63783  0.99925  1.0000
  H   H420      1.0  0.38265  0.35820  0.05825  1.0000
  H   H421      1.0  0.36546  0.44046  0.94123  1.0000
  H   H422      1.0  0.22735  0.50623  0.00775  1.0000
  S   S104      1.0  0.24654  0.63340  0.11362  1.0000
  H   H423      1.0  0.39185  0.30009  0.95983  1.0000
  C   C259      1.0  0.26865  0.26586  0.97435  1.0000
  H   H424      1.0  0.45353  0.34725  0.09571  1.0000
  Fe  Fe51      1.0  0.14722  0.37524  0.09170  1.0000
  C   C260      1.0  0.24440  0.16594  0.13672  1.0000
  C   C261      1.0  0.24607  0.30953  0.04987  1.0000
  H   H425      1.0  0.31159  0.21287  0.02975  1.0000
  S   S105      1.0  0.23086  0.33937  0.10501  1.0000
  N   N27       1.0  0.45284  0.34914  0.01112  1.0000
  C   C262      1.0  0.24292  0.30124  0.96623  1.0000
  H   H426      1.0  0.31917  0.54395  0.97701  1.0000
  C   C263      1.0  0.40879  0.33842  0.96265  1.0000
  H   H427      1.0  0.28955  0.25962  0.10871  1.0000
  C   C264      1.0  0.30095  0.57824  0.97108  1.0000
  S   S106      1.0  0.41697  0.53282  0.92156  1.0000
  H   H428      1.0  0.16108  0.61347  0.95906  1.0000
  H   H429      1.0  0.16273  0.53715  0.00470  1.0000
  C   C265      1.0  0.28333  0.25273  0.02001  1.0000
  H   H430      1.0  0.36846  0.35727  0.96193  1.0000
  H   H431      1.0  0.22734  0.31705  0.91526  1.0000
  H   H432      1.0  0.40391  0.30009  0.06008  1.0000
  C   C266      1.0  0.42202  0.33814  0.05845  1.0000
  H   H433      1.0  0.22520  0.63953  0.92851  1.0000
  C   C267      1.0  0.21271  0.54190  0.00739  1.0000
  S   S107      1.0  0.14696  0.45345  0.09140  1.0000
  C   C268      1.0  0.33514  0.46113  0.89784  1.0000
  C   C269      1.0  0.23145  0.32310  0.00411  1.0000
  C   C270      1.0  0.32829  0.48946  0.14094  1.0000
  H   H434      1.0  0.31994  0.59988  0.00675  1.0000
  H   H435      1.0  0.23127  0.55762  0.04649  1.0000
  C   C271      1.0  0.21147  0.61753  0.96253  1.0000
  H   H436      1.0  0.45691  0.50985  0.05783  1.0000
  H   H437      1.0  0.44148  0.42242  0.01259  1.0000
  H   H438      1.0  0.42960  0.34837  0.92613  1.0000
  C   C272      1.0  0.16163  0.18204  0.09305  1.0000
  H   H439      1.0  0.39745  0.44983  0.11106  1.0000
  H   H440      1.0  0.44230  0.59346  0.05693  1.0000
  C   C273      1.0  0.15077  0.20211  0.13237  1.0000
  Fe  Fe52      1.0  0.33322  0.60236  0.13042  1.0000
  C   C274      1.0  0.20803  0.16325  0.09567  1.0000
  H   H441      1.0  0.22468  0.51109  0.91303  1.0000
  C   C275      1.0  0.35716  0.45578  0.14572  1.0000
  H   H442      1.0  0.18077  0.16471  0.90014  1.0000
  C   C276      1.0  0.31906  0.43439  0.21599  1.0000
  H   H443      1.0  0.35530  0.48849  0.34077  1.0000
  H   H444      1.0  0.27530  0.18886  0.22095  1.0000
  S   S108      1.0  0.34220  0.61226  0.21826  1.0000
  S   S109      1.0  0.16876  0.16853  0.37194  1.0000
  H   H445      1.0  0.40694  0.61273  0.37993  1.0000
  C   C277      1.0  0.18879  0.34375  0.25897  1.0000
  H   H446      1.0  0.16943  0.27833  0.33362  1.0000
  S   S110      1.0  0.17329  0.63048  0.23514  1.0000
  S   S111      1.0  0.16474  0.22218  0.23293  1.0000
  H   H447      1.0  0.38509  0.20137  0.27252  1.0000
  H   H448      1.0  0.23384  0.40534  0.33873  1.0000
  H   H449      1.0  0.42798  0.25797  0.28825  1.0000
  H   H450      1.0  0.25052  0.47442  0.24644  1.0000
  H   H451      1.0  0.45546  0.18235  0.15322  1.0000
  H   H452      1.0  0.44609  0.28697  0.17584  1.0000
  C   C278      1.0  0.40684  0.23420  0.25487  1.0000
  C   C279      1.0  0.35289  0.42846  0.18341  1.0000
  H   H453      1.0  0.37017  0.25156  0.23131  1.0000
  H   H454      1.0  0.38869  0.39265  0.19030  1.0000
  C   C280      1.0  0.29281  0.49452  0.17244  1.0000
  H   H455      1.0  0.22811  0.32333  0.26532  1.0000
  Fe  Fe53      1.0  0.21986  0.19653  0.30590  1.0000
  Fe  Fe54      1.0  0.25895  0.64838  0.20003  1.0000
  C   C281      1.0  0.28806  0.46685  0.20990  1.0000
  S   S112      1.0  0.28832  0.24572  0.35759  1.0000
  H   H456      1.0  0.25880  0.53146  0.16685  1.0000
  H   H457      1.0  0.38635  0.20816  0.15270  1.0000
  C   C282      1.0  0.42234  0.19177  0.17848  1.0000
  C   C283      1.0  0.15864  0.60120  0.32992  1.0000
  S   S113      1.0  0.32977  0.40642  0.27786  1.0000
  N   N28       1.0  0.45246  0.22354  0.22195  1.0000
  H   H458      1.0  0.20462  0.37815  0.24090  1.0000
  C   C284      1.0  0.23341  0.18565  0.17580  1.0000
  H   H459      1.0  0.15453  0.32429  0.22873  1.0000
  C   C285      1.0  0.18602  0.20270  0.17421  1.0000
  H   H460      1.0  0.33178  0.61391  0.34500  1.0000
  S   S114      1.0  0.47098  0.49182  0.25805  1.0000
  H   H461      1.0  0.41002  0.53937  0.33337  1.0000
  H   H462      1.0  0.33359  0.53748  0.30126  1.0000
  N   N29       1.0  0.16403  0.34986  0.30887  1.0000
  C   C286      1.0  0.36193  0.52755  0.33825  1.0000
  C   C287      1.0  0.18763  0.63078  0.30418  1.0000
  Fe  Fe55      1.0  0.42890  0.42783  0.29884  1.0000
  H   H463      1.0  0.25194  0.54460  0.35145  1.0000
  C   C288      1.0  0.21351  0.36961  0.35019  1.0000
  N   N30       1.0  0.34558  0.54883  0.38554  1.0000
  H   H464      1.0  0.25090  0.34730  0.35628  1.0000
  C   C289      1.0  0.35782  0.60068  0.38150  1.0000
  Fe  Fe56      1.0  0.34286  0.18510  0.37091  1.0000
  H   H465      1.0  0.19710  0.37263  0.38906  1.0000
  C   C290      1.0  0.28042  0.53444  0.38827  1.0000
  S   S115      1.0  0.44392  0.18513  0.37897  1.0000
  C   C291      1.0  0.16699  0.60258  0.37878  1.0000
  H   H466      1.0  0.27002  0.49562  0.39321  1.0000
  H   H467      1.0  0.13802  0.41776  0.28648  1.0000
  H   H468      1.0  0.38946  0.64613  0.64600  1.0000
  S   S116      1.0  0.18559  0.49299  0.48555  1.0000
  C   C292      1.0  0.42003  0.64044  0.61656  1.0000
  H   H469      1.0  0.43667  0.60594  0.62562  1.0000
  C   C293      1.0  0.25388  0.30758  0.50994  1.0000
  H   H470      1.0  0.19621  0.30581  0.57650  1.0000
  H   H471      1.0  0.46177  0.36398  0.51295  1.0000
  S   S117      1.0  0.17736  0.46337  0.60993  1.0000
  N   N31       1.0  0.28384  0.16146  0.61084  1.0000
  C   C294      1.0  0.26317  0.36795  0.55909  1.0000
  H   H472      1.0  0.44893  0.34224  0.57778  1.0000
  H   H473      1.0  0.34487  0.61810  0.41604  1.0000
  H   H474      1.0  0.43135  0.54303  0.43324  1.0000
  S   S118      1.0  0.21341  0.25230  0.49062  1.0000
  C   C295      1.0  0.31837  0.36751  0.49782  1.0000
  H   H475      1.0  0.31255  0.30484  0.44477  1.0000
  H   H476      1.0  0.37006  0.54804  0.47027  1.0000
  S   S119      1.0  0.26318  0.55914  0.58340  1.0000
  H   H477      1.0  0.40576  0.49961  0.63724  1.0000
  S   S120      1.0  0.21737  0.63623  0.47070  1.0000
  H   H478      1.0  0.31155  0.22529  0.56936  1.0000
  H   H479      1.0  0.37373  0.49362  0.43838  1.0000
  Fe  Fe57      1.0  0.18310  0.54019  0.62683  1.0000
  H   H480      1.0  0.26178  0.23170  0.61717  1.0000
  C   C296      1.0  0.30221  0.38805  0.53420  1.0000
  C   C297      1.0  0.38183  0.53264  0.43398  1.0000
  S   S121      1.0  0.33089  0.44723  0.54794  1.0000
  C   C298      1.0  0.23926  0.32782  0.54719  1.0000
  C   C299      1.0  0.30005  0.21318  0.60898  1.0000
  H   H481      1.0  0.33989  0.22536  0.63886  1.0000
  Fe  Fe58      1.0  0.24130  0.21391  0.42445  1.0000
  H   H482      1.0  0.36170  0.38995  0.46904  1.0000
  H   H483      1.0  0.24663  0.38956  0.60151  1.0000
  H   H484      1.0  0.26596  0.55156  0.42222  1.0000
  Fe  Fe59      1.0  0.19443  0.56811  0.51252  1.0000
  C   C300      1.0  0.29416  0.32716  0.48568  1.0000
  Fe  Fe60      1.0  0.25081  0.48363  0.55901  1.0000
  H   H485      1.0  0.39163  0.63795  0.57687  1.0000
  H   H486      1.0  0.18905  0.16285  0.58338  1.0000
  H   H487      1.0  0.40731  0.27401  0.39801  1.0000
  C   C301      1.0  0.46907  0.27440  0.40149  1.0000
  C   C302      1.0  0.20390  0.63376  0.40161  1.0000
  Fe  Fe61      1.0  0.41383  0.67829  0.80101  1.0000
  H   H488      1.0  0.40928  0.80395  0.86250  1.0000
  C   C303      1.0  0.18582  0.14580  0.86376  1.0000
  Fe  Fe62      1.0  0.42087  0.95171  0.73572  1.0000
  S   S122      1.0  0.34112  0.06269  0.73512  1.0000
  C   C304      1.0  0.19104  0.91650  0.87525  1.0000
  H   H489      1.0  0.29172  0.73706  0.87669  1.0000
  S   S123      1.0  0.32309  0.94750  0.74662  1.0000
  N   N32       1.0  0.20496  0.09929  0.87756  1.0000
  C   C305      1.0  0.17414  0.00607  0.66231  1.0000
  C   C306      1.0  0.17917  0.72583  0.72647  1.0000
  C   C307      1.0  0.20695  0.73881  0.68937  1.0000
  H   H490      1.0  0.24355  0.79307  0.81252  1.0000
  S   S124      1.0  0.36028  0.70170  0.72697  1.0000
  C   C308      1.0  0.14312  0.03804  0.66613  1.0000
  C   C309      1.0  0.20438  0.70561  0.76489  1.0000
  Fe  Fe63      1.0  0.43602  0.05886  0.71982  1.0000
  H   H491      1.0  0.17307  0.68991  0.80618  1.0000
  C   C310      1.0  0.46427  0.91081  0.85622  1.0000
  H   H492      1.0  0.22458  0.82332  0.86769  1.0000
  C   C311      1.0  0.27226  0.14687  0.66482  1.0000
  H   H493      1.0  0.14198  0.14263  0.83686  1.0000
  H   H494      1.0  0.40919  0.92433  0.83526  1.0000
  H   H495      1.0  0.43146  0.14556  0.76736  1.0000
  S   S125      1.0  0.41014  0.99850  0.66358  1.0000
  H   H496      1.0  0.35104  0.77794  0.81181  1.0000
  S   S126      1.0  0.39291  0.66577  0.88404  1.0000
  Fe  Fe64      1.0  0.31511  0.00092  0.68057  1.0000
  H   H497      1.0  0.25732  0.10837  0.66684  1.0000
  C   C312      1.0  0.23306  0.94529  0.86232  1.0000
  C   C313      1.0  0.25956  0.73145  0.69020  1.0000
  C   C314      1.0  0.36434  0.80836  0.83927  1.0000
  H   H498      1.0  0.16970  0.07368  0.79928  1.0000
  C   C315      1.0  0.16934  0.97148  0.69129  1.0000
  H   H499      1.0  0.20232  0.93488  0.68658  1.0000
  C   C316      1.0  0.28496  0.71107  0.72812  1.0000
  C   C317      1.0  0.25751  0.69803  0.76563  1.0000
  H   H500      1.0  0.22049  0.03857  0.83640  1.0000
  H   H501      1.0  0.26675  0.85517  0.82023  1.0000
  H   H502      1.0  0.37097  0.84040  0.81411  1.0000
  H   H503      1.0  0.24984  0.09377  0.80906  1.0000
  Fe  Fe65      1.0  0.35566  0.00923  0.79937  1.0000
  H   H504      1.0  0.23315  0.95776  0.80978  1.0000
  C   C318      1.0  0.21174  0.07540  0.82841  1.0000
  C   C319      1.0  0.26062  0.82121  0.84227  1.0000
  N   N33       1.0  0.31804  0.81190  0.87444  1.0000
  S   S127      1.0  0.45385  0.01246  0.79030  1.0000
  H   H505      1.0  0.34472  0.88542  0.89210  1.0000
  S   S128      1.0  0.33097  0.00802  0.88139  1.0000
  H   H506      1.0  0.30116  0.12278  0.89242  1.0000
  H   H507      1.0  0.14567  0.89601  0.83741  1.0000
  H   H508      1.0  0.28459  0.67319  0.80727  1.0000
  H   H509      1.0  0.31359  0.15581  0.69436  1.0000
  H   H510      1.0  0.28994  0.74649  0.64808  1.0000
  H   H511      1.0  0.17997  0.76258  0.64663  1.0000
  H   H512      1.0  0.38421  0.84604  0.93580  1.0000
  C   C320      1.0  0.31201  0.80720  0.05222  1.0000
  C   C321      1.0  0.15015  0.74270  0.12838  1.0000
  H   H513      1.0  0.42472  0.08903  0.02088  1.0000
  S   S129      1.0  0.24233  0.99373  0.07024  1.0000
  H   H514      1.0  0.26152  0.12852  0.94748  1.0000
  S   S130      1.0  0.27228  0.75044  0.04115  1.0000
  S   S131      1.0  0.21843  0.12583  0.04529  1.0000
  H   H515      1.0  0.45048  0.86729  0.03850  1.0000
  C   C322      1.0  0.28677  0.83806  0.06878  1.0000
  H   H516      1.0  0.22645  0.91335  0.00853  1.0000
  S   S132      1.0  0.40283  0.94547  0.07702  1.0000
  Fe  Fe66      1.0  0.33858  0.98902  0.10616  1.0000
  C   C323      1.0  0.36472  0.81636  0.04318  1.0000
  H   H517      1.0  0.16058  0.70698  0.11984  1.0000
  H   H518      1.0  0.27261  0.76866  0.93060  1.0000
  H   H519      1.0  0.39678  0.03833  0.98062  1.0000
  C   C324      1.0  0.27023  0.95393  0.94363  1.0000
  H   H520      1.0  0.35004  0.75967  0.92935  1.0000
  S   S133      1.0  0.39064  0.67031  0.11577  1.0000
  C   C325      1.0  0.42762  0.07232  0.98256  1.0000
  C   C326      1.0  0.22846  0.92546  0.95611  1.0000
  H   H521      1.0  0.27577  0.07157  0.93000  1.0000
  H   H522      1.0  0.31476  0.97352  0.98281  1.0000
  H   H523      1.0  0.28432  0.91052  0.09716  1.0000
  H   H524      1.0  0.40946  0.09521  0.94985  1.0000
  Fe  Fe67      1.0  0.30416  0.70226  0.10619  1.0000
  H   H525      1.0  0.17213  0.03533  0.91596  1.0000
  C   C327      1.0  0.36617  0.88755  0.06716  1.0000
  C   C328      1.0  0.39199  0.85677  0.05050  1.0000
  C   C329      1.0  0.31394  0.87775  0.07679  1.0000
  H   H526      1.0  0.29734  0.14610  0.13978  1.0000
  C   C330      1.0  0.27263  0.96420  0.89684  1.0000
  H   H527      1.0  0.30684  0.85281  0.94126  1.0000
  H   H528      1.0  0.46139  0.01347  0.91651  1.0000
  C   C331      1.0  0.26349  0.10569  0.91323  1.0000
  H   H529      1.0  0.15183  0.08800  0.94185  1.0000
  H   H530      1.0  0.22737  0.82974  0.07800  1.0000
  H   H531      1.0  0.15141  0.78194  0.02964  1.0000
  H   H532      1.0  0.39239  0.78219  0.02263  1.0000
  Fe  Fe68      1.0  0.26055  0.06927  0.09269  1.0000
  H   H533      1.0  0.19203  0.76759  0.12568  1.0000
  H   H534      1.0  0.44565  0.93419  0.93580  1.0000
  C   C332      1.0  0.18884  0.90704  0.92225  1.0000
  S   S134      1.0  0.35956  0.06672  0.11998  1.0000
  C   C333      1.0  0.30763  0.76723  0.90401  1.0000
  C   C334      1.0  0.33944  0.85072  0.91250  1.0000
  C   C335      1.0  0.15853  0.07065  0.90478  1.0000
  H   H535      1.0  0.40186  0.03117  0.36454  1.0000
  H   H536      1.0  0.27618  0.96744  0.36373  1.0000
  H   H537      1.0  0.38627  0.68774  0.30973  1.0000
  N   N34       1.0  0.40754  0.86080  0.23842  1.0000
  H   H538      1.0  0.41346  0.79438  0.27850  1.0000
  H   H539      1.0  0.25703  0.69534  0.29867  1.0000
  C   C336      1.0  0.34960  0.84332  0.20546  1.0000
  C   C337      1.0  0.44155  0.04314  0.28796  1.0000
  C   C338      1.0  0.44067  0.82068  0.25550  1.0000
  C   C339      1.0  0.39509  0.88473  0.28569  1.0000
  S   S135      1.0  0.38805  0.08155  0.26959  1.0000
  H   H540      1.0  0.14082  0.74259  0.17014  1.0000
  Fe  Fe69      1.0  0.39323  0.68281  0.20278  1.0000
  C   C340      1.0  0.15109  0.87611  0.29356  1.0000
  H   H541      1.0  0.45281  0.87751  0.16989  1.0000
  H   H542      1.0  0.37319  0.91685  0.27477  1.0000
  H   H543      1.0  0.15719  0.04806  0.27796  1.0000
  C   C341      1.0  0.44093  0.71827  0.38566  1.0000
  S   S136      1.0  0.31484  0.97132  0.18731  1.0000
  H   H544      1.0  0.31961  0.81911  0.22829  1.0000
  H   H545      1.0  0.22024  0.91762  0.24778  1.0000
  S   S137      1.0  0.20603  0.03625  0.39128  1.0000
  C   C342      1.0  0.23251  0.66340  0.37575  1.0000
  C   C343      1.0  0.44498  0.89400  0.20704  1.0000
  H   H546      1.0  0.45156  0.80214  0.22086  1.0000
  S   S138      1.0  0.23149  0.05601  0.17300  1.0000
  S   S139      1.0  0.31043  0.72017  0.19201  1.0000
  Fe  Fe70      1.0  0.23191  0.11390  0.38286  1.0000
  C   C344      1.0  0.16178  0.89753  0.25239  1.0000
  H   H547      1.0  0.19786  0.87247  0.33433  1.0000
  Fe  Fe71      1.0  0.32946  0.04925  0.19880  1.0000
  S   S140      1.0  0.27795  0.13828  0.31328  1.0000
  H   H548      1.0  0.42285  0.92579  0.19505  1.0000
  C   C345      1.0  0.22475  0.66166  0.32708  1.0000
  C   C346      1.0  0.43914  0.70971  0.33805  1.0000
  Fe  Fe72      1.0  0.21957  0.97964  0.15253  1.0000
  H   H549      1.0  0.35754  0.82387  0.17031  1.0000
  C   C347      1.0  0.44229  0.02285  0.33084  1.0000
  H   H550      1.0  0.36501  0.86108  0.30905  1.0000
  H   H551      1.0  0.43770  0.89595  0.31266  1.0000
  H   H552      1.0  0.32413  0.87267  0.19047  1.0000
  H   H553      1.0  0.40032  0.15826  0.19451  1.0000
  H   H554      1.0  0.36568  0.93593  0.42437  1.0000
  C   C348      1.0  0.14476  0.85189  0.49463  1.0000
  H   H555      1.0  0.15455  0.83108  0.53159  1.0000
  H   H556      1.0  0.45491  0.06933  0.56182  1.0000
  H   H557      1.0  0.25351  0.90553  0.49993  1.0000
  H   H558      1.0  0.17263  0.84107  0.46525  1.0000
  C   C349      1.0  0.29404  0.98507  0.41430  1.0000
  C   C350      1.0  0.33689  0.97037  0.44298  1.0000
  C   C351      1.0  0.28429  0.03144  0.47558  1.0000
  H   H559      1.0  0.34380  0.14742  0.55619  1.0000
  H   H560      1.0  0.27372  0.69875  0.40105  1.0000
  H   H561      1.0  0.32383  0.09917  0.59966  1.0000
  C   C352      1.0  0.14570  0.92905  0.45441  1.0000
  H   H562      1.0  0.42103  0.08152  0.46426  1.0000
  H   H563      1.0  0.25388  0.06437  0.49529  1.0000
  N   N35       1.0  0.15802  0.90305  0.50479  1.0000
  H   H564      1.0  0.15336  0.96778  0.46102  1.0000
  C   C353      1.0  0.35269  0.98593  0.48812  1.0000
  H   H565      1.0  0.38998  0.70602  0.41017  1.0000
  C   C354      1.0  0.22856  0.14721  0.57283  1.0000
  H   H566      1.0  0.23368  0.89659  0.56580  1.0000
  H   H567      1.0  0.23410  0.95332  0.53514  1.0000
  C   C355      1.0  0.22259  0.91495  0.52735  1.0000
  C   C356      1.0  0.26788  0.01570  0.43075  1.0000
  H   H568      1.0  0.17576  0.92129  0.42538  1.0000
  H   H569      1.0  0.34201  0.03254  0.55558  1.0000
  C   C357      1.0  0.33442  0.13820  0.59710  1.0000
  C   C358      1.0  0.32633  0.01642  0.50426  1.0000
  H   H570      1.0  0.41717  0.73261  0.63363  1.0000
  S   S141      1.0  0.41028  0.96412  0.53192  1.0000
  H   H571      1.0  0.45015  0.14998  0.52030  1.0000
  H   H572      1.0  0.21642  0.10821  0.57190  1.0000
  S   S142      1.0  0.23251  0.01246  0.62274  1.0000
  N   N36       1.0  0.47104  0.67911  0.61791  1.0000
  H   H573      1.0  0.41918  0.72281  0.56451  1.0000
  S   S143      1.0  0.46242  0.87579  0.43120  1.0000
  H   H574      1.0  0.14776  0.07734  0.63388  1.0000
  H   H575      1.0  0.37694  0.14865  0.62470  1.0000
  H   H576      1.0  0.23483  0.15912  0.53194  1.0000
  C   C359      1.0  0.44677  0.72408  0.60455  1.0000
  S   S144      1.0  0.30020  0.15671  0.44118  1.0000
  C   C360      1.0  0.46941  0.08028  0.45975  1.0000
