data_image0
_chemical_formula_structural       HFeH7CH5FeCSH2C2FeH2NHC2Fe2H2C3S2HC2HFeHSC2H2SCH2SH2CHCH3FeHCHCS2CH3SNC2H7SNH5SCH5SH3NH2CFeH3C3SC3FeSH3CHSHSC3HFeH3SCHNHC2H3C2SCHCH2C2HSFeHCH3CHC2HS2HSH5C4SFeH2S2H2SFeH2S2NFeHCS2C3H2CH2CHFeH2NH2CHC2HC2SFeHCH5CHC2Fe2H2Fe2HSHCSCHC2H2CH2S2CHCH2CSHSH2C2SH5SHS2HS2CNC2H2FeCH2CH3C2H2C2H2NSCSHCSC2HC2H2NC2HFeSHC5HCHFeH2FeSCHC2FeC2HFeHCH4CHCHCH2NH2CHCS2C2SHCH3FeCH4C2SCSH3CH3CHCHCHNHSCHSCHCH7CSH8C2HCHCHC2H2CH2FeNCHFeCHNH5C2HC2FeSHCHSH3CH2C3H3NH2CH2SNC2SH2SH2CHCHFeHCH3C2H3C3HSNH3FeHCH2CHCH3CH2SCHSCH2SC2SHCHCHC3HCNSHFeC2SH3CHC3SC3HSH2C3HFeHFeSHFeH2SH2FeCSHCH2CHCSH4SH2CHCSH3C2H2CHCNHNHCSH2SHCSH2FeHFeH2C2HS2H4C3H4S2HCNFeHFeCH5CHC2FeH4NCH5CH2CH3CHC2HC2H2C2FeH3NSCH2CHFeH4C7S2CH2CHC2HCNHC3H2CS2HC2HC2HCH4CH9SHC2SH2CHC3HCHSHFeCHSH4CHCHFeC2H4FeSHFeHC2FeH2C2HFeHCFeH2FeCSCNCH4CFeCH4S2H2CH2SHS2HCS2CNSH4C2SHSHSC2SHCHCSH2CHCHC2H2C3NFeC2FeCFeH2CH2SHFeHSCNH2SH2CNC2HCSH3FeSHC3NSHC2SHC2HSH4CHCFeH4CH2SHFeCFeH3CH3CH3CNC2HSCH2CH3CH2S2CSC2H4SCHC2SHCSH5C2HC2H3CHSC2SH3C2SC2H2SHCHCNH2NHCHFeCHC2HCSCSH3CHCSCSCHCSCHSH2CH2SC4HNHSH3CH2SFeH10FeHFeCH3C3HC3H3CH7S2CHFeCH3FeHSC3HC3FeCHC2S2CH2C2HCHCHSHS2CHCH4C2H4CHSNSCH3CSCHCHSHCHSFeHFeHSH3NSHCHFeSCHSCFeC2HFeHFeC2H4FeCH3CH2CH5CHCFe2CSCH4CSH2CH2SHC2H2C3HCHCHFeC2HC2HCH2C2S2H2C2HC2H2NH2C3SHSHFeNCHFeH2S2FeCH5SH2CFeSH2SCH2CH7CH4CNC2HC3H2NH2C3FeHNCH3C2H2C2HCHNH3SHFeCH2CH2FeC3HCHC2HCH2FeSH4SCSCSC2H5SH2CH2CHCSH3C2HCH2SHSHSCHS2C2FeC2H3CHS3HFeC3HFe3CH2FeCH3CSCH2C3FeHCHCHSH2CHNHSHFeSCFeHSHS2FeHCH2SCFeCH3SH5SFeCH2CH2SH4SHCHC3H2CHNC2H2FeH2CH3C2HCHCFeSHCSH4C2NHCHC2H3SH5CFeSH3CHCH5SHC3HCH3CHCH3FeHSCHNH2C6H3CH3C2HCHNH2NHCH2CHCNSCSCFeSCH2S2H2C2HC2NHFeHCHCSHCHCHCH3C2H3C4H2CSCSCHS2CSCH4C2FeS2H3C2SFeSCH2NH2CH2CH4NH2SHCH2FeCSH3SFeHC2Fe2NH4CH2SHCHC2HFe3HC2H2FeCH2CHCH2SCHNC3NHCH4CHC2HSH2CH3SHFeCH6CH4SH2SC2HCSCH3CH3SH7C3NSFeHCH2S2CH2CH3CHSHCH2S2H3FeHCSCH2C2HCH2C4H2FeC2H3C3HCH2CH5N2CH2CHCH2SHSH2CH2SH3SH4CNHCHSCFeHCHCH3C4H2CFeHC2NC2NH4SC2HCNSH3FeC2HSHC2H2C2NHNHSHCSCFeCH6S2CFeH2CSHSHFeHSH2C2HFeHCH4FeS2H3SH6CH3FeSHSC2H2C2NCHS2H2C4FeCFeSCSFeCFeS2H3CHCH2CH2C2SH2FeH2CH2SH2CFeH3NC2SHS2HCHSCH4NCH2FeCNHC5SH2CH2CHC3FeHC2HCHFeC3HSCH2CHFeHCH2CH3CHCHNC2H7C3SH2CH4CSHS2HSH3S3HCHCFeH2FeH3CSH2SCH2FeSCHSCSHSH4CHCHCHSC2H2CFeCHC2H2C2H2CH3SH2SCHC5HC2HNHC3SCHSHSHFeSFeCHFeH4NH2CHCH3S2CH4SHS2HCHCFeH2CHCFeSC2FeHSH7C3H2C2NS2CFeCSH3FeSHC2SHC2HNH2CNH3S2CHCH2CH4SCH2SHC2HFeHCH2SCH2CSCSHCSC3HC2H9CFeH3SH2SCFeHC2HC2FeCHCHCSH2C2H4C3NHCHC2FeC2H6NC3HSHC2SH5SH4FeC3HCFeHCSHCHFeSH2NCHSHFeH3NHFeCHCH2SH4CHSHC2FeH2SH2C2H2CH2SHSCHCHCHNHCHNH3
_chemical_formula_sum              "H1280 Fe160 C800 S320 N80"
_cell_length_a       41.8215
_cell_length_b       40.83
_cell_length_c       23.0498
_cell_angle_alpha    83.119
_cell_angle_beta     80.4485
_cell_angle_gamma    87.1657

_space_group_name_H-M_alt    "P 1"
_space_group_IT_number       1

loop_
  _space_group_symop_operation_xyz
  'x, y, z'

loop_
  _atom_site_type_symbol
  _atom_site_label
  _atom_site_symmetry_multiplicity
  _atom_site_fract_x
  _atom_site_fract_y
  _atom_site_fract_z
  _atom_site_occupancy
  H   H1        1.0  0.21561  0.28198  0.83563  1.0000
  Fe  Fe1       1.0  0.09140  0.34564  0.97885  1.0000
  H   H2        1.0  0.08468  0.57195  0.89157  1.0000
  H   H3        1.0  0.18085  0.33132  0.81163  1.0000
  H   H4        1.0  0.24968  0.46026  0.89683  1.0000
  H   H5        1.0  0.13051  0.26608  0.90464  1.0000
  H   H6        1.0  0.25712  0.57518  0.94548  1.0000
  H   H7        1.0  0.29801  0.41332  0.81812  1.0000
  H   H8        1.0  0.09912  0.56466  0.78572  1.0000
  C   C1        1.0  0.34526  0.36760  0.83209  1.0000
  H   H9        1.0  0.09574  0.46385  0.97368  1.0000
  H   H10       1.0  0.24270  0.41910  0.88203  1.0000
  H   H11       1.0  0.35505  0.50133  0.93996  1.0000
  H   H12       1.0  0.28622  0.36784  0.89978  1.0000
  H   H13       1.0  0.17713  0.41118  0.96094  1.0000
  Fe  Fe2       1.0  0.21188  0.56277  0.88089  1.0000
  C   C2        1.0  0.07933  0.28390  0.73881  1.0000
  S   S1        1.0  0.25639  0.53170  0.85602  1.0000
  H   H14       1.0  0.21060  0.44298  0.80551  1.0000
  H   H15       1.0  0.17633  0.47021  0.82470  1.0000
  C   C3        1.0  0.28457  0.28639  0.76696  1.0000
  C   C4        1.0  0.27286  0.31472  0.79353  1.0000
  Fe  Fe3       1.0  0.19832  0.39051  0.74282  1.0000
  H   H16       1.0  0.25950  0.58950  0.75898  1.0000
  H   H17       1.0  0.36461  0.37860  0.79718  1.0000
  N   N1        1.0  0.33198  0.39166  0.87357  1.0000
  H   H18       1.0  0.29660  0.39327  0.95240  1.0000
  C   C5        1.0  0.27825  0.55885  0.94448  1.0000
  C   C6        1.0  0.15915  0.31690  0.83176  1.0000
  Fe  Fe4       1.0  0.14197  0.56145  0.94215  1.0000
  Fe  Fe5       1.0  0.38691  0.24522  0.78606  1.0000
  H   H19       1.0  0.37791  0.41427  0.86839  1.0000
  H   H20       1.0  0.35628  0.34543  0.85530  1.0000
  C   C7        1.0  0.33350  0.51717  0.94176  1.0000
  C   C8        1.0  0.23282  0.43932  0.90877  1.0000
  C   C9        1.0  0.13604  0.26313  0.85654  1.0000
  S   S2        1.0  0.18843  0.56775  0.97436  1.0000
  S   S3        1.0  0.39962  0.44506  0.73403  1.0000
  H   H21       1.0  0.16308  0.48555  0.92595  1.0000
  C   C10       1.0  0.18743  0.47622  0.93473  1.0000
  C   C11       1.0  0.31208  0.51522  0.90157  1.0000
  H   H22       1.0  0.29636  0.26682  0.79188  1.0000
  Fe  Fe6       1.0  0.16118  0.60666  0.82716  1.0000
  H   H23       1.0  0.15297  0.42835  0.90653  1.0000
  S   S4        1.0  0.09422  0.13895  0.75034  1.0000
  C   C12       1.0  0.25638  0.33960  0.76219  1.0000
  C   C13       1.0  0.17824  0.42132  0.91363  1.0000
  H   H24       1.0  0.19749  0.24251  0.85748  1.0000
  H   H25       1.0  0.17721  0.24868  0.75970  1.0000
  S   S5        1.0  0.14951  0.40961  0.78230  1.0000
  C   C14       1.0  0.17282  0.27539  0.76465  1.0000
  H   H26       1.0  0.18869  0.27485  0.90458  1.0000
  H   H27       1.0  0.20373  0.49754  0.92568  1.0000
  S   S6        1.0  0.16567  0.55205  0.85088  1.0000
  H   H28       1.0  0.15262  0.32217  0.87851  1.0000
  H   H29       1.0  0.19489  0.28855  0.74164  1.0000
  C   C15       1.0  0.28422  0.53574  0.90350  1.0000
  H   H30       1.0  0.31717  0.49800  0.86882  1.0000
  C   C16       1.0  0.20088  0.46221  0.83466  1.0000
  H   H31       1.0  0.31660  0.35399  0.94483  1.0000
  H   H32       1.0  0.07794  0.42361  0.79958  1.0000
  H   H33       1.0  0.34929  0.42068  0.93349  1.0000
  Fe  Fe7       1.0  0.37180  0.17318  0.78510  1.0000
  H   H34       1.0  0.21671  0.48386  0.82148  1.0000
  C   C17       1.0  0.07568  0.51225  0.85914  1.0000
  H   H35       1.0  0.23292  0.43024  0.95627  1.0000
  C   C18       1.0  0.30665  0.37601  0.91951  1.0000
  S   S7        1.0  0.36310  0.12334  0.83620  1.0000
  S   S8        1.0  0.23714  0.37263  0.79708  1.0000
  C   C19       1.0  0.19299  0.26960  0.85761  1.0000
  H   H36       1.0  0.32607  0.35893  0.80992  1.0000
  H   H37       1.0  0.27540  0.31661  0.83895  1.0000
  H   H38       1.0  0.30740  0.43914  0.87091  1.0000
  S   S9        1.0  0.09110  0.37134  0.88855  1.0000
  N   N2        1.0  0.19982  0.44974  0.89788  1.0000
  C   C20       1.0  0.31769  0.42057  0.84081  1.0000
  C   C21       1.0  0.35833  0.40245  0.90181  1.0000
  H   H39       1.0  0.18676  0.40087  0.88644  1.0000
  H   H40       1.0  0.33614  0.43333  0.80626  1.0000
  H   H41       1.0  0.13924  0.23622  0.85259  1.0000
  H   H42       1.0  0.36971  0.38137  0.92713  1.0000
  H   H43       1.0  0.10135  0.51657  0.86236  1.0000
  H   H44       1.0  0.11442  0.27233  0.83639  1.0000
  H   H45       1.0  0.13863  0.32670  0.80886  1.0000
  S   S10       1.0  0.34105  0.21701  0.81212  1.0000
  N   N3        1.0  0.16525  0.28123  0.82761  1.0000
  H   H46       1.0  0.20842  0.57481  0.73583  1.0000
  H   H47       1.0  0.15257  0.28424  0.74050  1.0000
  H   H48       1.0  0.07747  0.23144  0.73926  1.0000
  H   H49       1.0  0.07288  0.54292  0.75065  1.0000
  H   H50       1.0  0.07620  0.49523  0.82466  1.0000
  S   S11       1.0  0.08662  0.34913  0.74380  1.0000
  C   C22       1.0  0.07321  0.55931  0.78587  1.0000
  H   H51       1.0  0.35166  0.12266  0.97717  1.0000
  H   H52       1.0  0.36730  0.31041  0.97092  1.0000
  H   H53       1.0  0.32198  0.58758  0.13873  1.0000
  H   H54       1.0  0.29452  0.57819  0.01702  1.0000
  H   H55       1.0  0.29694  0.31517  0.08277  1.0000
  S   S12       1.0  0.14371  0.39349  0.12478  1.0000
  H   H56       1.0  0.09625  0.57053  0.19882  1.0000
  H   H57       1.0  0.38616  0.32701  0.08732  1.0000
  H   H58       1.0  0.09437  0.55846  0.12710  1.0000
  N   N4        1.0  0.11365  0.60642  0.12628  1.0000
  H   H59       1.0  0.30883  0.57113  0.21405  1.0000
  H   H60       1.0  0.40125  0.34546  0.01369  1.0000
  C   C23       1.0  0.39035  0.12906  0.22689  1.0000
  Fe  Fe8       1.0  0.12722  0.28835  0.03889  1.0000
  H   H61       1.0  0.27931  0.27990  0.17682  1.0000
  H   H62       1.0  0.25791  0.60060  0.11237  1.0000
  H   H63       1.0  0.33314  0.13513  0.04734  1.0000
  C   C24       1.0  0.17407  0.18863  0.19650  1.0000
  C   C25       1.0  0.13649  0.49156  0.07341  1.0000
  C   C26       1.0  0.31808  0.35145  0.12430  1.0000
  S   S13       1.0  0.16195  0.24610  0.01973  1.0000
  C   C27       1.0  0.17776  0.27591  0.19820  1.0000
  C   C28       1.0  0.11781  0.49259  0.02809  1.0000
  C   C29       1.0  0.30183  0.32229  0.12407  1.0000
  Fe  Fe9       1.0  0.36790  0.49179  0.06905  1.0000
  S   S14       1.0  0.14122  0.33958  0.00177  1.0000
  H   H64       1.0  0.33536  0.38351  0.17927  1.0000
  H   H65       1.0  0.14288  0.51418  0.08806  1.0000
  H   H66       1.0  0.35105  0.29198  0.04401  1.0000
  C   C30       1.0  0.37599  0.15635  0.19734  1.0000
  H   H67       1.0  0.18549  0.46741  0.98271  1.0000
  S   S15       1.0  0.39123  0.45284  0.01410  1.0000
  H   H68       1.0  0.12292  0.19842  0.22289  1.0000
  S   S16       1.0  0.10869  0.30316  0.12902  1.0000
  C   C31       1.0  0.37108  0.29014  0.00615  1.0000
  C   C32       1.0  0.32923  0.57074  0.17626  1.0000
  C   C33       1.0  0.32728  0.54005  0.98317  1.0000
  H   H69       1.0  0.11392  0.41050  0.02073  1.0000
  Fe  Fe10      1.0  0.37239  0.44903  0.18579  1.0000
  H   H70       1.0  0.38855  0.26729  0.11224  1.0000
  H   H71       1.0  0.37916  0.59822  0.10220  1.0000
  H   H72       1.0  0.22370  0.18076  0.15636  1.0000
  S   S17       1.0  0.26634  0.21261  0.21344  1.0000
  C   C34       1.0  0.11969  0.43289  0.03658  1.0000
  H   H73       1.0  0.37398  0.20934  0.18040  1.0000
  N   N5        1.0  0.35993  0.58066  0.19216  1.0000
  H   H74       1.0  0.15939  0.46011  0.13789  1.0000
  C   C35       1.0  0.29192  0.30221  0.17739  1.0000
  C   C36       1.0  0.32353  0.36081  0.17815  1.0000
  H   H75       1.0  0.15411  0.58398  0.16464  1.0000
  H   H76       1.0  0.10650  0.59796  0.03923  1.0000
  H   H77       1.0  0.15126  0.57265  0.09293  1.0000
  C   C37       1.0  0.13906  0.21731  0.13166  1.0000
  C   C38       1.0  0.38513  0.18811  0.20289  1.0000
  S   S18       1.0  0.39712  0.40713  0.13931  1.0000
  C   C39       1.0  0.33276  0.11625  0.01633  1.0000
  H   H78       1.0  0.18877  0.47153  0.22232  1.0000
  C   C40       1.0  0.29971  0.56091  0.98442  1.0000
  H   H79       1.0  0.11546  0.22770  0.12502  1.0000
  H   H80       1.0  0.22028  0.60685  0.03919  1.0000
  C   C41       1.0  0.19584  0.20713  0.09428  1.0000
  C   C42       1.0  0.14324  0.20062  0.18690  1.0000
  H   H81       1.0  0.39013  0.55639  0.12462  1.0000
  S   S19       1.0  0.33364  0.45733  0.12879  1.0000
  Fe  Fe11      1.0  0.35999  0.41746  0.07913  1.0000
  H   H82       1.0  0.18544  0.29578  0.16178  1.0000
  C   C43       1.0  0.20013  0.19101  0.14972  1.0000
  H   H83       1.0  0.33128  0.54534  0.16271  1.0000
  H   H84       1.0  0.21630  0.20991  0.05871  1.0000
  H   H85       1.0  0.21155  0.11409  0.22753  1.0000
  C   C44       1.0  0.14587  0.46099  0.10158  1.0000
  H   H86       1.0  0.18356  0.12801  0.11419  1.0000
  C   C45       1.0  0.16558  0.22127  0.08583  1.0000
  C   C46       1.0  0.38584  0.58120  0.14003  1.0000
  H   H87       1.0  0.23433  0.11717  0.15410  1.0000
  S   S20       1.0  0.33244  0.37568  0.05742  1.0000
  S   S21       1.0  0.35396  0.54298  0.03316  1.0000
  H   H88       1.0  0.36898  0.26641  0.98801  1.0000
  S   S22       1.0  0.34127  0.15148  0.16636  1.0000
  H   H89       1.0  0.08065  0.44248  0.15726  1.0000
  H   H90       1.0  0.30895  0.11872  0.00047  1.0000
  H   H91       1.0  0.15427  0.26690  0.19124  1.0000
  H   H92       1.0  0.08282  0.48295  0.17957  1.0000
  H   H93       1.0  0.19577  0.25502  0.19353  1.0000
  C   C47       1.0  0.09152  0.57979  0.15370  1.0000
  C   C48       1.0  0.14746  0.59338  0.12068  1.0000
  C   C49       1.0  0.10977  0.46324  0.00928  1.0000
  C   C50       1.0  0.13674  0.43159  0.08412  1.0000
  S   S23       1.0  0.10294  0.53008  0.99628  1.0000
  Fe  Fe12      1.0  0.11832  0.35515  0.08886  1.0000
  H   H94       1.0  0.15907  0.12297  0.18632  1.0000
  H   H95       1.0  0.15915  0.33672  0.22514  1.0000
  S   S24       1.0  0.07896  0.29304  0.00881  1.0000
  S   S25       1.0  0.06863  0.36424  0.06418  1.0000
  H   H96       1.0  0.37099  0.53100  0.22816  1.0000
  H   H97       1.0  0.21004  0.40866  0.38145  1.0000
  S   S26       1.0  0.28711  0.14067  0.45480  1.0000
  Fe  Fe13      1.0  0.27805  0.23385  0.29243  1.0000
  H   H98       1.0  0.34817  0.37451  0.46384  1.0000
  H   H99       1.0  0.21522  0.38875  0.31491  1.0000
  S   S27       1.0  0.07630  0.20033  0.34546  1.0000
  S   S28       1.0  0.25314  0.58517  0.34616  1.0000
  N   N6        1.0  0.25750  0.41256  0.32920  1.0000
  Fe  Fe14      1.0  0.25165  0.53309  0.32566  1.0000
  H   H100      1.0  0.33523  0.42621  0.40454  1.0000
  C   C51       1.0  0.29800  0.31139  0.23111  1.0000
  S   S29       1.0  0.34286  0.60234  0.36898  1.0000
  S   S30       1.0  0.30065  0.51929  0.34983  1.0000
  C   C52       1.0  0.35286  0.40885  0.38506  1.0000
  C   C53       1.0  0.13284  0.33690  0.45052  1.0000
  C   C54       1.0  0.12353  0.51874  0.27591  1.0000
  H   H101      1.0  0.20496  0.12229  0.45057  1.0000
  H   H102      1.0  0.15483  0.50466  0.39509  1.0000
  C   C55       1.0  0.36038  0.37954  0.41898  1.0000
  H   H103      1.0  0.12672  0.56580  0.30781  1.0000
  H   H104      1.0  0.37314  0.17661  0.47043  1.0000
  C   C56       1.0  0.38319  0.35676  0.39435  1.0000
  H   H105      1.0  0.15430  0.53133  0.45222  1.0000
  Fe  Fe15      1.0  0.29990  0.56979  0.37909  1.0000
  H   H106      1.0  0.15889  0.26919  0.34826  1.0000
  H   H107      1.0  0.26368  0.43949  0.24208  1.0000
  N   N7        1.0  0.34856  0.22385  0.47858  1.0000
  H   H108      1.0  0.29757  0.38261  0.35517  1.0000
  H   H109      1.0  0.12690  0.30908  0.25514  1.0000
  C   C57       1.0  0.36744  0.49949  0.42367  1.0000
  H   H110      1.0  0.21426  0.34606  0.43815  1.0000
  C   C58       1.0  0.19177  0.51754  0.25766  1.0000
  C   C59       1.0  0.16305  0.26078  0.30335  1.0000
  H   H111      1.0  0.26455  0.35971  0.34177  1.0000
  C   C60       1.0  0.27066  0.38228  0.35992  1.0000
  C   C61       1.0  0.14006  0.54494  0.29020  1.0000
  S   S31       1.0  0.26700  0.13993  0.29285  1.0000
  Fe  Fe16      1.0  0.27865  0.16630  0.36630  1.0000
  H   H112      1.0  0.38476  0.20759  0.40919  1.0000
  C   C62       1.0  0.32210  0.11544  0.44113  1.0000
  H   H113      1.0  0.35660  0.47893  0.40669  1.0000
  H   H114      1.0  0.31893  0.34787  0.27239  1.0000
  H   H115      1.0  0.32554  0.27188  0.46494  1.0000
  H   H116      1.0  0.32190  0.11974  0.34717  1.0000
  H   H117      1.0  0.15028  0.14800  0.44699  1.0000
  C   C63       1.0  0.17415  0.54402  0.28223  1.0000
  H   H118      1.0  0.22498  0.27683  0.26233  1.0000
  C   C64       1.0  0.27241  0.41629  0.26605  1.0000
  C   C65       1.0  0.22193  0.41063  0.33424  1.0000
  Fe  Fe17      1.0  0.23133  0.18154  0.27917  1.0000
  Fe  Fe18      1.0  0.27388  0.50410  0.44060  1.0000
  H   H119      1.0  0.34649  0.18814  0.41788  1.0000
  H   H120      1.0  0.14906  0.32607  0.30388  1.0000
  Fe  Fe19      1.0  0.22942  0.56559  0.43720  1.0000
  Fe  Fe20      1.0  0.06895  0.14654  0.34141  1.0000
  H   H121      1.0  0.35084  0.55709  0.28102  1.0000
  S   S32       1.0  0.24016  0.20578  0.35708  1.0000
  H   H122      1.0  0.29157  0.44374  0.35403  1.0000
  C   C66       1.0  0.36396  0.19797  0.44251  1.0000
  S   S33       1.0  0.08087  0.51826  0.28835  1.0000
  C   C67       1.0  0.26497  0.44140  0.35689  1.0000
  H   H123      1.0  0.36030  0.52289  0.39848  1.0000
  C   C68       1.0  0.18862  0.34948  0.45353  1.0000
  C   C69       1.0  0.36762  0.41528  0.32597  1.0000
  H   H124      1.0  0.08654  0.21867  0.45488  1.0000
  H   H125      1.0  0.29933  0.41741  0.26094  1.0000
  C   C70       1.0  0.20698  0.29780  0.26549  1.0000
  H   H126      1.0  0.39275  0.56268  0.25207  1.0000
  H   H127      1.0  0.11830  0.52668  0.42160  1.0000
  S   S34       1.0  0.07732  0.58485  0.39736  1.0000
  S   S35       1.0  0.31735  0.19614  0.30763  1.0000
  C   C71       1.0  0.36914  0.55672  0.24035  1.0000
  H   H128      1.0  0.35609  0.50027  0.47054  1.0000
  C   C72       1.0  0.33746  0.25195  0.43929  1.0000
  H   H129      1.0  0.26108  0.37977  0.40829  1.0000
  H   H130      1.0  0.18063  0.23943  0.30359  1.0000
  C   C73       1.0  0.14001  0.51321  0.43547  1.0000
  S   S36       1.0  0.27597  0.55368  0.47151  1.0000
  H   H131      1.0  0.08294  0.26901  0.30524  1.0000
  S   S37       1.0  0.39466  0.32120  0.43804  1.0000
  H   H132      1.0  0.18685  0.56397  0.29441  1.0000
  H   H133      1.0  0.25407  0.43949  0.40464  1.0000
  C   C74       1.0  0.16604  0.33253  0.43044  1.0000
  C   C75       1.0  0.34759  0.60962  0.44076  1.0000
  S   S38       1.0  0.22492  0.51437  0.41463  1.0000
  H   H134      1.0  0.13972  0.25113  0.29616  1.0000
  H   H135      1.0  0.17423  0.31624  0.39721  1.0000
  H   H136      1.0  0.35806  0.26319  0.40750  1.0000
  H   H137      1.0  0.25563  0.46466  0.33451  1.0000
  H   H138      1.0  0.20631  0.30632  0.30964  1.0000
  S   S39       1.0  0.28504  0.28749  0.29890  1.0000
  H   H139      1.0  0.21145  0.43306  0.31083  1.0000
  S   S40       1.0  0.35751  0.45176  0.28349  1.0000
  S   S41       1.0  0.23431  0.51561  0.24826  1.0000
  H   H140      1.0  0.31980  0.24419  0.41267  1.0000
  S   S42       1.0  0.18049  0.17277  0.26771  1.0000
  S   S43       1.0  0.10385  0.31909  0.41833  1.0000
  C   C76       1.0  0.39001  0.39233  0.30119  1.0000
  N   N8        1.0  0.17480  0.28771  0.25698  1.0000
  C   C77       1.0  0.39740  0.36297  0.33497  1.0000
  C   C78       1.0  0.15154  0.31617  0.26037  1.0000
  H   H141      1.0  0.26677  0.39528  0.24324  1.0000
  H   H142      1.0  0.08783  0.47645  0.44563  1.0000
  Fe  Fe21      1.0  0.30295  0.17261  0.23305  1.0000
  C   C79       1.0  0.31373  0.34079  0.23126  1.0000
  H   H143      1.0  0.12302  0.45254  0.41825  1.0000
  H   H144      1.0  0.34510  0.55829  0.47489  1.0000
  C   C80       1.0  0.14124  0.49234  0.25142  1.0000
  H   H145      1.0  0.17483  0.45731  0.45527  1.0000
  H   H146      1.0  0.21654  0.31812  0.23136  1.0000
  H   H147      1.0  0.12872  0.47199  0.24024  1.0000
  C   C81       1.0  0.17525  0.49198  0.24150  1.0000
  C   C82       1.0  0.10994  0.46309  0.45827  1.0000
  H   H148      1.0  0.19290  0.17932  0.47735  1.0000
  H   H149      1.0  0.11849  0.56748  0.67821  1.0000
  C   C83       1.0  0.16019  0.46667  0.49509  1.0000
  C   C84       1.0  0.34576  0.47229  0.61128  1.0000
  H   H150      1.0  0.27965  0.51851  0.66206  1.0000
  H   H151      1.0  0.20103  0.57868  0.66142  1.0000
  N   N9        1.0  0.35337  0.35486  0.61139  1.0000
  S   S44       1.0  0.37887  0.25749  0.69240  1.0000
  C   C85       1.0  0.16085  0.12208  0.58860  1.0000
  S   S45       1.0  0.13318  0.42399  0.64739  1.0000
  H   H152      1.0  0.12813  0.51332  0.55485  1.0000
  C   C86       1.0  0.28320  0.49011  0.58834  1.0000
  S   S46       1.0  0.29342  0.24739  0.67616  1.0000
  C   C87       1.0  0.30287  0.46887  0.55354  1.0000
  C   C88       1.0  0.35050  0.32397  0.58537  1.0000
  H   H153      1.0  0.24263  0.35712  0.67781  1.0000
  C   C89       1.0  0.11366  0.31247  0.65502  1.0000
  C   C90       1.0  0.32657  0.49472  0.64445  1.0000
  H   H154      1.0  0.15401  0.44486  0.52774  1.0000
  H   H155      1.0  0.37314  0.30836  0.58459  1.0000
  N   N10       1.0  0.24652  0.59733  0.67154  1.0000
  C   C91       1.0  0.29487  0.50246  0.63463  1.0000
  C   C92       1.0  0.19675  0.11319  0.49801  1.0000
  H   H156      1.0  0.27368  0.56954  0.60510  1.0000
  Fe  Fe22      1.0  0.15678  0.45041  0.70795  1.0000
  S   S47       1.0  0.11605  0.21601  0.63004  1.0000
  H   H157      1.0  0.37719  0.33028  0.68079  1.0000
  C   C93       1.0  0.10719  0.25340  0.66025  1.0000
  C   C94       1.0  0.38279  0.37195  0.58036  1.0000
  C   C95       1.0  0.35592  0.34699  0.67473  1.0000
  C   C96       1.0  0.14917  0.57926  0.59443  1.0000
  C   C97       1.0  0.27084  0.59064  0.71167  1.0000
  H   H158      1.0  0.36130  0.25448  0.54041  1.0000
  C   C98       1.0  0.32439  0.37649  0.60551  1.0000
  H   H159      1.0  0.32780  0.18857  0.55019  1.0000
  Fe  Fe23      1.0  0.12942  0.38176  0.71899  1.0000
  H   H160      1.0  0.09146  0.51362  0.52505  1.0000
  H   H161      1.0  0.22948  0.54767  0.68553  1.0000
  Fe  Fe24      1.0  0.18320  0.40317  0.61710  1.0000
  S   S48       1.0  0.14044  0.50235  0.72387  1.0000
  C   C99       1.0  0.13859  0.55914  0.64725  1.0000
  H   H162      1.0  0.35911  0.36967  0.69519  1.0000
  C   C100      1.0  0.34786  0.58845  0.54359  1.0000
  C   C101      1.0  0.08681  0.25405  0.71476  1.0000
  Fe  Fe25      1.0  0.08228  0.17763  0.67934  1.0000
  C   C102      1.0  0.37228  0.23532  0.51208  1.0000
  C   C103      1.0  0.15401  0.52843  0.65937  1.0000
  H   H163      1.0  0.26059  0.30603  0.63280  1.0000
  Fe  Fe26      1.0  0.33595  0.22597  0.71611  1.0000
  H   H164      1.0  0.38571  0.39545  0.59867  1.0000
  C   C104      1.0  0.25313  0.33689  0.70367  1.0000
  H   H165      1.0  0.20599  0.16756  0.54744  1.0000
  H   H166      1.0  0.13267  0.11331  0.49521  1.0000
  H   H167      1.0  0.32298  0.38551  0.55848  1.0000
  H   H168      1.0  0.37008  0.46579  0.61937  1.0000
  C   C105      1.0  0.09323  0.31299  0.70949  1.0000
  H   H169      1.0  0.34677  0.56767  0.57781  1.0000
  C   C106      1.0  0.14331  0.13792  0.49431  1.0000
  H   H170      1.0  0.30170  0.36332  0.62345  1.0000
  C   C107      1.0  0.18028  0.51828  0.61908  1.0000
  H   H171      1.0  0.32414  0.39846  0.62983  1.0000
  H   H172      1.0  0.33394  0.33449  0.69985  1.0000
  N   N11       1.0  0.17142  0.13544  0.52618  1.0000
  H   H173      1.0  0.10373  0.47743  0.56937  1.0000
  H   H174      1.0  0.33019  0.30899  0.61077  1.0000
  C   C108      1.0  0.33371  0.45906  0.56618  1.0000
  H   H175      1.0  0.24403  0.59831  0.57878  1.0000
  C   C109      1.0  0.12052  0.28268  0.63018  1.0000
  S   S49       1.0  0.17751  0.35926  0.68538  1.0000
  S   S50       1.0  0.20733  0.43294  0.67233  1.0000
  C   C110      1.0  0.19115  0.53848  0.56696  1.0000
  C   C111      1.0  0.17786  0.37033  0.49733  1.0000
  S   S51       1.0  0.34253  0.51456  0.69585  1.0000
  H   H176      1.0  0.08361  0.20374  0.53207  1.0000
  C   C112      1.0  0.12243  0.35703  0.49524  1.0000
  H   H177      1.0  0.19266  0.49505  0.62820  1.0000
  H   H178      1.0  0.10188  0.44205  0.49221  1.0000
  H   H179      1.0  0.28432  0.56675  0.70586  1.0000
  Fe  Fe27      1.0  0.39384  0.49746  0.69699  1.0000
  C   C113      1.0  0.26394  0.30825  0.67775  1.0000
  H   H180      1.0  0.14260  0.13889  0.61185  1.0000
  H   H181      1.0  0.13621  0.28239  0.58784  1.0000
  H   H182      1.0  0.08862  0.24687  0.50801  1.0000
  H   H183      1.0  0.12409  0.33504  0.63193  1.0000
  C   C114      1.0  0.11271  0.49785  0.53494  1.0000
  C   C115      1.0  0.07648  0.22440  0.50040  1.0000
  S   S52       1.0  0.29068  0.45770  0.49012  1.0000
  C   C116      1.0  0.27950  0.28283  0.70950  1.0000
  S   S53       1.0  0.36424  0.18069  0.68997  1.0000
  H   H184      1.0  0.09708  0.35999  0.51234  1.0000
  H   H185      1.0  0.25910  0.49720  0.57926  1.0000
  H   H186      1.0  0.38159  0.21475  0.54163  1.0000
  C   C117      1.0  0.18472  0.16854  0.52385  1.0000
  H   H187      1.0  0.13620  0.38880  0.55315  1.0000
  H   H188      1.0  0.34882  0.44263  0.53904  1.0000
  H   H189      1.0  0.21174  0.53044  0.53672  1.0000
  C   C118      1.0  0.22031  0.57347  0.68932  1.0000
  H   H190      1.0  0.16629  0.18601  0.54486  1.0000
  C   C119      1.0  0.17541  0.56878  0.55427  1.0000
  H   H191      1.0  0.34588  0.32905  0.53900  1.0000
  C   C120      1.0  0.26200  0.59431  0.60983  1.0000
  H   H192      1.0  0.38226  0.37779  0.53224  1.0000
  N   N12       1.0  0.13071  0.48521  0.48097  1.0000
  H   H193      1.0  0.18155  0.11869  0.61370  1.0000
  S   S54       1.0  0.18869  0.59314  0.48798  1.0000
  C   C121      1.0  0.14482  0.37347  0.51874  1.0000
  H   H194      1.0  0.30858  0.22887  0.54935  1.0000
  S   S55       1.0  0.20518  0.39330  0.52451  1.0000
  C   C122      1.0  0.32046  0.21021  0.52056  1.0000
  H   H195      1.0  0.13715  0.60293  0.58500  1.0000
  C   C123      1.0  0.34695  0.58307  0.48516  1.0000
  H   H196      1.0  0.12376  0.15444  0.51464  1.0000
  H   H197      1.0  0.17605  0.48206  0.51427  1.0000
  H   H198      1.0  0.30177  0.20186  0.49683  1.0000
  H   H199      1.0  0.28909  0.61012  0.70380  1.0000
  H   H200      1.0  0.21860  0.11133  0.52016  1.0000
  H   H201      1.0  0.39354  0.24643  0.48197  1.0000
  H   H202      1.0  0.13231  0.00880  0.83028  1.0000
  C   C124      1.0  0.13437  0.95108  0.78823  1.0000
  S   S56       1.0  0.20921  0.61682  0.85094  1.0000
  H   H203      1.0  0.08522  0.97282  0.86795  1.0000
  H   H204      1.0  0.37060  0.74217  0.93200  1.0000
  H   H205      1.0  0.09704  0.75595  0.86306  1.0000
  H   H206      1.0  0.21097  0.71853  0.76383  1.0000
  H   H207      1.0  0.38003  0.01183  0.80692  1.0000
  H   H208      1.0  0.18184  0.93172  0.85073  1.0000
  H   H209      1.0  0.33793  0.80105  0.83130  1.0000
  H   H210      1.0  0.23817  0.81698  0.74445  1.0000
  C   C125      1.0  0.08943  0.64556  0.79314  1.0000
  C   C126      1.0  0.39202  0.74734  0.89965  1.0000
  H   H211      1.0  0.10760  0.82958  0.86066  1.0000
  C   C127      1.0  0.37892  0.92063  0.92846  1.0000
  H   H212      1.0  0.31713  0.70628  0.92397  1.0000
  C   C128      1.0  0.24945  0.76992  0.79001  1.0000
  H   H213      1.0  0.36171  0.97729  0.85184  1.0000
  C   C129      1.0  0.14700  0.98923  0.85260  1.0000
  C   C130      1.0  0.35868  0.00424  0.84061  1.0000
  H   H214      1.0  0.31522  0.91361  0.85776  1.0000
  H   H215      1.0  0.15859  0.95477  0.76068  1.0000
  C   C131      1.0  0.39728  0.90814  0.82777  1.0000
  H   H216      1.0  0.17935  0.74017  0.80795  1.0000
  H   H217      1.0  0.36600  0.67751  0.87744  1.0000
  Fe  Fe28      1.0  0.18203  0.62131  0.94188  1.0000
  N   N13       1.0  0.32795  0.01288  0.81793  1.0000
  C   C132      1.0  0.12601  0.76381  0.95610  1.0000
  H   H218      1.0  0.14814  0.90541  0.87644  1.0000
  Fe  Fe29      1.0  0.30489  0.71189  0.76776  1.0000
  C   C133      1.0  0.39636  0.10838  0.86933  1.0000
  H   H219      1.0  0.13900  0.82600  0.90575  1.0000
  N   N14       1.0  0.13500  0.95603  0.85047  1.0000
  H   H220      1.0  0.35745  0.06345  0.96297  1.0000
  H   H221      1.0  0.32713  0.92394  0.95519  1.0000
  H   H222      1.0  0.13714  0.08251  0.75137  1.0000
  H   H223      1.0  0.17284  0.69946  0.79039  1.0000
  H   H224      1.0  0.26136  0.83558  0.91341  1.0000
  C   C134      1.0  0.33993  0.91363  0.86448  1.0000
  C   C135      1.0  0.12339  0.81156  0.88399  1.0000
  H   H225      1.0  0.27799  0.77818  0.92669  1.0000
  C   C136      1.0  0.34069  0.82676  0.93151  1.0000
  C   C137      1.0  0.30136  0.78476  0.93823  1.0000
  Fe  Fe30      1.0  0.23490  0.88708  0.76764  1.0000
  S   S57       1.0  0.20112  0.85379  0.83278  1.0000
  H   H226      1.0  0.12692  0.92572  0.78456  1.0000
  C   C138      1.0  0.08275  0.76998  0.89752  1.0000
  H   H227      1.0  0.34694  0.05681  0.76509  1.0000
  S   S58       1.0  0.34955  0.67947  0.75374  1.0000
  H   H228      1.0  0.32609  0.61630  0.90965  1.0000
  H   H229      1.0  0.09137  0.92897  0.88151  1.0000
  H   H230      1.0  0.17268  0.99147  0.83058  1.0000
  C   C139      1.0  0.24538  0.74951  0.84372  1.0000
  H   H231      1.0  0.23456  0.03417  0.97571  1.0000
  H   H232      1.0  0.37969  0.63916  0.91276  1.0000
  C   C140      1.0  0.31772  0.69000  0.96606  1.0000
  C   C141      1.0  0.21607  0.81287  0.83609  1.0000
  C   C142      1.0  0.10185  0.95314  0.88455  1.0000
  H   H233      1.0  0.31166  0.65536  0.87752  1.0000
  H   H234      1.0  0.18154  0.78794  0.73050  1.0000
  H   H235      1.0  0.36070  0.80817  0.92256  1.0000
  N   N15       1.0  0.10401  0.78773  0.92763  1.0000
  H   H236      1.0  0.14149  0.74946  0.92335  1.0000
  H   H237      1.0  0.19091  0.06613  0.77908  1.0000
  C   C143      1.0  0.36505  0.90769  0.81857  1.0000
  H   H238      1.0  0.10149  0.95539  0.93222  1.0000
  H   H239      1.0  0.30095  0.97637  0.87924  1.0000
  S   S59       1.0  0.13370  0.61543  0.91604  1.0000
  N   N16       1.0  0.31100  0.81804  0.91046  1.0000
  C   C144      1.0  0.22457  0.75986  0.89269  1.0000
  C   C145      1.0  0.23489  0.80150  0.78625  1.0000
  S   S60       1.0  0.26318  0.92314  0.80313  1.0000
  H   H240      1.0  0.14610  0.99468  0.89890  1.0000
  H   H241      1.0  0.32411  0.84334  0.82297  1.0000
  S   S61       1.0  0.26799  0.71227  0.85003  1.0000
  H   H242      1.0  0.35993  0.01610  0.88110  1.0000
  H   H243      1.0  0.12422  0.71951  0.74915  1.0000
  C   C146      1.0  0.15679  0.93078  0.87626  1.0000
  H   H244      1.0  0.27663  0.00942  0.84882  1.0000
  C   C147      1.0  0.31749  0.81835  0.84538  1.0000
  H   H245      1.0  0.17797  0.02474  0.96376  1.0000
  Fe  Fe31      1.0  0.30484  0.90915  0.73504  1.0000
  H   H246      1.0  0.32684  0.06308  0.83799  1.0000
  C   C148      1.0  0.31452  0.64048  0.92016  1.0000
  H   H247      1.0  0.29581  0.81114  0.82821  1.0000
  H   H248      1.0  0.37159  0.73298  0.82691  1.0000
  H   H249      1.0  0.28956  0.63579  0.94464  1.0000
  C   C149      1.0  0.30021  0.00335  0.86472  1.0000
  C   C150      1.0  0.18427  0.72346  0.77255  1.0000
  H   H250      1.0  0.09502  0.63021  0.83158  1.0000
  H   H251      1.0  0.30018  0.01619  0.90469  1.0000
  H   H252      1.0  0.29026  0.86730  0.90542  1.0000
  C   C151      1.0  0.32612  0.04883  0.80003  1.0000
  C   C152      1.0  0.34675  0.91946  0.91971  1.0000
  C   C153      1.0  0.08380  0.80574  0.97313  1.0000
  H   H253      1.0  0.38172  0.67671  0.94550  1.0000
  S   S62       1.0  0.23537  0.01258  0.74924  1.0000
  N   N17       1.0  0.33376  0.65780  0.95478  1.0000
  H   H254      1.0  0.13967  0.79900  0.84968  1.0000
  H   H255      1.0  0.34984  0.85084  0.90930  1.0000
  H   H256      1.0  0.39658  0.06111  0.83752  1.0000
  Fe  Fe32      1.0  0.24931  0.96041  0.73155  1.0000
  H   H257      1.0  0.22092  0.74393  0.93419  1.0000
  C   C154      1.0  0.21013  0.79171  0.88902  1.0000
  H   H258      1.0  0.19567  0.80044  0.92793  1.0000
  H   H259      1.0  0.15842  0.93439  0.92283  1.0000
  C   C155      1.0  0.36676  0.66302  0.92121  1.0000
  H   H260      1.0  0.31969  0.76574  0.92339  1.0000
  C   C156      1.0  0.28441  0.84211  0.92683  1.0000
  H   H261      1.0  0.12935  0.76116  0.76348  1.0000
  H   H262      1.0  0.11706  0.96884  0.76820  1.0000
  H   H263      1.0  0.30338  0.05625  0.78205  1.0000
  C   C157      1.0  0.39279  0.74178  0.84056  1.0000
  H   H264      1.0  0.32817  0.96797  0.77765  1.0000
  H   H265      1.0  0.27963  0.84345  0.97534  1.0000
  S   S63       1.0  0.07275  0.80839  0.74062  1.0000
  C   C158      1.0  0.11173  0.64823  0.74076  1.0000
  H   H266      1.0  0.34743  0.00150  0.73002  1.0000
  S   S64       1.0  0.14995  0.62837  0.73834  1.0000
  C   C159      1.0  0.13646  0.74300  0.73104  1.0000
  H   H267      1.0  0.26393  0.76157  0.75102  1.0000
  H   H268      1.0  0.30410  0.00140  0.74750  1.0000
  S   S65       1.0  0.35650  0.89930  0.74995  1.0000
  C   C160      1.0  0.18166  0.05343  0.74702  1.0000
  C   C161      1.0  0.32681  0.99515  0.76608  1.0000
  S   S66       1.0  0.33170  0.75796  0.73252  1.0000
  H   H269      1.0  0.14263  0.77649  0.97862  1.0000
  C   C162      1.0  0.06815  0.84945  0.75609  1.0000
  H   H270      1.0  0.06820  0.82522  0.95278  1.0000
  C   C163      1.0  0.15118  0.06272  0.73137  1.0000
  H   H271      1.0  0.15837  0.04827  0.20473  1.0000
  C   C164      1.0  0.33602  0.63771  0.01173  1.0000
  C   C165      1.0  0.35566  0.61394  0.21212  1.0000
  C   C166      1.0  0.20820  0.06471  0.12007  1.0000
  H   H272      1.0  0.09583  0.03318  0.08131  1.0000
  C   C167      1.0  0.20597  0.78232  0.08233  1.0000
  N   N18       1.0  0.19467  0.08391  0.16946  1.0000
  S   S67       1.0  0.29350  0.81589  0.09190  1.0000
  H   H273      1.0  0.21817  0.71194  0.03985  1.0000
  Fe  Fe33      1.0  0.30027  0.69748  0.19047  1.0000
  C   C168      1.0  0.22170  0.01349  0.00126  1.0000
  C   C169      1.0  0.23909  0.78425  0.08370  1.0000
  S   S68       1.0  0.18663  0.66492  0.98946  1.0000
  H   H274      1.0  0.24321  0.86705  0.08626  1.0000
  H   H275      1.0  0.37523  0.05554  0.08763  1.0000
  H   H276      1.0  0.31161  0.63266  0.03759  1.0000
  C   C170      1.0  0.22674  0.68768  0.05585  1.0000
  H   H277      1.0  0.17511  0.93991  0.09396  1.0000
  C   C171      1.0  0.23287  0.84344  0.08463  1.0000
  C   C172      1.0  0.23655  0.99271  0.04239  1.0000
  C   C173      1.0  0.33823  0.05844  0.00221  1.0000
  S   S69       1.0  0.27507  0.00150  0.05608  1.0000
  C   C174      1.0  0.37023  0.08059  0.06558  1.0000
  C   C175      1.0  0.24934  0.62495  0.09644  1.0000
  C   C176      1.0  0.39853  0.83605  0.18277  1.0000
  H   H278      1.0  0.12641  0.65428  0.14355  1.0000
  S   S70       1.0  0.28728  0.64866  0.16679  1.0000
  H   H279      1.0  0.12001  0.77744  0.20810  1.0000
  H   H280      1.0  0.11226  0.74594  0.99035  1.0000
  C   C177      1.0  0.07151  0.03238  0.10631  1.0000
  C   C178      1.0  0.31251  0.07513  0.09628  1.0000
  C   C179      1.0  0.18789  0.96045  0.06811  1.0000
  H   H281      1.0  0.22641  0.04570  0.13323  1.0000
  Fe  Fe34      1.0  0.30317  0.77149  0.15390  1.0000
  H   H282      1.0  0.34239  0.03271  0.02250  1.0000
  Fe  Fe35      1.0  0.35450  0.73622  0.21876  1.0000
  S   S71       1.0  0.10634  0.88805  0.01186  1.0000
  H   H283      1.0  0.14058  0.83336  0.19862  1.0000
  Fe  Fe36      1.0  0.11666  0.85471  0.09092  1.0000
  H   H284      1.0  0.37806  0.82412  0.21366  1.0000
  H   H285      1.0  0.22024  0.08087  0.08112  1.0000
  S   S72       1.0  0.31333  0.99109  0.20162  1.0000
  H   H286      1.0  0.36567  0.79738  0.12655  1.0000
  H   H287      1.0  0.28822  0.07631  0.08234  1.0000
  Fe  Fe37      1.0  0.07060  0.89276  0.17655  1.0000
  C   C180      1.0  0.17267  0.98172  0.02826  1.0000
  S   S73       1.0  0.09446  0.06727  0.18419  1.0000
  H   H288      1.0  0.18885  0.05152  0.10506  1.0000
  C   C181      1.0  0.36145  0.86299  0.12063  1.0000
  H   H289      1.0  0.39035  0.08596  0.02801  1.0000
  H   H290      1.0  0.16475  0.61283  0.09980  1.0000
  C   C182      1.0  0.10586  0.61850  0.06711  1.0000
  H   H291      1.0  0.31588  0.04982  0.11852  1.0000
  C   C183      1.0  0.10979  0.63395  0.16337  1.0000
  S   S74       1.0  0.33801  0.72950  0.13331  1.0000
  H   H292      1.0  0.37135  0.09870  0.09767  1.0000
  H   H293      1.0  0.34954  0.65049  0.03972  1.0000
  H   H294      1.0  0.08459  0.64464  0.16817  1.0000
  H   H295      1.0  0.39832  0.99427  0.17214  1.0000
  S   S75       1.0  0.13234  0.97618  0.02030  1.0000
  H   H296      1.0  0.38299  0.10457  0.22300  1.0000
  H   H297      1.0  0.23113  0.94962  0.10676  1.0000
  C   C184      1.0  0.25244  0.81462  0.08604  1.0000
  H   H298      1.0  0.09905  0.81803  0.99876  1.0000
  C   C185      1.0  0.21604  0.65984  0.03590  1.0000
  S   S76       1.0  0.14467  0.80708  0.08363  1.0000
  H   H299      1.0  0.34839  0.61342  0.00481  1.0000
  H   H300      1.0  0.17702  0.81906  0.22554  1.0000
  H   H301      1.0  0.35231  0.63322  0.17510  1.0000
  C   C186      1.0  0.18967  0.00817  0.99461  1.0000
  C   C187      1.0  0.22115  0.09978  0.18988  1.0000
  H   H302      1.0  0.34032  0.85136  0.15039  1.0000
  H   H303      1.0  0.38259  0.81382  0.05318  1.0000
  C   C188      1.0  0.21970  0.96606  0.07544  1.0000
  H   H304      1.0  0.12310  0.63741  0.04337  1.0000
  C   C189      1.0  0.19960  0.84154  0.08294  1.0000
  N   N19       1.0  0.39132  0.84209  0.12165  1.0000
  H   H305      1.0  0.25439  0.76222  0.08276  1.0000
  N   N20       1.0  0.33844  0.08260  0.04508  1.0000
  H   H306      1.0  0.36435  0.88759  0.13503  1.0000
  C   C190      1.0  0.24886  0.68422  0.09566  1.0000
  S   S77       1.0  0.12383  0.89618  0.14242  1.0000
  H   H307      1.0  0.31217  0.09273  0.12984  1.0000
  H   H308      1.0  0.23894  0.85800  0.22083  1.0000
  S   S78       1.0  0.23471  0.98529  0.21477  1.0000
  H   H309      1.0  0.11518  0.62574  0.20869  1.0000
  C   C191      1.0  0.38682  0.81031  0.09994  1.0000
  S   S79       1.0  0.38679  0.93026  0.99640  1.0000
  H   H310      1.0  0.15211  0.09847  0.13048  1.0000
  H   H311      1.0  0.19554  0.75869  0.08180  1.0000
  Fe  Fe38      1.0  0.10905  0.92948  0.06612  1.0000
  H   H312      1.0  0.29207  0.68697  0.98796  1.0000
  Fe  Fe39      1.0  0.27807  0.97626  0.14706  1.0000
  H   H313      1.0  0.39198  0.04533  0.22236  1.0000
  H   H314      1.0  0.29828  0.78311  0.98734  1.0000
  C   C192      1.0  0.25967  0.65291  0.11692  1.0000
  C   C193      1.0  0.22802  0.62847  0.05499  1.0000
  H   H315      1.0  0.18443  0.86375  0.08249  1.0000
  S   S80       1.0  0.26384  0.73896  0.20394  1.0000
  S   S81       1.0  0.28210  0.92220  0.17867  1.0000
  H   H316      1.0  0.33032  0.70307  0.99506  1.0000
  H   H317      1.0  0.23907  0.08119  0.20584  1.0000
  H   H318      1.0  0.25771  0.70580  0.10943  1.0000
  H   H319      1.0  0.35502  0.86748  0.07529  1.0000
  C   C194      1.0  0.17773  0.06163  0.21904  1.0000
  C   C195      1.0  0.18619  0.81085  0.08247  1.0000
  C   C196      1.0  0.17142  0.10947  0.14917  1.0000
  H   H320      1.0  0.31453  0.05913  0.98606  1.0000
  H   H321      1.0  0.08101  0.62997  0.07014  1.0000
  H   H322      1.0  0.33623  0.82847  0.98002  1.0000
  H   H323      1.0  0.30513  0.83057  0.32750  1.0000
  S   S82       1.0  0.36133  0.91121  0.25083  1.0000
  S   S83       1.0  0.19746  0.90302  0.28646  1.0000
  H   H324      1.0  0.38479  0.97432  0.24482  1.0000
  C   C197      1.0  0.40122  0.89707  0.33371  1.0000
  N   N21       1.0  0.11580  0.96172  0.31834  1.0000
  Fe  Fe40      1.0  0.28562  0.74522  0.28349  1.0000
  H   H325      1.0  0.11916  0.75093  0.27636  1.0000
  Fe  Fe41      1.0  0.08641  0.07793  0.39731  1.0000
  C   C198      1.0  0.09153  0.72175  0.40647  1.0000
  H   H326      1.0  0.31515  0.78178  0.47027  1.0000
  H   H327      1.0  0.11644  0.71497  0.41039  1.0000
  H   H328      1.0  0.24889  0.04840  0.45011  1.0000
  H   H329      1.0  0.21483  0.09636  0.33846  1.0000
  H   H330      1.0  0.29950  0.99677  0.40545  1.0000
  C   C199      1.0  0.36178  0.08923  0.37110  1.0000
  H   H331      1.0  0.16608  0.96436  0.32581  1.0000
  C   C200      1.0  0.39267  0.74156  0.40127  1.0000
  C   C201      1.0  0.36649  0.08163  0.47493  1.0000
  Fe  Fe42      1.0  0.07547  0.08702  0.27017  1.0000
  H   H332      1.0  0.09186  0.91623  0.35120  1.0000
  H   H333      1.0  0.37469  0.73272  0.43857  1.0000
  H   H334      1.0  0.06871  0.96585  0.29207  1.0000
  H   H335      1.0  0.15876  0.09804  0.39198  1.0000
  N   N22       1.0  0.20039  0.67808  0.35572  1.0000
  C   C202      1.0  0.31460  0.84740  0.46434  1.0000
  H   H336      1.0  0.32347  0.87283  0.45099  1.0000
  H   H337      1.0  0.24153  0.66467  0.29248  1.0000
  H   H338      1.0  0.08483  0.79352  0.32815  1.0000
  H   H339      1.0  0.27791  0.79752  0.44643  1.0000
  H   H340      1.0  0.30894  0.77909  0.39604  1.0000
  C   C203      1.0  0.15693  0.04544  0.41559  1.0000
  H   H341      1.0  0.14965  0.81347  0.35656  1.0000
  H   H342      1.0  0.07852  0.96906  0.39217  1.0000
  C   C204      1.0  0.21509  0.81661  0.38165  1.0000
  H   H343      1.0  0.18587  0.64280  0.30359  1.0000
  H   H344      1.0  0.20124  0.72913  0.32070  1.0000
  H   H345      1.0  0.08679  0.82036  0.25991  1.0000
  C   C205      1.0  0.37862  0.07612  0.41633  1.0000
  H   H346      1.0  0.24528  0.65269  0.36901  1.0000
  C   C206      1.0  0.27308  0.04628  0.46439  1.0000
  C   C207      1.0  0.17382  0.01522  0.41081  1.0000
  H   H347      1.0  0.16248  0.71046  0.32794  1.0000
  C   C208      1.0  0.23239  0.84661  0.26591  1.0000
  C   C209      1.0  0.21398  0.92207  0.47290  1.0000
  H   H348      1.0  0.25751  0.98847  0.43053  1.0000
  H   H349      1.0  0.08743  0.75599  0.47050  1.0000
  C   C210      1.0  0.37313  0.91406  0.31963  1.0000
  C   C211      1.0  0.18293  0.64827  0.35035  1.0000
  Fe  Fe43      1.0  0.24117  0.93278  0.25083  1.0000
  H   H350      1.0  0.11890  0.96702  0.40869  1.0000
  H   H351      1.0  0.37020  0.08406  0.32633  1.0000
  H   H352      1.0  0.20817  0.80499  0.42609  1.0000
  N   N23       1.0  0.13300  0.80071  0.27935  1.0000
  S   S84       1.0  0.10621  0.81992  0.47107  1.0000
  C   C212      1.0  0.28131  0.98935  0.44532  1.0000
  H   H353      1.0  0.36672  0.80936  0.42757  1.0000
  H   H354      1.0  0.20693  0.70810  0.42342  1.0000
  C   C213      1.0  0.09945  0.81277  0.29846  1.0000
  H   H355      1.0  0.24928  0.69471  0.33900  1.0000
  Fe  Fe44      1.0  0.27003  0.99644  0.27141  1.0000
  H   H356      1.0  0.31444  0.86944  0.34899  1.0000
  H   H357      1.0  0.12378  0.91349  0.28891  1.0000
  H   H358      1.0  0.18712  0.86142  0.39751  1.0000
  H   H359      1.0  0.09902  0.83468  0.32315  1.0000
  C   C214      1.0  0.14896  0.79182  0.33181  1.0000
  C   C215      1.0  0.14896  0.97282  0.29453  1.0000
  C   C216      1.0  0.07559  0.70629  0.36921  1.0000
  C   C217      1.0  0.23573  0.79976  0.34030  1.0000
  C   C218      1.0  0.24380  0.81464  0.28211  1.0000
  C   C219      1.0  0.20488  0.01406  0.37697  1.0000
  C   C220      1.0  0.34998  0.64179  0.45492  1.0000
  S   S85       1.0  0.31935  0.70094  0.27499  1.0000
  S   S86       1.0  0.26000  0.04265  0.31462  1.0000
  C   C221      1.0  0.19390  0.68579  0.41778  1.0000
  H   H360      1.0  0.16764  0.69074  0.43287  1.0000
  H   H361      1.0  0.33285  0.94577  0.35066  1.0000
  C   C222      1.0  0.35379  0.93157  0.36177  1.0000
  H   H362      1.0  0.34517  0.94203  0.45276  1.0000
  C   C223      1.0  0.20301  0.84840  0.36523  1.0000
  C   C224      1.0  0.18913  0.70607  0.31662  1.0000
  H   H363      1.0  0.16278  0.99267  0.43260  1.0000
  C   C225      1.0  0.10392  0.97602  0.37412  1.0000
  N   N24       1.0  0.31914  0.82764  0.41368  1.0000
  H   H364      1.0  0.29123  0.05382  0.42446  1.0000
  C   C226      1.0  0.38698  0.74025  0.34337  1.0000
  C   C227      1.0  0.11618  0.92533  0.33029  1.0000
  C   C228      1.0  0.30462  0.79510  0.43250  1.0000
  H   H365      1.0  0.09416  0.00000  0.26315  1.0000
  H   H366      1.0  0.15147  0.84986  0.26129  1.0000
  C   C229      1.0  0.22001  0.04339  0.35183  1.0000
  S   S87       1.0  0.27322  0.94446  0.31379  1.0000
  S   S88       1.0  0.11726  0.04673  0.45409  1.0000
  H   H367      1.0  0.35039  0.66250  0.42078  1.0000
  C   C230      1.0  0.18172  0.92331  0.46278  1.0000
  C   C231      1.0  0.35412  0.82269  0.39229  1.0000
  H   H368      1.0  0.15845  0.96270  0.25198  1.0000
  C   C232      1.0  0.21190  0.86339  0.30739  1.0000
  C   C233      1.0  0.23563  0.67221  0.33803  1.0000
  H   H369      1.0  0.17443  0.78304  0.31909  1.0000
  C   C234      1.0  0.17160  0.07459  0.38846  1.0000
  H   H370      1.0  0.20177  0.66501  0.44861  1.0000
  H   H371      1.0  0.36593  0.84657  0.37837  1.0000
  H   H372      1.0  0.17637  0.93090  0.41880  1.0000
  H   H373      1.0  0.10485  0.00336  0.36770  1.0000
  C   C235      1.0  0.36093  0.92973  0.41940  1.0000
  H   H374      1.0  0.25863  0.80171  0.24901  1.0000
  H   H375      1.0  0.28776  0.96372  0.46282  1.0000
  H   H376      1.0  0.23326  0.92944  0.43703  1.0000
  H   H377      1.0  0.13334  0.91620  0.36117  1.0000
  H   H378      1.0  0.35846  0.80820  0.35366  1.0000
  H   H379      1.0  0.27700  0.85013  0.38129  1.0000
  H   H380      1.0  0.13601  0.77219  0.36321  1.0000
  H   H381      1.0  0.21730  0.99048  0.37165  1.0000
  H   H382      1.0  0.19207  0.62627  0.37643  1.0000
  S   S89       1.0  0.25125  0.76021  0.36107  1.0000
  H   H383      1.0  0.36470  0.73027  0.33627  1.0000
  C   C236      1.0  0.30328  0.84521  0.36566  1.0000
  C   C237      1.0  0.20341  0.07364  0.35801  1.0000
  S   S90       1.0  0.09613  0.67540  0.32991  1.0000
  H   H384      1.0  0.19462  0.70143  0.26932  1.0000
  H   H385      1.0  0.15651  0.65107  0.36703  1.0000
  C   C238      1.0  0.38736  0.91031  0.43489  1.0000
  H   H386      1.0  0.14968  0.00015  0.28657  1.0000
  C   C239      1.0  0.13238  0.77146  0.24751  1.0000
  C   C240      1.0  0.09416  0.97272  0.27468  1.0000
  C   C241      1.0  0.07493  0.74512  0.44080  1.0000
  H   H387      1.0  0.38486  0.02428  0.29622  1.0000
  C   C242      1.0  0.15130  0.82692  0.23958  1.0000
  H   H388      1.0  0.33390  0.61560  0.24695  1.0000
  S   S91       1.0  0.32247  0.78047  0.23496  1.0000
  H   H389      1.0  0.16614  0.07555  0.25603  1.0000
  Fe  Fe45      1.0  0.31408  0.93785  0.23920  1.0000
  C   C243      1.0  0.33404  0.10926  0.38316  1.0000
  H   H390      1.0  0.15736  0.76232  0.23102  1.0000
  S   S92       1.0  0.10944  0.11009  0.31757  1.0000
  H   H391      1.0  0.10161  0.96128  0.23279  1.0000
  H   H392      1.0  0.19477  0.04306  0.23743  1.0000
  H   H393      1.0  0.37686  0.62067  0.23118  1.0000
  H   H394      1.0  0.33161  0.01817  0.47434  1.0000
  C   C244      1.0  0.08764  0.99226  0.57914  1.0000
  H   H395      1.0  0.36031  0.82045  0.64422  1.0000
  C   C245      1.0  0.18739  0.01052  0.68192  1.0000
  H   H396      1.0  0.14952  0.09765  0.59184  1.0000
  Fe  Fe46      1.0  0.07561  0.10289  0.69903  1.0000
  C   C246      1.0  0.15679  0.91320  0.50899  1.0000
  C   C247      1.0  0.21088  0.79579  0.54216  1.0000
  H   H397      1.0  0.32883  0.10583  0.53246  1.0000
  H   H398      1.0  0.21406  0.76748  0.68581  1.0000
  H   H399      1.0  0.27344  0.06458  0.49635  1.0000
  H   H400      1.0  0.24186  0.82984  0.56907  1.0000
  Fe  Fe47      1.0  0.33766  0.67596  0.66335  1.0000
  S   S93       1.0  0.34643  0.62579  0.63343  1.0000
  H   H401      1.0  0.09735  0.01754  0.57357  1.0000
  Fe  Fe48      1.0  0.31931  0.74858  0.64550  1.0000
  H   H402      1.0  0.21328  0.63641  0.64720  1.0000
  C   C248      1.0  0.10374  0.66764  0.69052  1.0000
  C   C249      1.0  0.18044  0.71552  0.67206  1.0000
  Fe  Fe49      1.0  0.37497  0.72501  0.71069  1.0000
  H   H403      1.0  0.37079  0.86292  0.64083  1.0000
  H   H404      1.0  0.28133  0.61261  0.59468  1.0000
  C   C250      1.0  0.07677  0.90769  0.72530  1.0000
  C   C251      1.0  0.13854  0.04548  0.69184  1.0000
  H   H405      1.0  0.31759  0.98568  0.53134  1.0000
  Fe  Fe50      1.0  0.13002  0.78746  0.53775  1.0000
  H   H406      1.0  0.09685  0.86897  0.67392  1.0000
  C   C252      1.0  0.25983  0.74826  0.55934  1.0000
  Fe  Fe51      1.0  0.10349  0.85877  0.53243  1.0000
  H   H407      1.0  0.17824  0.78177  0.65618  1.0000
  H   H408      1.0  0.17059  0.69069  0.68734  1.0000
  Fe  Fe52      1.0  0.08311  0.81097  0.64171  1.0000
  C   C253      1.0  0.19632  0.90042  0.57491  1.0000
  S   S94       1.0  0.11697  0.91053  0.49583  1.0000
  C   C254      1.0  0.18716  0.77018  0.69689  1.0000
  N   N25       1.0  0.28002  0.01236  0.49056  1.0000
  C   C255      1.0  0.23179  0.73958  0.53958  1.0000
  H   H409      1.0  0.12086  0.66965  0.64960  1.0000
  H   H410      1.0  0.10017  0.97937  0.54135  1.0000
  H   H411      1.0  0.20189  0.88994  0.61738  1.0000
  H   H412      1.0  0.35098  0.67222  0.52527  1.0000
  C   C256      1.0  0.25417  0.00270  0.54091  1.0000
  Fe  Fe53      1.0  0.26182  0.91177  0.63968  1.0000
  C   C257      1.0  0.22126  0.91072  0.52914  1.0000
  H   H413      1.0  0.37848  0.84206  0.57555  1.0000
  H   H414      1.0  0.22167  0.63485  0.72130  1.0000
  H   H415      1.0  0.37925  0.07136  0.51040  1.0000
  H   H416      1.0  0.08757  0.92709  0.69294  1.0000
  S   S95       1.0  0.17067  0.75135  0.51296  1.0000
  S   S96       1.0  0.09975  0.05511  0.67403  1.0000
  H   H417      1.0  0.25883  0.97733  0.56187  1.0000
  H   H418      1.0  0.14751  0.00657  0.63517  1.0000
  C   C258      1.0  0.37885  0.83889  0.62406  1.0000
  H   H419      1.0  0.39952  0.63089  0.70351  1.0000
  H   H420      1.0  0.20141  0.99074  0.66186  1.0000
  S   S97       1.0  0.39332  0.90405  0.50879  1.0000
  H   H421      1.0  0.20716  0.71249  0.65915  1.0000
  S   S98       1.0  0.29823  0.79180  0.59512  1.0000
  S   S99       1.0  0.13155  0.82762  0.59486  1.0000
  H   H422      1.0  0.23005  0.00273  0.52639  1.0000
  C   C259      1.0  0.31164  0.01105  0.51145  1.0000
  S   S100      1.0  0.29021  0.70395  0.68186  1.0000
  S   S101      1.0  0.27757  0.87071  0.70350  1.0000
  C   C260      1.0  0.07374  0.68491  0.69344  1.0000
  N   N26       1.0  0.17208  0.73805  0.71822  1.0000
  S   S102      1.0  0.29279  0.94901  0.66568  1.0000
  H   H423      1.0  0.25157  0.64986  0.65981  1.0000
  H   H424      1.0  0.17021  0.72486  0.63148  1.0000
  H   H425      1.0  0.32795  0.83613  0.50001  1.0000
  H   H426      1.0  0.22921  0.71453  0.53057  1.0000
  C   C261      1.0  0.15691  0.01968  0.66651  1.0000
  C   C262      1.0  0.34877  0.62054  0.55842  1.0000
  S   S103      1.0  0.26132  0.91022  0.54267  1.0000
  H   H427      1.0  0.14496  0.89476  0.60116  1.0000
  S   S104      1.0  0.08360  0.76787  0.59024  1.0000
  H   H428      1.0  0.25239  0.01961  0.57586  1.0000
  S   S105      1.0  0.38942  0.99626  0.54286  1.0000
  C   C263      1.0  0.23267  0.63117  0.67517  1.0000
  C   C264      1.0  0.23898  0.80455  0.56146  1.0000
  S   S106      1.0  0.36551  0.72001  0.61953  1.0000
  H   H429      1.0  0.27920  0.73010  0.56397  1.0000
  C   C265      1.0  0.20700  0.76321  0.53201  1.0000
  H   H430      1.0  0.19266  0.81457  0.53363  1.0000
  C   C266      1.0  0.16413  0.90227  0.56518  1.0000
  S   S107      1.0  0.21733  0.92570  0.70186  1.0000
  H   H431      1.0  0.31178  0.02808  0.54566  1.0000
  H   H432      1.0  0.09475  0.97922  0.62049  1.0000
  C   C267      1.0  0.26324  0.78068  0.57091  1.0000
  H   H433      1.0  0.12637  0.75274  0.69037  1.0000
  C   C268      1.0  0.35018  0.64732  0.51405  1.0000
  H   H434      1.0  0.28855  0.84965  0.48429  1.0000
  C   C269      1.0  0.19945  0.02680  0.72332  1.0000
  C   C270      1.0  0.08209  0.87470  0.71458  1.0000
  H   H435      1.0  0.39280  0.80336  0.72257  1.0000
  H   H436      1.0  0.18766  0.08783  0.49992  1.0000
  C   C271      1.0  0.33807  0.10125  0.48737  1.0000
  C   C272      1.0  0.72101  0.19040  0.82246  1.0000
  C   C273      1.0  0.72262  0.31886  0.87358  1.0000
  N   N27       1.0  0.51542  0.16211  0.82703  1.0000
  Fe  Fe54      1.0  0.43493  0.46319  0.78466  1.0000
  C   C274      1.0  0.42710  0.34693  0.78770  1.0000
  C   C275      1.0  0.47729  0.50036  0.93244  1.0000
  Fe  Fe55      1.0  0.64603  0.49863  0.82119  1.0000
  C   C276      1.0  0.43285  0.54005  0.93020  1.0000
  Fe  Fe56      1.0  0.60631  0.24846  0.80139  1.0000
  H   H437      1.0  0.55129  0.14470  0.75864  1.0000
  H   H438      1.0  0.48307  0.16784  0.76306  1.0000
  C   C277      1.0  0.50562  0.19328  0.85264  1.0000
  H   H439      1.0  0.46078  0.48231  0.96115  1.0000
  H   H440      1.0  0.48176  0.58385  0.90667  1.0000
  S   S108      1.0  0.60415  0.28773  0.86175  1.0000
  H   H441      1.0  0.46561  0.14934  0.83467  1.0000
  Fe  Fe57      1.0  0.69664  0.54066  0.73954  1.0000
  H   H442      1.0  0.47719  0.49553  0.88607  1.0000
  S   S109      1.0  0.51329  0.30762  0.91007  1.0000
  C   C278      1.0  0.62101  0.60158  0.94828  1.0000
  N   N28       1.0  0.71598  0.15649  0.85217  1.0000
  H   H443      1.0  0.48462  0.18985  0.88916  1.0000
  H   H444      1.0  0.53109  0.11275  0.85616  1.0000
  S   S110      1.0  0.66949  0.50234  0.90040  1.0000
  H   H445      1.0  0.68979  0.13271  0.93322  1.0000
  H   H446      1.0  0.71673  0.32887  0.82949  1.0000
  C   C279      1.0  0.69533  0.15788  0.91047  1.0000
  N   N29       1.0  0.72498  0.34555  0.91052  1.0000
  C   C280      1.0  0.45784  0.38910  0.94448  1.0000
  C   C281      1.0  0.48810  0.55763  0.89956  1.0000
  H   H447      1.0  0.71477  0.13569  0.77100  1.0000
  C   C282      1.0  0.56901  0.36166  0.95085  1.0000
  S   S111      1.0  0.64810  0.55266  0.79012  1.0000
  H   H448      1.0  0.44172  0.39543  0.75039  1.0000
  H   H449      1.0  0.49347  0.12581  0.78730  1.0000
  H   H450      1.0  0.70397  0.41018  0.72993  1.0000
  Fe  Fe58      1.0  0.62288  0.32072  0.77981  1.0000
  S   S112      1.0  0.66283  0.59285  0.93205  1.0000
  H   H451      1.0  0.51392  0.55308  0.90518  1.0000
  C   C283      1.0  0.42369  0.31459  0.77646  1.0000
  C   C284      1.0  0.58779  0.51217  0.73494  1.0000
  C   C285      1.0  0.58225  0.19555  0.92718  1.0000
  N   N30       1.0  0.56872  0.39390  0.97386  1.0000
  S   S113      1.0  0.69255  0.48598  0.76375  1.0000
  H   H452      1.0  0.62969  0.13112  0.87829  1.0000
  C   C286      1.0  0.49360  0.34635  0.90200  1.0000
  C   C287      1.0  0.43547  0.11415  0.93399  1.0000
  S   S114      1.0  0.55581  0.25843  0.78304  1.0000
  H   H453      1.0  0.52023  0.40742  0.95881  1.0000
  C   C288      1.0  0.57418  0.49382  0.78780  1.0000
  C   C289      1.0  0.48009  0.39553  0.84044  1.0000
  H   H454      1.0  0.54468  0.14437  0.89318  1.0000
  S   S115      1.0  0.43648  0.44385  0.87918  1.0000
  H   H455      1.0  0.55122  0.59839  0.89151  1.0000
  H   H456      1.0  0.67190  0.17122  0.90594  1.0000
  H   H457      1.0  0.55142  0.41997  0.89772  1.0000
  H   H458      1.0  0.52575  0.20287  0.87123  1.0000
  C   C290      1.0  0.60155  0.40745  0.95846  1.0000
  H   H459      1.0  0.54477  0.44151  0.96242  1.0000
  C   C291      1.0  0.41071  0.12781  0.90335  1.0000
  Fe  Fe59      1.0  0.67430  0.55583  0.86625  1.0000
  H   H460      1.0  0.48268  0.40943  0.79776  1.0000
  H   H461      1.0  0.50213  0.49461  0.94274  1.0000
  H   H462      1.0  0.49839  0.21274  0.81866  1.0000
  H   H463      1.0  0.60990  0.40987  0.90965  1.0000
  C   C292      1.0  0.54530  0.41673  0.94694  1.0000
  H   H464      1.0  0.54520  0.34990  0.96498  1.0000
  H   H465      1.0  0.69745  0.20294  0.81533  1.0000
  S   S116      1.0  0.42519  0.51639  0.75491  1.0000
  H   H466      1.0  0.58758  0.34422  0.96761  1.0000
  Fe  Fe60      1.0  0.55493  0.30038  0.83748  1.0000
  C   C293      1.0  0.60506  0.17805  0.89013  1.0000
  Fe  Fe61      1.0  0.71651  0.49444  0.84061  1.0000
  H   H467      1.0  0.68736  0.37596  0.87631  1.0000
  H   H468      1.0  0.50342  0.13209  0.91059  1.0000
  H   H469      1.0  0.53795  0.18668  0.74341  1.0000
  C   C294      1.0  0.69373  0.36430  0.91924  1.0000
  H   H470      1.0  0.57414  0.36404  0.90160  1.0000
  H   H471      1.0  0.60971  0.58573  0.86859  1.0000
  H   H472      1.0  0.57612  0.22108  0.91386  1.0000
  C   C295      1.0  0.54365  0.16765  0.77942  1.0000
  H   H473      1.0  0.53010  0.47721  0.84282  1.0000
  H   H474      1.0  0.70710  0.17131  0.94000  1.0000
  H   H475      1.0  0.44614  0.12892  0.96133  1.0000
  C   C296      1.0  0.60025  0.59531  0.90947  1.0000
  N   N31       1.0  0.46665  0.53468  0.94123  1.0000
  C   C297      1.0  0.43894  0.37077  0.74113  1.0000
  C   C298      1.0  0.52048  0.50844  0.76501  1.0000
  H   H476      1.0  0.43059  0.53540  0.88444  1.0000
  S   S117      1.0  0.57354  0.33696  0.76003  1.0000
  C   C299      1.0  0.56695  0.60249  0.92255  1.0000
  H   H477      1.0  0.41997  0.35382  0.83201  1.0000
  H   H478      1.0  0.70317  0.30155  0.89491  1.0000
  C   C300      1.0  0.45989  0.40724  0.88858  1.0000
  H   H479      1.0  0.49448  0.50724  0.77725  1.0000
  H   H480      1.0  0.70376  0.53623  0.97309  1.0000
  H   H481      1.0  0.56486  0.17609  0.79640  1.0000
  C   C301      1.0  0.47500  0.35884  0.95124  1.0000
  H   H482      1.0  0.73150  0.58803  0.92634  1.0000
  H   H483      1.0  0.51018  0.35531  0.80836  1.0000
  S   S118      1.0  0.41837  0.20043  0.76776  1.0000
  S   S119      1.0  0.62513  0.19717  0.82305  1.0000
  C   C302      1.0  0.61268  0.14498  0.90736  1.0000
  S   S120      1.0  0.59875  0.47320  0.83591  1.0000
  C   C303      1.0  0.59918  0.13000  0.96313  1.0000
  C   C304      1.0  0.69988  0.13733  0.81537  1.0000
  H   H484      1.0  0.42377  0.56565  0.93646  1.0000
  H   H485      1.0  0.73254  0.20569  0.84964  1.0000
  H   H486      1.0  0.48657  0.55473  0.85267  1.0000
  H   H487      1.0  0.67624  0.14913  0.80723  1.0000
  S   S121      1.0  0.72355  0.54838  0.81301  1.0000
  C   C305      1.0  0.49643  0.36495  0.84678  1.0000
  H   H488      1.0  0.67354  0.34799  0.94092  1.0000
  C   C306      1.0  0.52405  0.13675  0.87372  1.0000
  C   C307      1.0  0.48820  0.15076  0.80203  1.0000
  S   S122      1.0  0.66158  0.35689  0.77886  1.0000
  H   H489      1.0  0.69471  0.38451  0.94728  1.0000
  C   C308      1.0  0.54055  0.49183  0.80257  1.0000
  S   S123      1.0  0.40182  0.28659  0.83110  1.0000
  H   H490      1.0  0.41617  0.52294  0.96087  1.0000
  H   H491      1.0  0.42749  0.26609  0.95348  1.0000
  H   H492      1.0  0.69508  0.11177  0.83693  1.0000
  H   H493      1.0  0.42743  0.31008  0.93766  1.0000
  H   H494      1.0  0.60215  0.43239  0.97282  1.0000
  C   C309      1.0  0.42888  0.28939  0.97339  1.0000
  C   C310      1.0  0.73265  0.33098  0.96855  1.0000
  H   H495      1.0  0.40228  0.15309  0.90695  1.0000
  C   C311      1.0  0.57935  0.50713  0.14424  1.0000
  C   C312      1.0  0.56135  0.21724  0.13278  1.0000
  H   H496      1.0  0.55076  0.19392  0.01156  1.0000
  H   H497      1.0  0.49687  0.29309  0.04217  1.0000
  H   H498      1.0  0.49820  0.49208  0.13056  1.0000
  C   C313      1.0  0.56872  0.30156  0.08880  1.0000
  H   H499      1.0  0.61558  0.22485  0.22463  1.0000
  S   S124      1.0  0.66731  0.29878  0.18643  1.0000
  C   C314      1.0  0.66188  0.46697  0.17344  1.0000
  C   C315      1.0  0.72113  0.57628  0.04478  1.0000
  S   S125      1.0  0.61285  0.36063  0.19027  1.0000
  H   H500      1.0  0.61977  0.55024  0.07587  1.0000
  H   H501      1.0  0.63249  0.50917  0.05946  1.0000
  H   H502      1.0  0.62645  0.20828  0.10089  1.0000
  C   C316      1.0  0.58866  0.60083  0.19176  1.0000
  C   C317      1.0  0.69580  0.20420  0.13154  1.0000
  S   S126      1.0  0.68761  0.37230  0.20792  1.0000
  C   C318      1.0  0.61677  0.58348  0.20444  1.0000
  C   C319      1.0  0.70528  0.22627  0.08081  1.0000
  H   H503      1.0  0.60607  0.17000  0.11228  1.0000
  H   H504      1.0  0.58643  0.52751  0.16687  1.0000
  S   S127      1.0  0.64963  0.44732  0.11777  1.0000
  H   H505      1.0  0.57611  0.37243  0.06077  1.0000
  C   C320      1.0  0.67408  0.49868  0.16073  1.0000
  H   H506      1.0  0.45298  0.52300  0.03514  1.0000
  C   C321      1.0  0.55698  0.30832  0.14646  1.0000
  N   N32       1.0  0.58093  0.51696  0.08004  1.0000
  H   H507      1.0  0.55041  0.19642  0.11673  1.0000
  H   H508      1.0  0.40503  0.24061  0.05707  1.0000
  N   N33       1.0  0.58546  0.20519  0.17119  1.0000
  H   H509      1.0  0.56255  0.15885  0.20047  1.0000
  C   C322      1.0  0.55661  0.54370  0.07068  1.0000
  H   H510      1.0  0.67435  0.51201  0.11731  1.0000
  Fe  Fe62      1.0  0.65339  0.39324  0.14695  1.0000
  C   C323      1.0  0.64707  0.59762  0.18495  1.0000
  H   H511      1.0  0.59199  0.46760  0.05838  1.0000
  C   C324      1.0  0.57054  0.18052  0.21898  1.0000
  C   C325      1.0  0.57420  0.48828  0.05092  1.0000
  H   H512      1.0  0.43126  0.26579  0.08596  1.0000
  C   C326      1.0  0.50194  0.30551  0.12823  1.0000
  S   S128      1.0  0.46053  0.30576  0.15550  1.0000
  C   C327      1.0  0.47874  0.41197  0.17202  1.0000
  S   S129      1.0  0.55078  0.58272  0.21188  1.0000
  H   H513      1.0  0.69662  0.25175  0.07936  1.0000
  H   H514      1.0  0.61539  0.53697  0.00605  1.0000
  H   H515      1.0  0.57344  0.31117  0.17669  1.0000
  C   C328      1.0  0.61361  0.18988  0.13548  1.0000
  H   H516      1.0  0.47408  0.34528  0.99464  1.0000
  C   C329      1.0  0.49394  0.46802  0.21955  1.0000
  S   S130      1.0  0.67178  0.35982  0.07865  1.0000
  C   C330      1.0  0.59647  0.23306  0.19743  1.0000
  S   S131      1.0  0.61041  0.30057  0.06411  1.0000
  C   C331      1.0  0.49413  0.46909  0.15863  1.0000
  H   H517      1.0  0.57272  0.23322  0.09293  1.0000
  C   C332      1.0  0.70611  0.17104  0.13286  1.0000
  S   S132      1.0  0.69071  0.14250  0.19272  1.0000
  C   C333      1.0  0.55892  0.38946  0.03895  1.0000
  H   H518      1.0  0.55619  0.28947  0.00700  1.0000
  S   S133      1.0  0.48049  0.44472  0.06136  1.0000
  H   H519      1.0  0.46042  0.56609  0.01107  1.0000
  H   H520      1.0  0.71945  0.51121  0.03199  1.0000
  C   C334      1.0  0.72652  0.21567  0.03266  1.0000
  H   H521      1.0  0.69718  0.53662  0.19354  1.0000
  H   H522      1.0  0.60711  0.25244  0.16259  1.0000
  S   S134      1.0  0.65705  0.11913  0.06111  1.0000
  C   C335      1.0  0.51361  0.29796  0.07086  1.0000
  C   C336      1.0  0.72686  0.16026  0.08427  1.0000
  C   C337      1.0  0.68712  0.51266  0.20385  1.0000
  C   C338      1.0  0.40481  0.32437  0.04752  1.0000
  H   H523      1.0  0.56170  0.56595  0.09087  1.0000
  N   N34       1.0  0.40297  0.29228  0.02476  1.0000
  H   H524      1.0  0.54959  0.47882  0.06860  1.0000
  S   S135      1.0  0.56433  0.12997  0.07344  1.0000
  H   H525      1.0  0.69906  0.58575  0.02633  1.0000
  H   H526      1.0  0.66873  0.58403  0.19378  1.0000
  H   H527      1.0  0.47195  0.39048  0.15399  1.0000
  C   C339      1.0  0.48686  0.44102  0.13477  1.0000
  H   H528      1.0  0.73306  0.59811  0.05539  1.0000
  H   H529      1.0  0.67972  0.21266  0.16893  1.0000
  S   S136      1.0  0.40449  0.48669  0.13001  1.0000
  Fe  Fe63      1.0  0.42620  0.44561  0.07864  1.0000
  H   H530      1.0  0.53438  0.37870  0.05182  1.0000
  H   H531      1.0  0.51485  0.31598  0.21055  1.0000
  H   H532      1.0  0.73431  0.35041  0.99757  1.0000
  H   H533      1.0  0.49366  0.53671  0.01211  1.0000
  H   H534      1.0  0.54122  0.23187  0.15649  1.0000
  H   H535      1.0  0.42872  0.32712  0.06100  1.0000
  H   H536      1.0  0.63139  0.17872  0.16356  1.0000
  H   H537      1.0  0.55644  0.55114  0.02278  1.0000
  H   H538      1.0  0.71266  0.56081  0.08706  1.0000
  H   H539      1.0  0.59581  0.48571  0.15354  1.0000
  Fe  Fe64      1.0  0.63462  0.32484  0.12649  1.0000
  H   H540      1.0  0.55452  0.50002  0.16575  1.0000
  Fe  Fe65      1.0  0.70314  0.33658  0.14230  1.0000
  C   C340      1.0  0.52366  0.31045  0.16604  1.0000
  H   H541      1.0  0.53178  0.53631  0.09149  1.0000
  H   H542      1.0  0.72645  0.39462  0.09330  1.0000
  H   H543      1.0  0.55773  0.41328  0.05806  1.0000
  C   C341      1.0  0.54712  0.29568  0.05124  1.0000
  C   C342      1.0  0.61360  0.52889  0.05429  1.0000
  C   C343      1.0  0.40706  0.26524  0.07198  1.0000
  H   H544      1.0  0.57580  0.49473  0.00220  1.0000
  C   C344      1.0  0.46843  0.54040  0.00269  1.0000
  C   C345      1.0  0.72636  0.52845  0.99108  1.0000
  C   C346      1.0  0.57714  0.14769  0.00104  1.0000
  H   H545      1.0  0.44312  0.39837  0.98257  1.0000
  H   H546      1.0  0.57610  0.24485  0.22613  1.0000
  H   H547      1.0  0.40912  0.58932  0.15011  1.0000
  C   C347      1.0  0.56792  0.18019  0.98249  1.0000
  H   H548      1.0  0.71377  0.31360  0.99211  1.0000
  H   H549      1.0  0.73457  0.13453  0.08493  1.0000
  H   H550      1.0  0.61528  0.55900  0.22850  1.0000
  H   H551      1.0  0.45333  0.28961  0.98625  1.0000
  H   H552      1.0  0.61953  0.39122  0.97969  1.0000
  H   H553      1.0  0.47100  0.38881  0.26211  1.0000
  H   H554      1.0  0.50942  0.11600  0.46598  1.0000
  S   S137      1.0  0.49565  0.53571  0.32980  1.0000
  S   S138      1.0  0.47968  0.57490  0.47037  1.0000
  C   C348      1.0  0.63556  0.37148  0.43086  1.0000
  H   H555      1.0  0.65794  0.22655  0.42354  1.0000
  Fe  Fe66      1.0  0.45918  0.28822  0.25104  1.0000
  C   C349      1.0  0.73030  0.34030  0.33098  1.0000
  H   H556      1.0  0.65010  0.42651  0.24088  1.0000
  H   H557      1.0  0.61567  0.24614  0.31909  1.0000
  H   H558      1.0  0.42246  0.12949  0.45305  1.0000
  Fe  Fe67      1.0  0.50157  0.26979  0.34648  1.0000
  H   H559      1.0  0.61655  0.27249  0.42746  1.0000
  S   S139      1.0  0.70904  0.51026  0.30983  1.0000
  C   C350      1.0  0.41853  0.16564  0.27569  1.0000
  C   C351      1.0  0.54926  0.34947  0.46460  1.0000
  C   C352      1.0  0.41158  0.13372  0.26634  1.0000
  H   H560      1.0  0.64237  0.19090  0.33598  1.0000
  C   C353      1.0  0.61558  0.39110  0.34017  1.0000
  C   C354      1.0  0.48552  0.43912  0.25692  1.0000
  C   C355      1.0  0.41666  0.49515  0.35434  1.0000
  Fe  Fe68      1.0  0.64839  0.33701  0.24756  1.0000
  C   C356      1.0  0.44567  0.11675  0.46154  1.0000
  H   H561      1.0  0.70333  0.34817  0.44307  1.0000
  C   C357      1.0  0.61637  0.42856  0.41401  1.0000
  C   C358      1.0  0.71513  0.55326  0.44656  1.0000
  S   S140      1.0  0.56259  0.55211  0.37682  1.0000
  S   S141      1.0  0.49102  0.24425  0.27183  1.0000
  C   C359      1.0  0.49554  0.33235  0.45876  1.0000
  H   H562      1.0  0.40946  0.51780  0.32734  1.0000
  H   H563      1.0  0.73301  0.56044  0.47334  1.0000
  C   C360      1.0  0.52631  0.36518  0.37577  1.0000
  C   C361      1.0  0.46796  0.16842  0.47306  1.0000
  H   H564      1.0  0.53781  0.34300  0.35605  1.0000
  C   C362      1.0  0.62971  0.40308  0.44972  1.0000
  H   H565      1.0  0.65786  0.55238  0.41099  1.0000
  C   C363      1.0  0.60912  0.42222  0.35961  1.0000
  H   H566      1.0  0.60005  0.44165  0.33079  1.0000
  S   S142      1.0  0.60851  0.46806  0.43747  1.0000
  H   H567      1.0  0.48167  0.39713  0.44879  1.0000
  S   S143      1.0  0.43885  0.17171  0.33440  1.0000
  S   S144      1.0  0.48372  0.43875  0.33326  1.0000
  C   C364      1.0  0.55424  0.20727  0.41330  1.0000
  H   H568      1.0  0.71139  0.57492  0.41402  1.0000
  C   C365      1.0  0.62913  0.36577  0.37521  1.0000
  H   H569      1.0  0.46092  0.11533  0.41744  1.0000
  H   H570      1.0  0.72643  0.53288  0.42142  1.0000
  H   H571      1.0  0.56675  0.36977  0.45423  1.0000
  H   H572      1.0  0.58793  0.17134  0.24941  1.0000
  C   C366      1.0  0.66173  0.53289  0.44742  1.0000
  C   C367      1.0  0.72440  0.39601  0.35735  1.0000
  H   H573      1.0  0.43862  0.45969  0.44498  1.0000
  H   H574      1.0  0.50538  0.30903  0.44119  1.0000
  H   H575      1.0  0.67457  0.45059  0.31638  1.0000
  H   H576      1.0  0.69745  0.39471  0.36661  1.0000
  C   C368      1.0  0.41613  0.52318  0.44127  1.0000
  H   H577      1.0  0.50395  0.37182  0.35625  1.0000
  S   S145      1.0  0.55269  0.27164  0.36296  1.0000
  N   N35       1.0  0.40304  0.49543  0.41762  1.0000
  S   S146      1.0  0.63948  0.32782  0.34751  1.0000
  C   C369      1.0  0.73009  0.35027  0.43215  1.0000
  H   H578      1.0  0.64564  0.35191  0.45872  1.0000
  H   H579      1.0  0.41065  0.54737  0.41647  1.0000
  H   H580      1.0  0.67288  0.28289  0.43634  1.0000
  C   C370      1.0  0.50483  0.38952  0.46516  1.0000
  S   S147      1.0  0.52091  0.48694  0.43636  1.0000
  C   C371      1.0  0.60262  0.22646  0.34761  1.0000
  H   H581      1.0  0.69244  0.12164  0.39312  1.0000
  C   C372      1.0  0.70920  0.11706  0.35188  1.0000
  H   H582      1.0  0.54319  0.38588  0.36095  1.0000
  S   S148      1.0  0.56086  0.49045  0.29915  1.0000
  H   H583      1.0  0.40856  0.47346  0.33614  1.0000
  C   C373      1.0  0.68821  0.49503  0.25937  1.0000
  H   H584      1.0  0.55781  0.15795  0.45780  1.0000
  S   S149      1.0  0.47373  0.31584  0.32022  1.0000
  Fe  Fe69      1.0  0.51028  0.48255  0.34620  1.0000
  H   H585      1.0  0.42112  0.11275  0.29215  1.0000
  Fe  Fe70      1.0  0.44756  0.22540  0.33390  1.0000
  H   H586      1.0  0.70055  0.13302  0.31464  1.0000
  S   S150      1.0  0.46002  0.24802  0.41101  1.0000
  H   H587      1.0  0.44290  0.52058  0.43886  1.0000
  H   H588      1.0  0.52153  0.41044  0.45154  1.0000
  H   H589      1.0  0.47230  0.33889  0.44194  1.0000
  N   N36       1.0  0.51897  0.35911  0.44107  1.0000
  S   S151      1.0  0.62246  0.13354  0.41562  1.0000
  H   H590      1.0  0.67116  0.51034  0.42651  1.0000
  C   C374      1.0  0.57073  0.23231  0.37480  1.0000
  H   H591      1.0  0.73344  0.12566  0.35584  1.0000
  Fe  Fe71      1.0  0.51113  0.54088  0.41594  1.0000
  S   S152      1.0  0.69569  0.60631  0.28702  1.0000
  C   C375      1.0  0.61774  0.19535  0.35742  1.0000
  H   H592      1.0  0.70358  0.33937  0.33586  1.0000
  S   S153      1.0  0.41468  0.26786  0.30845  1.0000
  C   C376      1.0  0.67460  0.46399  0.27292  1.0000
  Fe  Fe72      1.0  0.43104  0.29236  0.37960  1.0000
  C   C377      1.0  0.60175  0.17074  0.39766  1.0000
  C   C378      1.0  0.57006  0.17674  0.42594  1.0000
  H   H593      1.0  0.61022  0.38693  0.29759  1.0000
  Fe  Fe73      1.0  0.57144  0.49699  0.38968  1.0000
  H   H594      1.0  0.41409  0.34525  0.31452  1.0000
  Fe  Fe74      1.0  0.54743  0.54443  0.29080  1.0000
  C   C379      1.0  0.61170  0.26648  0.47643  1.0000
  C   C380      1.0  0.47800  0.41105  0.23323  1.0000
  H   H595      1.0  0.52982  0.21197  0.43518  1.0000
  H   H596      1.0  0.44344  0.49337  0.34759  1.0000
  H   H597      1.0  0.49907  0.48996  0.23780  1.0000
  H   H598      1.0  0.47885  0.60995  0.29265  1.0000
  Fe  Fe75      1.0  0.72691  0.56083  0.27722  1.0000
  C   C381      1.0  0.41181  0.46393  0.45083  1.0000
  H   H599      1.0  0.48282  0.16901  0.42817  1.0000
  H   H600      1.0  0.56139  0.32757  0.44474  1.0000
  H   H601      1.0  0.44481  0.18224  0.46821  1.0000
  C   C382      1.0  0.40690  0.19265  0.24108  1.0000
  H   H602      1.0  0.40226  0.39732  0.25635  1.0000
  H   H603      1.0  0.54887  0.19126  0.24602  1.0000
  C   C383      1.0  0.65109  0.22135  0.47242  1.0000
  H   H604      1.0  0.41338  0.21720  0.24549  1.0000
  H   H605      1.0  0.40154  0.44256  0.43508  1.0000
  H   H606      1.0  0.63764  0.52675  0.47412  1.0000
  H   H607      1.0  0.73114  0.40640  0.31027  1.0000
  H   H608      1.0  0.73112  0.41394  0.38576  1.0000
  C   C384      1.0  0.66112  0.45019  0.23008  1.0000
  H   H609      1.0  0.63995  0.34699  0.67042  1.0000
  C   C385      1.0  0.52647  0.26889  0.55327  1.0000
  Fe  Fe76      1.0  0.40821  0.21172  0.67469  1.0000
  Fe  Fe77      1.0  0.63134  0.12781  0.63238  1.0000
  C   C386      1.0  0.72276  0.60350  0.64258  1.0000
  S   S154      1.0  0.56489  0.29937  0.61468  1.0000
  C   C387      1.0  0.72464  0.20442  0.56046  1.0000
  H   H610      1.0  0.40507  0.35633  0.58450  1.0000
  H   H611      1.0  0.65655  0.37172  0.56738  1.0000
  H   H612      1.0  0.59265  0.37933  0.62989  1.0000
  H   H613      1.0  0.66805  0.50777  0.55880  1.0000
  C   C388      1.0  0.70444  0.17895  0.58944  1.0000
  S   S155      1.0  0.71292  0.56201  0.64617  1.0000
  H   H614      1.0  0.64698  0.56499  0.54547  1.0000
  H   H615      1.0  0.68668  0.58089  0.54108  1.0000
  C   C389      1.0  0.56764  0.52823  0.69660  1.0000
  H   H616      1.0  0.65345  0.23159  0.58355  1.0000
  H   H617      1.0  0.44753  0.58062  0.64484  1.0000
  S   S156      1.0  0.44443  0.21649  0.59085  1.0000
  H   H618      1.0  0.40560  0.52457  0.48865  1.0000
  C   C390      1.0  0.65738  0.36630  0.66112  1.0000
  C   C391      1.0  0.43521  0.30572  0.71977  1.0000
  H   H619      1.0  0.62657  0.26701  0.58672  1.0000
  H   H620      1.0  0.41241  0.60002  0.61820  1.0000
  C   C392      1.0  0.57456  0.39464  0.60745  1.0000
  C   C393      1.0  0.53393  0.52597  0.71130  1.0000
  C   C394      1.0  0.70273  0.41614  0.63606  1.0000
  H   H621      1.0  0.58309  0.39600  0.55892  1.0000
  C   C395      1.0  0.45061  0.11096  0.70082  1.0000
  H   H622      1.0  0.43495  0.28037  0.71187  1.0000
  C   C396      1.0  0.69357  0.40182  0.69449  1.0000
  H   H623      1.0  0.68977  0.26496  0.50033  1.0000
  Fe  Fe78      1.0  0.57770  0.29399  0.70672  1.0000
  C   C397      1.0  0.51069  0.26299  0.65947  1.0000
  C   C398      1.0  0.53184  0.27545  0.60904  1.0000
  H   H624      1.0  0.71284  0.25669  0.66703  1.0000
  C   C399      1.0  0.67112  0.37666  0.70690  1.0000
  C   C400      1.0  0.55866  0.42483  0.69198  1.0000
  H   H625      1.0  0.41737  0.14827  0.55439  1.0000
  C   C401      1.0  0.44080  0.13483  0.55852  1.0000
  H   H626      1.0  0.48964  0.32708  0.50784  1.0000
  H   H627      1.0  0.46865  0.23419  0.69341  1.0000
  C   C402      1.0  0.50019  0.25002  0.54806  1.0000
  C   C403      1.0  0.60144  0.44489  0.61410  1.0000
  S   S157      1.0  0.47716  0.45798  0.71328  1.0000
  S   S158      1.0  0.59793  0.15731  0.57797  1.0000
  H   H628      1.0  0.45403  0.32270  0.62869  1.0000
  H   H629      1.0  0.66392  0.59279  0.48231  1.0000
  C   C404      1.0  0.66664  0.38048  0.60275  1.0000
  C   C405      1.0  0.54609  0.44732  0.59617  1.0000
  H   H630      1.0  0.70208  0.15727  0.56784  1.0000
  C   C406      1.0  0.72771  0.23252  0.58834  1.0000
  C   C407      1.0  0.69156  0.20904  0.67507  1.0000
  H   H631      1.0  0.55146  0.38104  0.61740  1.0000
  H   H632      1.0  0.57697  0.41164  0.71700  1.0000
  N   N37       1.0  0.68426  0.54335  0.48433  1.0000
  H   H633      1.0  0.59867  0.47029  0.62763  1.0000
  H   H634      1.0  0.61385  0.51329  0.72279  1.0000
  C   C408      1.0  0.44702  0.36272  0.68310  1.0000
  C   C409      1.0  0.44651  0.32972  0.67285  1.0000
  C   C410      1.0  0.63278  0.24424  0.56464  1.0000
  S   S159      1.0  0.66394  0.14911  0.68521  1.0000
  H   H635      1.0  0.54158  0.47238  0.61110  1.0000
  S   S160      1.0  0.50855  0.54209  0.66071  1.0000
  H   H636      1.0  0.61152  0.22808  0.57762  1.0000
  Fe  Fe79      1.0  0.56000  0.12174  0.62265  1.0000
  N   N38       1.0  0.57019  0.42791  0.62741  1.0000
  C   C411      1.0  0.68948  0.40525  0.59010  1.0000
  H   H637      1.0  0.61132  0.44706  0.56587  1.0000
  Fe  Fe80      1.0  0.61151  0.11985  0.51373  1.0000
  H   H638      1.0  0.67237  0.20906  0.49008  1.0000
  H   H639      1.0  0.70815  0.52226  0.55637  1.0000
  S   S161      1.0  0.70218  0.42124  0.51651  1.0000
  S   S162      1.0  0.62877  0.28039  0.72065  1.0000
  Fe  Fe81      1.0  0.46546  0.50983  0.67955  1.0000
  C   C412      1.0  0.47886  0.23781  0.59845  1.0000
  H   H640      1.0  0.62004  0.43142  0.63800  1.0000
  H   H641      1.0  0.67846  0.21100  0.71915  1.0000
  H   H642      1.0  0.44253  0.13530  0.71220  1.0000
  H   H643      1.0  0.70115  0.49366  0.50688  1.0000
  H   H644      1.0  0.52238  0.43490  0.60412  1.0000
  S   S163      1.0  0.50978  0.13781  0.65970  1.0000
  H   H645      1.0  0.55458  0.45083  0.54744  1.0000
  H   H646      1.0  0.45130  0.60296  0.57263  1.0000
  C   C413      1.0  0.71093  0.23491  0.64550  1.0000
  Fe  Fe82      1.0  0.44184  0.44240  0.66086  1.0000
  S   S164      1.0  0.43365  0.49410  0.61867  1.0000
  H   H647      1.0  0.53581  0.41092  0.70408  1.0000
  H   H648      1.0  0.51367  0.26891  0.70247  1.0000
  S   S165      1.0  0.45474  0.39427  0.62358  1.0000
  C   C414      1.0  0.48457  0.24385  0.65421  1.0000
  H   H649      1.0  0.57816  0.54168  0.65503  1.0000
  H   H650      1.0  0.55384  0.44948  0.70813  1.0000
  C   C415      1.0  0.68811  0.18116  0.64701  1.0000
  H   H651      1.0  0.45265  0.14751  0.58912  1.0000
  H   H652      1.0  0.54238  0.27849  0.51386  1.0000
  H   H653      1.0  0.72586  0.33981  0.65100  1.0000
  H   H654      1.0  0.49952  0.38594  0.51440  1.0000
  H   H655      1.0  0.50599  0.13080  0.53709  1.0000
  H   H656      1.0  0.49622  0.24534  0.50486  1.0000
  H   H657      1.0  0.54456  0.34318  0.51355  1.0000
  C   C416      1.0  0.69065  0.51555  0.52861  1.0000
  H   H658      1.0  0.71998  0.43561  0.62685  1.0000
  H   H659      1.0  0.66051  0.29851  0.50654  1.0000
  H   H660      1.0  0.48102  0.18214  0.50046  1.0000
  H   H661      1.0  0.40282  0.46366  0.49906  1.0000
  C   C417      1.0  0.49310  0.11740  0.50892  1.0000
  N   N39       1.0  0.64072  0.25191  0.49965  1.0000
  C   C418      1.0  0.66970  0.57173  0.51465  1.0000
  C   C419      1.0  0.43866  0.60295  0.61883  1.0000
  H   H662      1.0  0.54430  0.56900  0.49937  1.0000
  C   C420      1.0  0.53725  0.59489  0.49349  1.0000
  C   C421      1.0  0.66721  0.27563  0.48500  1.0000
  C   C422      1.0  0.50605  0.60433  0.48223  1.0000
  H   H663      1.0  0.63573  0.40791  0.49160  1.0000
  H   H664      1.0  0.60321  0.28965  0.49584  1.0000
  N   N40       1.0  0.46188  0.13429  0.50047  1.0000
  H   H665      1.0  0.59132  0.24910  0.48661  1.0000
  H   H666      1.0  0.63131  0.20332  0.48105  1.0000
  C   C423      1.0  0.44600  0.08125  0.93000  1.0000
  C   C424      1.0  0.71818  0.79370  0.73715  1.0000
  C   C425      1.0  0.68239  0.95663  0.91358  1.0000
  Fe  Fe83      1.0  0.69418  0.87808  0.95013  1.0000
  H   H667      1.0  0.41687  0.90363  0.79233  1.0000
  N   N41       1.0  0.60787  0.00783  0.81814  1.0000
  C   C426      1.0  0.69799  0.97997  0.86990  1.0000
  H   H668      1.0  0.62872  0.00033  0.89805  1.0000
  H   H669      1.0  0.52393  0.88901  0.76917  1.0000
  H   H670      1.0  0.63216  0.03860  0.74319  1.0000
  C   C427      1.0  0.60467  0.00432  0.88343  1.0000
  C   C428      1.0  0.69657  0.01863  0.94261  1.0000
  H   H671      1.0  0.52104  0.81103  0.92616  1.0000
  H   H672      1.0  0.65346  0.03197  0.80531  1.0000
  C   C429      1.0  0.55840  0.88400  0.88213  1.0000
  C   C430      1.0  0.57541  0.01409  0.80088  1.0000
  H   H673      1.0  0.71670  0.77785  0.78027  1.0000
  C   C431      1.0  0.44870  0.75829  0.81742  1.0000
  H   H674      1.0  0.50919  0.87123  0.91853  1.0000
  N   N42       1.0  0.65749  0.70582  0.93726  1.0000
  H   H675      1.0  0.56733  0.79540  0.74785  1.0000
  H   H676      1.0  0.69358  0.71818  0.86071  1.0000
  H   H677      1.0  0.57683  0.01686  0.75192  1.0000
  S   S166      1.0  0.50272  0.71857  0.93955  1.0000
  H   H678      1.0  0.47077  0.76237  0.78579  1.0000
  Fe  Fe84      1.0  0.72863  0.81043  0.95835  1.0000
  C   C432      1.0  0.43174  0.06217  0.89547  1.0000
  H   H679      1.0  0.62112  0.82844  0.85541  1.0000
  H   H680      1.0  0.69245  0.67493  0.88804  1.0000
  C   C433      1.0  0.68965  0.70036  0.90152  1.0000
  H   H681      1.0  0.60906  0.88868  0.84514  1.0000
  H   H682      1.0  0.70946  0.70345  0.92703  1.0000
  Fe  Fe85      1.0  0.54176  0.74613  0.96637  1.0000
  C   C434      1.0  0.67431  0.96419  0.97197  1.0000
  C   C435      1.0  0.57208  0.81565  0.89323  1.0000
  C   C436      1.0  0.62252  0.97715  0.79568  1.0000
  H   H683      1.0  0.61847  0.05947  0.80768  1.0000
  C   C437      1.0  0.53368  0.86202  0.90538  1.0000
  H   H684      1.0  0.62983  0.74519  0.97818  1.0000
  C   C438      1.0  0.70529  0.01084  0.88448  1.0000
  C   C439      1.0  0.44761  0.76458  0.87617  1.0000
  H   H685      1.0  0.71730  0.02881  0.85056  1.0000
  C   C440      1.0  0.62889  0.03574  0.79252  1.0000
  H   H686      1.0  0.65447  0.75791  0.90865  1.0000
  H   H687      1.0  0.60607  0.10478  0.97705  1.0000
  Fe  Fe86      1.0  0.50915  0.94427  0.94155  1.0000
  S   S167      1.0  0.67170  0.91874  0.89456  1.0000
  H   H688      1.0  0.58972  0.98280  0.90385  1.0000
  H   H689      1.0  0.55897  0.99348  0.81944  1.0000
  H   H690      1.0  0.60784  0.95536  0.81488  1.0000
  H   H691      1.0  0.54050  0.94635  0.75754  1.0000
  S   S168      1.0  0.46774  0.97582  0.91371  1.0000
  C   C441      1.0  0.58979  0.87179  0.86315  1.0000
  S   S169      1.0  0.47664  0.06412  0.96873  1.0000
  C   C442      1.0  0.40425  0.91500  0.88254  1.0000
  S   S170      1.0  0.55068  0.92680  0.87655  1.0000
  C   C443      1.0  0.40704  0.07573  0.86517  1.0000
  C   C444      1.0  0.41970  0.75790  0.91777  1.0000
  H   H692      1.0  0.46866  0.77409  0.88941  1.0000
  H   H693      1.0  0.67303  0.74738  0.97359  1.0000
  H   H694      1.0  0.70463  0.97408  0.82483  1.0000
  H   H695      1.0  0.42918  0.91575  0.88929  1.0000
  H   H696      1.0  0.43359  0.61171  0.73365  1.0000
  S   S171      1.0  0.58144  0.77309  0.90368  1.0000
  H   H697      1.0  0.69773  0.81226  0.74146  1.0000
  H   H698      1.0  0.63368  0.67200  0.89484  1.0000
  C   C445      1.0  0.55437  0.61632  0.97438  1.0000
  H   H699      1.0  0.63312  0.71434  0.86141  1.0000
  H   H700      1.0  0.56352  0.87466  0.73802  1.0000
  C   C446      1.0  0.63186  0.69823  0.90418  1.0000
  H   H701      1.0  0.43997  0.03710  0.89115  1.0000
  C   C447      1.0  0.42154  0.74614  0.79998  1.0000
  S   S172      1.0  0.70417  0.05792  0.95990  1.0000
  H   H702      1.0  0.62630  0.80535  0.73575  1.0000
  H   H703      1.0  0.64711  0.97184  0.80736  1.0000
  H   H704      1.0  0.59300  0.02670  0.90210  1.0000
  C   C448      1.0  0.59666  0.83768  0.86899  1.0000
  C   C449      1.0  0.65359  0.74057  0.94999  1.0000
  H   H705      1.0  0.60725  0.70244  0.92952  1.0000
  C   C450      1.0  0.54046  0.82788  0.91026  1.0000
  H   H706      1.0  0.62492  0.97869  0.74665  1.0000
  H   H707      1.0  0.56366  0.03707  0.81709  1.0000
  S   S173      1.0  0.67637  0.82673  0.97809  1.0000
  H   H708      1.0  0.56262  0.84284  0.13486  1.0000
  S   S174      1.0  0.65529  0.82287  0.15459  1.0000
  H   H709      1.0  0.44163  0.84403  0.08262  1.0000
  S   S175      1.0  0.53204  0.73480  0.18475  1.0000
  C   C451      1.0  0.41868  0.85907  0.08292  1.0000
  H   H710      1.0  0.53983  0.86508  0.04331  1.0000
  S   S176      1.0  0.50799  0.77151  0.03420  1.0000
  S   S177      1.0  0.44379  0.98255  0.05520  1.0000
  C   C452      1.0  0.56602  0.75985  0.17447  1.0000
  C   C453      1.0  0.65487  0.68397  0.99362  1.0000
  Fe  Fe87      1.0  0.60762  0.09953  0.09486  1.0000
  C   C454      1.0  0.61477  0.78283  0.11347  1.0000
  C   C455      1.0  0.64940  0.62921  0.15396  1.0000
  H   H711      1.0  0.58173  0.75258  0.08291  1.0000
  H   H712      1.0  0.46805  0.03413  0.21226  1.0000
  H   H713      1.0  0.40843  0.79337  0.10220  1.0000
  C   C456      1.0  0.55150  0.88882  0.04501  1.0000
  H   H714      1.0  0.53354  0.90461  0.07084  1.0000
  S   S178      1.0  0.47609  0.69941  0.08171  1.0000
  S   S179      1.0  0.52115  0.97897  0.00271  1.0000
  S   S180      1.0  0.61871  0.99407  0.22590  1.0000
  H   H715      1.0  0.57944  0.93237  0.09827  1.0000
  Fe  Fe88      1.0  0.68778  0.83377  0.06733  1.0000
  C   C457      1.0  0.57279  0.86769  0.13348  1.0000
  C   C458      1.0  0.45261  0.01794  0.19369  1.0000
  C   C459      1.0  0.59612  0.91555  0.07197  1.0000
  H   H716      1.0  0.59343  0.83783  0.03462  1.0000
  Fe  Fe89      1.0  0.63404  0.03906  0.16277  1.0000
  Fe  Fe90      1.0  0.67245  0.06735  0.04519  1.0000
  Fe  Fe91      1.0  0.51160  0.67865  0.01061  1.0000
  C   C460      1.0  0.52645  0.95204  0.18723  1.0000
  H   H717      1.0  0.56902  0.64646  0.15272  1.0000
  H   H718      1.0  0.69964  0.86275  0.22356  1.0000
  Fe  Fe92      1.0  0.71961  0.62357  0.19494  1.0000
  C   C461      1.0  0.60419  0.86196  0.03703  1.0000
  H   H719      1.0  0.63095  0.78562  0.07159  1.0000
  H   H720      1.0  0.61889  0.91233  0.09132  1.0000
  H   H721      1.0  0.59439  0.86446  0.15622  1.0000
  C   C462      1.0  0.60035  0.79430  0.21525  1.0000
  S   S181      1.0  0.55420  0.70387  0.03090  1.0000
  C   C463      1.0  0.58172  0.97936  0.21432  1.0000
  H   H722      1.0  0.56507  0.63234  0.05431  1.0000
  H   H723      1.0  0.41410  0.86398  0.03637  1.0000
  C   C464      1.0  0.62152  0.79797  0.16122  1.0000
  C   C465      1.0  0.57500  0.62248  0.01343  1.0000
  C   C466      1.0  0.59083  0.63266  0.16140  1.0000
  Fe  Fe93      1.0  0.51819  0.72767  0.09724  1.0000
  H   H724      1.0  0.62649  0.85681  0.05721  1.0000
  C   C467      1.0  0.56530  0.99561  0.17057  1.0000
  H   H725      1.0  0.57358  0.01878  0.14721  1.0000
  C   C468      1.0  0.53803  0.98176  0.15636  1.0000
  H   H726      1.0  0.55682  0.90121  0.99896  1.0000
  S   S182      1.0  0.61647  0.08894  0.18829  1.0000
  H   H727      1.0  0.55428  0.88267  0.16028  1.0000
  H   H728      1.0  0.46843  0.99754  0.17616  1.0000
  C   C469      1.0  0.65365  0.90992  0.20447  1.0000
  H   H729      1.0  0.44372  0.03261  0.15533  1.0000
  N   N43       1.0  0.58118  0.88349  0.07196  1.0000
  H   H730      1.0  0.62987  0.68501  0.01902  1.0000
  S   S183      1.0  0.62200  0.04879  0.07063  1.0000
  H   H731      1.0  0.62793  0.91879  0.21014  1.0000
  Fe  Fe94      1.0  0.46939  0.74126  0.01158  1.0000
  S   S184      1.0  0.70179  0.88636  0.04076  1.0000
  C   C470      1.0  0.60821  0.61469  0.00085  1.0000
  Fe  Fe95      1.0  0.66712  0.10468  0.15292  1.0000
  H   H732      1.0  0.62377  0.61833  0.03243  1.0000
  S   S185      1.0  0.68754  0.64685  0.13166  1.0000
  H   H733      1.0  0.67489  0.00088  0.03159  1.0000
  S   S186      1.0  0.47769  0.91322  0.01334  1.0000
  S   S187      1.0  0.68603  0.05386  0.13546  1.0000
  Fe  Fe96      1.0  0.48655  0.95028  0.07285  1.0000
  H   H734      1.0  0.52610  0.99413  0.12131  1.0000
  C   C471      1.0  0.62117  0.64693  0.14281  1.0000
  H   H735      1.0  0.61149  0.87352  0.99062  1.0000
  H   H736      1.0  0.66870  0.93121  0.18347  1.0000
  S   S188      1.0  0.49445  0.93279  0.16580  1.0000
  C   C472      1.0  0.68126  0.99520  0.98642  1.0000
  Fe  Fe97      1.0  0.43715  0.94754  0.99094  1.0000
  C   C473      1.0  0.58688  0.76402  0.11997  1.0000
  H   H737      1.0  0.66215  0.94635  0.00581  1.0000
  H   H738      1.0  0.62259  0.67189  0.12110  1.0000
  H   H739      1.0  0.42131  0.95972  0.20176  1.0000
  S   S189      1.0  0.42010  0.75986  0.99312  1.0000
  H   H740      1.0  0.65659  0.89091  0.17308  1.0000
  H   H741      1.0  0.42247  0.88332  0.09788  1.0000
  H   H742      1.0  0.67179  0.69098  0.02235  1.0000
  H   H743      1.0  0.42033  0.81943  0.18533  1.0000
  H   H744      1.0  0.60232  0.92824  0.02615  1.0000
  S   S190      1.0  0.51301  0.62608  0.99044  1.0000
  Fe  Fe98      1.0  0.47741  0.00862  0.98005  1.0000
  C   C474      1.0  0.40672  0.98237  0.21312  1.0000
  H   H745      1.0  0.49768  0.67093  0.20993  1.0000
  H   H746      1.0  0.40308  0.85949  0.19978  1.0000
  C   C475      1.0  0.57272  0.77530  0.22187  1.0000
  H   H747      1.0  0.45837  0.65317  0.22055  1.0000
  H   H748      1.0  0.62646  0.72622  0.22648  1.0000
  S   S191      1.0  0.40651  0.74303  0.22359  1.0000
  H   H749      1.0  0.63942  0.68362  0.22805  1.0000
  H   H750      1.0  0.46198  0.69595  0.22898  1.0000
  H   H751      1.0  0.66095  0.65788  0.98587  1.0000
  H   H752      1.0  0.44209  0.65482  0.38367  1.0000
  S   S192      1.0  0.72528  0.65387  0.39728  1.0000
  H   H753      1.0  0.53793  0.01891  0.30954  1.0000
  C   C476      1.0  0.53336  0.03755  0.41919  1.0000
  H   H754      1.0  0.70284  0.06473  0.43541  1.0000
  C   C477      1.0  0.67815  0.07211  0.33407  1.0000
  C   C478      1.0  0.63292  0.66975  0.34536  1.0000
  C   C479      1.0  0.43844  0.98690  0.28996  1.0000
  H   H755      1.0  0.56742  0.98458  0.37827  1.0000
  H   H756      1.0  0.61045  0.88864  0.40950  1.0000
  C   C480      1.0  0.54544  0.93176  0.47525  1.0000
  H   H757      1.0  0.66983  0.08745  0.29573  1.0000
  N   N44       1.0  0.42551  0.00499  0.23886  1.0000
  C   C481      1.0  0.58542  0.89567  0.42373  1.0000
  C   C482      1.0  0.58264  0.06572  0.37675  1.0000
  H   H758      1.0  0.49240  0.62149  0.35709  1.0000
  H   H759      1.0  0.64429  0.84807  0.26299  1.0000
  Fe  Fe99      1.0  0.70858  0.90265  0.44395  1.0000
  H   H760      1.0  0.53199  0.91433  0.25917  1.0000
  H   H761      1.0  0.50894  0.87086  0.42433  1.0000
  C   C483      1.0  0.47308  0.67076  0.23735  1.0000
  H   H762      1.0  0.66679  0.91281  0.34528  1.0000
  H   H763      1.0  0.65924  0.01625  0.42724  1.0000
  H   H764      1.0  0.67832  0.04576  0.32588  1.0000
  C   C484      1.0  0.58151  0.00637  0.38252  1.0000
  C   C485      1.0  0.52824  0.88521  0.43327  1.0000
  H   H765      1.0  0.51835  0.68843  0.29581  1.0000
  C   C486      1.0  0.40811  0.89482  0.39163  1.0000
  H   H766      1.0  0.65840  0.67415  0.34941  1.0000
  C   C487      1.0  0.69694  0.88350  0.25156  1.0000
  Fe  Fe100     1.0  0.42775  0.01882  0.47265  1.0000
  S   S193      1.0  0.41513  0.05383  0.39772  1.0000
  H   H767      1.0  0.58071  0.93841  0.28315  1.0000
  C   C488      1.0  0.61776  0.72768  0.34534  1.0000
  S   S194      1.0  0.69396  0.95464  0.41384  1.0000
  H   H768      1.0  0.70372  0.70459  0.47164  1.0000
  H   H769      1.0  0.72263  0.69398  0.28601  1.0000
  H   H770      1.0  0.60512  0.80633  0.25219  1.0000
  H   H771      1.0  0.60440  0.06690  0.34161  1.0000
  C   C489      1.0  0.56056  0.87652  0.41316  1.0000
  C   C490      1.0  0.54128  0.93703  0.23423  1.0000
  N   N45       1.0  0.61827  0.69849  0.31283  1.0000
  H   H772      1.0  0.72746  0.09129  0.24871  1.0000
  C   C491      1.0  0.66727  0.96835  0.47321  1.0000
  H   H773      1.0  0.51682  0.62971  0.28553  1.0000
  C   C492      1.0  0.52070  0.91259  0.46469  1.0000
  C   C493      1.0  0.66019  0.92251  0.30150  1.0000
  H   H774      1.0  0.51096  0.68730  0.47649  1.0000
  H   H775      1.0  0.45813  0.77081  0.26763  1.0000
  H   H776      1.0  0.47250  0.64493  0.46770  1.0000
  S   S195      1.0  0.69868  0.80571  0.33671  1.0000
  H   H777      1.0  0.71393  0.90300  0.22946  1.0000
  H   H778      1.0  0.61936  0.66422  0.39104  1.0000
  H   H779      1.0  0.61554  0.87757  0.29509  1.0000
  H   H780      1.0  0.64696  0.85929  0.33406  1.0000
  H   H781      1.0  0.56896  0.08968  0.37138  1.0000
  C   C494      1.0  0.43965  0.76300  0.30486  1.0000
  Fe  Fe101     1.0  0.54249  0.80085  0.44117  1.0000
  S   S196      1.0  0.56965  0.84025  0.37929  1.0000
  H   H782      1.0  0.54007  0.03583  0.46432  1.0000
  H   H783      1.0  0.71255  0.75391  0.26234  1.0000
  H   H784      1.0  0.66262  0.71238  0.25526  1.0000
  C   C495      1.0  0.65417  0.00051  0.46850  1.0000
  H   H785      1.0  0.46748  0.77460  0.36997  1.0000
  C   C496      1.0  0.44514  0.76477  0.36277  1.0000
  H   H786      1.0  0.41860  0.97594  0.32409  1.0000
  H   H787      1.0  0.42892  0.88022  0.40333  1.0000
  H   H788      1.0  0.59716  0.93773  0.46382  1.0000
  H   H789      1.0  0.51800  0.06029  0.41288  1.0000
  H   H790      1.0  0.56976  0.68525  0.35211  1.0000
  S   S197      1.0  0.52525  0.75325  0.41951  1.0000
  H   H791      1.0  0.42705  0.64192  0.32174  1.0000
  C   C497      1.0  0.44170  0.66079  0.33539  1.0000
  C   C498      1.0  0.55242  0.04036  0.31418  1.0000
  C   C499      1.0  0.73429  0.07657  0.28887  1.0000
  H   H792      1.0  0.60311  0.72354  0.39031  1.0000
  C   C500      1.0  0.69984  0.74927  0.41258  1.0000
  H   H793      1.0  0.58841  0.00268  0.42758  1.0000
  H   H794      1.0  0.55639  0.77285  0.26373  1.0000
  H   H795      1.0  0.57279  0.71214  0.28385  1.0000
  C   C501      1.0  0.42208  0.75311  0.41098  1.0000
  H   H796      1.0  0.69309  0.76484  0.44747  1.0000
  C   C502      1.0  0.57787  0.92323  0.45503  1.0000
  H   H797      1.0  0.48207  0.71205  0.31386  1.0000
  H   H798      1.0  0.41805  0.05160  0.27426  1.0000
  H   H799      1.0  0.59129  0.06384  0.42027  1.0000
  Fe  Fe102     1.0  0.70916  0.83290  0.40976  1.0000
  H   H800      1.0  0.51809  0.01604  0.41851  1.0000
  S   S198      1.0  0.45255  0.97105  0.45221  1.0000
  C   C503      1.0  0.49336  0.68705  0.32110  1.0000
  H   H801      1.0  0.72180  0.03474  0.38868  1.0000
  N   N46       1.0  0.56250  0.03752  0.37314  1.0000
  H   H802      1.0  0.64258  0.73381  0.35089  1.0000
  H   H803      1.0  0.60423  0.00578  0.34976  1.0000
  C   C504      1.0  0.70295  0.76318  0.35367  1.0000
  C   C505      1.0  0.49141  0.62934  0.30948  1.0000
  C   C506      1.0  0.72041  0.06155  0.39435  1.0000
  C   C507      1.0  0.56897  0.95063  0.24766  1.0000
  C   C508      1.0  0.71485  0.69549  0.38031  1.0000
  C   C509      1.0  0.41095  0.74996  0.29523  1.0000
  H   H804      1.0  0.57380  0.04099  0.27831  1.0000
  H   H805      1.0  0.63305  0.64721  0.32251  1.0000
  H   H806      1.0  0.63497  0.93286  0.30984  1.0000
  C   C510      1.0  0.71055  0.74311  0.30803  1.0000
  H   H807      1.0  0.42853  0.68494  0.32926  1.0000
  H   H808      1.0  0.58431  0.66935  0.28244  1.0000
  H   H809      1.0  0.60719  0.74992  0.32171  1.0000
  C   C511      1.0  0.58476  0.69093  0.30762  1.0000
  C   C512      1.0  0.64148  0.86926  0.28956  1.0000
  H   H810      1.0  0.53751  0.06325  0.30588  1.0000
  C   C513      1.0  0.71650  0.70925  0.32140  1.0000
  H   H811      1.0  0.65979  0.07553  0.37391  1.0000
  N   N47       1.0  0.71053  0.08181  0.34229  1.0000
  H   H812      1.0  0.70501  0.87371  0.29392  1.0000
  H   H813      1.0  0.41668  0.88404  0.30092  1.0000
  N   N48       1.0  0.47483  0.66195  0.30088  1.0000
  H   H814      1.0  0.49484  0.68183  0.36901  1.0000
  C   C514      1.0  0.40413  0.03276  0.25870  1.0000
  H   H815      1.0  0.45175  0.00347  0.31198  1.0000
  H   H816      1.0  0.67636  0.94331  0.28272  1.0000
  C   C515      1.0  0.70557  0.71533  0.42601  1.0000
  H   H817      1.0  0.45535  0.96622  0.27618  1.0000
  C   C516      1.0  0.63750  0.70546  0.25307  1.0000
  N   N49       1.0  0.66306  0.89632  0.26174  1.0000
  S   S199      1.0  0.67174  0.86328  0.46198  1.0000
  C   C517      1.0  0.49659  0.63764  0.47660  1.0000
  S   S200      1.0  0.73093  0.88615  0.52515  1.0000
  C   C518      1.0  0.58004  0.80648  0.70580  1.0000
  Fe  Fe103     1.0  0.48173  0.76207  0.48827  1.0000
  S   S201      1.0  0.40921  0.02559  0.68813  1.0000
  C   C519      1.0  0.57994  0.82856  0.60369  1.0000
  H   H818      1.0  0.56703  0.83551  0.56685  1.0000
  H   H819      1.0  0.59713  0.70446  0.66804  1.0000
  S   S202      1.0  0.53572  0.96684  0.51231  1.0000
  S   S203      1.0  0.64793  0.09295  0.56489  1.0000
  H   H820      1.0  0.42368  0.80144  0.56165  1.0000
  H   H821      1.0  0.51508  0.95184  0.64059  1.0000
  C   C520      1.0  0.51848  0.66162  0.48125  1.0000
  C   C521      1.0  0.65153  0.68794  0.59507  1.0000
  H   H822      1.0  0.70642  0.67075  0.71830  1.0000
  C   C522      1.0  0.65658  0.72812  0.66164  1.0000
  C   C523      1.0  0.48301  0.10504  0.67630  1.0000
  N   N50       1.0  0.44454  0.63351  0.64347  1.0000
  H   H823      1.0  0.67739  0.74664  0.54812  1.0000
  Fe  Fe104     1.0  0.60585  0.06276  0.61099  1.0000
  H   H824      1.0  0.43647  0.68600  0.62457  1.0000
  C   C524      1.0  0.54989  0.65230  0.49151  1.0000
  H   H825      1.0  0.40441  0.77773  0.62723  1.0000
  C   C525      1.0  0.47077  0.04850  0.66836  1.0000
  S   S204      1.0  0.59200  0.09536  0.68259  1.0000
  H   H826      1.0  0.62543  0.84467  0.55467  1.0000
  C   C526      1.0  0.49329  0.07348  0.66203  1.0000
  H   H827      1.0  0.66959  0.92259  0.52992  1.0000
  C   C527      1.0  0.41048  0.82251  0.70203  1.0000
  H   H828      1.0  0.59643  0.74755  0.64075  1.0000
  C   C528      1.0  0.63513  0.01247  0.51780  1.0000
  H   H829      1.0  0.43460  0.81369  0.71335  1.0000
  H   H830      1.0  0.68351  0.72722  0.64981  1.0000
  H   H831      1.0  0.56053  0.96504  0.68754  1.0000
  C   C529      1.0  0.70849  0.62289  0.68671  1.0000
  C   C530      1.0  0.43393  0.66254  0.60571  1.0000
  H   H832      1.0  0.64985  0.70988  0.70115  1.0000
  H   H833      1.0  0.73180  0.84979  0.66399  1.0000
  H   H834      1.0  0.47865  0.02433  0.65585  1.0000
  C   C531      1.0  0.60530  0.72261  0.62905  1.0000
  C   C532      1.0  0.71707  0.65596  0.68373  1.0000
  C   C533      1.0  0.63015  0.82488  0.64364  1.0000
  C   C534      1.0  0.64116  0.95961  0.57569  1.0000
  H   H835      1.0  0.64938  0.75315  0.67466  1.0000
  H   H836      1.0  0.50243  0.91008  0.64642  1.0000
  C   C535      1.0  0.62933  0.99224  0.57174  1.0000
  S   S205      1.0  0.57714  0.68258  0.49627  1.0000
  C   C536      1.0  0.66004  0.94763  0.52628  1.0000
  S   S206      1.0  0.57088  0.08663  0.55397  1.0000
  C   C537      1.0  0.56711  0.91045  0.63214  1.0000
  H   H837      1.0  0.48825  0.61410  0.67437  1.0000
  S   S207      1.0  0.67258  0.82650  0.63240  1.0000
  S   S208      1.0  0.60920  0.00845  0.63501  1.0000
  C   C538      1.0  0.65055  0.74609  0.56048  1.0000
  S   S209      1.0  0.44765  0.95159  0.59637  1.0000
  C   C539      1.0  0.43806  0.05492  0.68989  1.0000
  H   H838      1.0  0.40288  0.09093  0.72469  1.0000
  H   H839      1.0  0.63667  0.94393  0.61730  1.0000
  H   H840      1.0  0.59280  0.71709  0.59246  1.0000
  H   H841      1.0  0.59070  0.89956  0.64254  1.0000
  C   C540      1.0  0.56361  0.81375  0.65743  1.0000
  C   C541      1.0  0.42189  0.79761  0.61067  1.0000
  Fe  Fe105     1.0  0.69627  0.84455  0.53969  1.0000
  S   S210      1.0  0.52363  0.80196  0.66159  1.0000
  S   S211      1.0  0.49719  0.81161  0.50397  1.0000
  H   H842      1.0  0.62542  0.03746  0.51429  1.0000
  H   H843      1.0  0.48947  0.09199  0.53173  1.0000
  H   H844      1.0  0.42714  0.87818  0.62955  1.0000
  C   C542      1.0  0.47951  0.63546  0.64572  1.0000
  C   C543      1.0  0.61340  0.81203  0.69885  1.0000
  S   S212      1.0  0.43023  0.75122  0.48339  1.0000
  Fe  Fe106     1.0  0.42428  0.00178  0.60494  1.0000
  S   S213      1.0  0.56880  0.77622  0.51220  1.0000
  C   C544      1.0  0.42592  0.63308  0.70387  1.0000
  H   H845      1.0  0.52876  0.86613  0.70640  1.0000
  H   H846      1.0  0.58341  0.61159  0.50652  1.0000
  N   N51       1.0  0.54426  0.91621  0.68646  1.0000
  H   H847      1.0  0.64016  0.74101  0.52107  1.0000
  H   H848      1.0  0.67836  0.68604  0.58155  1.0000
  C   C545      1.0  0.51264  0.92819  0.67035  1.0000
  H   H849      1.0  0.43533  0.10943  0.58023  1.0000
  H   H850      1.0  0.49568  0.91847  0.48129  1.0000
  C   C546      1.0  0.61311  0.83407  0.59681  1.0000
  H   H851      1.0  0.64485  0.66845  0.63267  1.0000
  H   H852      1.0  0.51841  0.06839  0.64495  1.0000
  H   H853      1.0  0.44599  0.78826  0.62123  1.0000
  H   H854      1.0  0.45957  0.84729  0.62244  1.0000
  N   N52       1.0  0.64096  0.72116  0.61160  1.0000
  H   H855      1.0  0.55705  0.89341  0.60600  1.0000
  H   H856      1.0  0.57230  0.93387  0.60250  1.0000
  S   S214      1.0  0.50328  0.73525  0.56405  1.0000
  H   H857      1.0  0.40812  0.66086  0.60043  1.0000
  C   C547      1.0  0.43488  0.85428  0.61205  1.0000
  H   H858      1.0  0.49434  0.63495  0.60108  1.0000
  H   H859      1.0  0.48488  0.65860  0.66292  1.0000
  Fe  Fe107     1.0  0.52240  0.78411  0.57383  1.0000
  C   C548      1.0  0.55726  0.94128  0.71662  1.0000
  S   S215      1.0  0.46101  0.02782  0.53497  1.0000
  H   H860      1.0  0.64197  0.77133  0.57058  1.0000
  H   H861      1.0  0.64013  0.68191  0.55736  1.0000
  H   H862      1.0  0.43696  0.85863  0.56297  1.0000
  S   S216      1.0  0.73119  0.81083  0.48841  1.0000
  Fe  Fe108     1.0  0.54774  0.72977  0.49662  1.0000
  H   H863      1.0  0.44844  0.66473  0.56058  1.0000
  C   C549      1.0  0.42814  0.08585  0.70787  1.0000
  C   C550      1.0  0.55929  0.61891  0.49785  1.0000
  Fe  Fe109     1.0  0.48216  0.97733  0.52226  1.0000
  Fe  Fe110     1.0  0.41643  0.94873  0.52701  1.0000
  N   N53       1.0  0.41149  0.82833  0.63724  1.0000
  H   H864      1.0  0.49460  0.93254  0.71017  1.0000
  H   H865      1.0  0.71414  0.77787  0.70302  1.0000
  H   H866      1.0  0.42920  0.65614  0.72342  1.0000
  H   H867      1.0  0.69099  0.61233  0.72321  1.0000
  C   C551      1.0  0.53994  0.88515  0.72670  1.0000
  H   H868      1.0  0.40332  0.84544  0.72324  1.0000
  H   H869      1.0  0.43984  0.09122  0.48141  1.0000
  S   S217      1.0  0.42399  0.73541  0.72811  1.0000
  H   H870      1.0  0.58116  0.93308  0.72932  1.0000
  C   C552      1.0  0.85628  0.54583  0.90031  1.0000
  H   H871      1.0  0.01174  0.52460  0.88622  1.0000
  C   C553      1.0  0.93223  0.18829  0.96904  1.0000
  C   C554      1.0  0.02971  0.39366  0.92656  1.0000
  H   H872      1.0  0.04886  0.55457  0.93473  1.0000
  Fe  Fe111     1.0  0.93982  0.45948  0.96382  1.0000
  Fe  Fe112     1.0  0.04209  0.14557  0.79207  1.0000
  Fe  Fe113     1.0  0.78949  0.23377  0.92357  1.0000
  H   H873      1.0  0.74438  0.11486  0.88360  1.0000
  C   C555      1.0  0.95185  0.35393  0.76625  1.0000
  C   C556      1.0  0.75091  0.36808  0.88118  1.0000
  H   H874      1.0  0.87879  0.48407  0.88538  1.0000
  H   H875      1.0  0.00305  0.32590  0.81607  1.0000
  Fe  Fe114     1.0  0.83224  0.19396  0.83648  1.0000
  C   C557      1.0  0.98715  0.16911  0.97916  1.0000
  H   H876      1.0  0.98676  0.36213  0.85036  1.0000
  H   H877      1.0  0.04573  0.58968  0.88086  1.0000
  C   C558      1.0  0.80569  0.42622  0.80478  1.0000
  H   H878      1.0  0.76601  0.60061  0.95419  1.0000
  C   C559      1.0  0.85529  0.11789  0.81231  1.0000
  H   H879      1.0  0.97207  0.41262  0.78613  1.0000
  H   H880      1.0  0.87950  0.55593  0.90709  1.0000
  S   S218      1.0  0.85086  0.31596  0.77397  1.0000
  C   C560      1.0  0.00234  0.41423  0.92177  1.0000
  H   H881      1.0  0.93806  0.29727  0.94160  1.0000
  N   N54       1.0  0.86052  0.52991  0.84510  1.0000
  C   C561      1.0  0.99288  0.16213  0.92027  1.0000
  C   C562      1.0  0.86709  0.11892  0.86543  1.0000
  C   C563      1.0  0.75296  0.57872  0.94693  1.0000
  N   N55       1.0  0.98564  0.36494  0.75696  1.0000
  H   H882      1.0  0.02959  0.37489  0.96379  1.0000
  C   C564      1.0  0.05705  0.42137  0.83430  1.0000
  H   H883      1.0  0.79114  0.35544  0.73683  1.0000
  H   H884      1.0  0.99213  0.57006  0.97056  1.0000
  H   H885      1.0  0.89356  0.56641  0.79745  1.0000
  H   H886      1.0  0.06061  0.58307  0.77305  1.0000
  C   C565      1.0  0.87051  0.55478  0.79391  1.0000
  H   H887      1.0  0.03035  0.46178  0.79373  1.0000
  C   C566      1.0  0.00295  0.43967  0.87526  1.0000
  C   C567      1.0  0.03007  0.44285  0.83081  1.0000
  H   H888      1.0  0.01113  0.41030  0.74039  1.0000
  S   S219      1.0  0.97005  0.46776  0.87395  1.0000
  H   H889      1.0  0.06437  0.49922  0.90232  1.0000
  H   H890      1.0  0.98075  0.41020  0.95400  1.0000
  C   C568      1.0  0.82960  0.51563  0.83895  1.0000
  H   H891      1.0  0.02078  0.26649  0.96521  1.0000
  H   H892      1.0  0.88979  0.49080  0.80637  1.0000
  H   H893      1.0  0.76459  0.49322  0.74810  1.0000
  S   S220      1.0  0.81931  0.18722  0.93535  1.0000
  H   H894      1.0  0.06381  0.28423  0.78125  1.0000
  Fe  Fe115     1.0  0.84141  0.26783  0.83132  1.0000
  C   C569      1.0  0.00075  0.35326  0.80957  1.0000
  H   H895      1.0  0.75623  0.31688  0.96410  1.0000
  H   H896      1.0  0.80819  0.41189  0.84650  1.0000
  H   H897      1.0  0.75382  0.38791  0.90911  1.0000
  H   H898      1.0  0.00959  0.56000  0.83251  1.0000
  H   H899      1.0  0.97785  0.28545  0.90538  1.0000
  H   H900      1.0  0.74192  0.51400  0.95840  1.0000
  C   C570      1.0  0.05711  0.39728  0.88294  1.0000
  H   H901      1.0  0.77478  0.35471  0.87257  1.0000
  H   H902      1.0  0.95080  0.32652  0.77196  1.0000
  H   H903      1.0  0.97194  0.16099  0.84124  1.0000
  H   H904      1.0  0.87416  0.54379  0.75129  1.0000
  S   S221      1.0  0.87575  0.22403  0.83491  1.0000
  H   H905      1.0  0.02173  0.52023  0.80880  1.0000
  H   H906      1.0  0.76069  0.15438  0.88721  1.0000
  S   S222      1.0  0.82993  0.26645  0.92996  1.0000
  C   C571      1.0  0.96787  0.16693  0.88646  1.0000
  C   C572      1.0  0.95948  0.28038  0.94588  1.0000
  H   H907      1.0  0.93712  0.36332  0.80598  1.0000
  C   C573      1.0  0.82417  0.41746  0.75191  1.0000
  S   S223      1.0  0.83386  0.15199  0.78188  1.0000
  C   C574      1.0  0.02375  0.53685  0.84281  1.0000
  H   H908      1.0  0.95128  0.25478  0.94664  1.0000
  H   H909      1.0  0.82117  0.49683  0.87704  1.0000
  H   H910      1.0  0.83842  0.56693  0.89933  1.0000
  C   C575      1.0  0.78320  0.45276  0.80324  1.0000
  H   H911      1.0  0.00286  0.32482  0.95901  1.0000
  H   H912      1.0  0.74804  0.35934  0.73531  1.0000
  H   H913      1.0  0.74569  0.30396  0.86690  1.0000
  S   S224      1.0  0.75741  0.46175  0.86784  1.0000
  H   H914      1.0  0.86447  0.14120  0.88673  1.0000
  H   H915      1.0  0.91822  0.18250  0.88522  1.0000
  H   H916      1.0  0.83212  0.50311  0.79801  1.0000
  H   H917      1.0  0.85195  0.57517  0.79049  1.0000
  H   H918      1.0  0.76361  0.13845  0.81723  1.0000
  H   H919      1.0  0.02569  0.36271  0.80478  1.0000
  H   H920      1.0  0.74537  0.38065  0.83825  1.0000
  C   C576      1.0  0.78098  0.47192  0.74953  1.0000
  C   C577      1.0  0.05931  0.56595  0.88969  1.0000
  C   C578      1.0  0.88576  0.50331  0.84738  1.0000
  N   N56       1.0  0.05798  0.54359  0.84436  1.0000
  S   S225      1.0  0.73954  0.24412  0.97098  1.0000
  Fe  Fe116     1.0  0.86104  0.22003  0.93337  1.0000
  H   H921      1.0  0.76912  0.56508  0.91398  1.0000
  C   C579      1.0  0.93745  0.17955  0.91121  1.0000
  H   H922      1.0  0.84793  0.52802  0.93978  1.0000
  H   H923      1.0  0.80997  0.53488  0.83626  1.0000
  S   S226      1.0  0.79895  0.23807  0.82462  1.0000
  S   S227      1.0  0.03150  0.14737  0.89048  1.0000
  C   C580      1.0  0.74757  0.14035  0.86046  1.0000
  H   H924      1.0  0.90945  0.51302  0.85256  1.0000
  H   H925      1.0  0.84047  0.39602  0.75288  1.0000
  C   C581      1.0  0.98584  0.40138  0.74747  1.0000
  H   H926      1.0  0.73656  0.19039  0.77831  1.0000
  H   H927      1.0  0.79073  0.42216  0.22550  1.0000
  H   H928      1.0  0.05028  0.50921  0.10617  1.0000
  C   C582      1.0  0.86191  0.29560  0.21982  1.0000
  H   H929      1.0  0.75373  0.17426  0.99750  1.0000
  S   S228      1.0  0.90529  0.49801  0.00201  1.0000
  H   H930      1.0  0.93053  0.16897  0.15010  1.0000
  C   C583      1.0  0.93157  0.15332  0.19273  1.0000
  H   H931      1.0  0.80957  0.20073  0.19576  1.0000
  H   H932      1.0  0.97643  0.55770  0.18996  1.0000
  S   S229      1.0  0.92530  0.35428  0.10657  1.0000
  S   S230      1.0  0.93726  0.51012  0.15257  1.0000
  H   H933      1.0  0.76732  0.26388  0.18204  1.0000
  H   H934      1.0  0.81765  0.28761  0.12573  1.0000
  H   H935      1.0  0.78570  0.56697  0.03857  1.0000
  Fe  Fe117     1.0  0.06068  0.31099  0.09711  1.0000
  H   H936      1.0  0.79167  0.19087  0.10198  1.0000
  C   C584      1.0  0.00171  0.58328  0.10949  1.0000
  S   S231      1.0  0.75545  0.32845  0.10817  1.0000
  C   C585      1.0  0.80466  0.36834  0.05619  1.0000
  H   H937      1.0  0.89826  0.57816  0.11121  1.0000
  H   H938      1.0  0.94248  0.11862  0.09849  1.0000
  C   C586      1.0  0.81836  0.39886  0.03526  1.0000
  C   C587      1.0  0.88937  0.33846  0.14928  1.0000
  H   H939      1.0  0.92614  0.29361  0.05058  1.0000
  C   C588      1.0  0.86014  0.35667  0.15089  1.0000
  H   H940      1.0  0.79184  0.22424  0.04373  1.0000
  H   H941      1.0  0.99197  0.44351  0.16672  1.0000
  C   C589      1.0  0.82062  0.22395  0.17281  1.0000
  C   C590      1.0  0.83182  0.34436  0.18639  1.0000
  C   C591      1.0  0.94788  0.27690  0.05250  1.0000
  C   C592      1.0  0.79914  0.42783  0.03459  1.0000
  H   H942      1.0  0.01361  0.59962  0.13214  1.0000
  H   H943      1.0  0.91574  0.59315  0.00409  1.0000
  Fe  Fe118     1.0  0.92253  0.47954  0.08771  1.0000
  C   C593      1.0  0.96365  0.53989  0.11269  1.0000
  C   C594      1.0  0.81862  0.26864  0.09462  1.0000
  H   H944      1.0  0.93929  0.16897  0.22407  1.0000
  H   H945      1.0  0.98804  0.15019  0.11622  1.0000
  H   H946      1.0  0.99609  0.15112  0.19015  1.0000
  C   C595      1.0  0.80815  0.44011  0.19919  1.0000
  C   C596      1.0  0.75206  0.39555  0.07670  1.0000
  C   C597      1.0  0.76900  0.24564  0.14930  1.0000
  H   H947      1.0  0.76948  0.47434  0.12990  1.0000
  C   C598      1.0  0.98704  0.13548  0.16027  1.0000
  H   H948      1.0  0.95313  0.18884  0.04811  1.0000
  H   H949      1.0  0.82558  0.49317  0.12096  1.0000
  C   C599      1.0  0.83268  0.31397  0.22124  1.0000
  H   H950      1.0  0.89954  0.55922  0.21929  1.0000
  H   H951      1.0  0.90639  0.14554  0.21129  1.0000
  H   H952      1.0  0.95691  0.52722  0.02775  1.0000
  H   H953      1.0  0.81984  0.24137  0.20656  1.0000
  H   H954      1.0  0.75044  0.44822  0.05253  1.0000
  N   N57       1.0  0.95384  0.12438  0.18439  1.0000
  N   N58       1.0  0.80310  0.23804  0.12457  1.0000
  C   C600      1.0  0.96885  0.54299  0.05086  1.0000
  H   H955      1.0  0.75622  0.22317  0.17171  1.0000
  H   H956      1.0  0.99675  0.22734  0.21170  1.0000
  C   C601      1.0  0.98937  0.56692  0.01835  1.0000
  H   H957      1.0  0.74670  0.46121  0.20123  1.0000
  C   C602      1.0  0.00613  0.58677  0.04757  1.0000
  H   H958      1.0  0.76588  0.52965  0.07101  1.0000
  H   H959      1.0  0.82950  0.20700  0.06289  1.0000
  S   S232      1.0  0.88410  0.44226  0.11425  1.0000
  H   H960      1.0  0.80911  0.35827  0.18631  1.0000
  S   S233      1.0  0.83791  0.58729  0.18665  1.0000
  H   H961      1.0  0.99293  0.32259  0.03832  1.0000
  H   H962      1.0  0.02924  0.42103  0.14593  1.0000
  C   C603      1.0  0.81997  0.49761  0.16825  1.0000
  H   H963      1.0  0.81126  0.52375  0.16970  1.0000
  H   H964      1.0  0.93965  0.25113  0.05618  1.0000
  S   S234      1.0  0.74812  0.57632  0.18291  1.0000
  H   H965      1.0  0.99448  0.23538  0.00538  1.0000
  H   H966      1.0  0.82348  0.13758  0.19489  1.0000
  H   H967      1.0  0.85909  0.37992  0.12377  1.0000
  S   S235      1.0  0.81756  0.46619  0.01574  1.0000
  H   H968      1.0  0.01170  0.26347  0.04465  1.0000
  H   H969      1.0  0.04968  0.46998  0.07854  1.0000
  H   H970      1.0  0.84655  0.21839  0.15575  1.0000
  H   H971      1.0  0.80577  0.27991  0.05816  1.0000
  C   C604      1.0  0.73761  0.18271  0.03470  1.0000
  N   N59       1.0  0.03492  0.46884  0.17256  1.0000
  H   H972      1.0  0.06576  0.58850  0.15739  1.0000
  C   C605      1.0  0.98338  0.31862  0.99737  1.0000
  H   H973      1.0  0.75534  0.25684  0.11398  1.0000
  S   S236      1.0  0.01467  0.29152  0.15221  1.0000
  C   C606      1.0  0.76531  0.47875  0.17721  1.0000
  Fe  Fe119     1.0  0.91928  0.40715  0.06796  1.0000
  H   H974      1.0  0.75470  0.50403  0.18039  1.0000
  C   C607      1.0  0.89006  0.30755  0.18292  1.0000
  H   H975      1.0  0.01462  0.42483  0.22264  1.0000
  C   C608      1.0  0.98024  0.55995  0.14215  1.0000
  H   H976      1.0  0.84446  0.26404  0.07558  1.0000
  H   H977      1.0  0.91248  0.29313  0.18114  1.0000
  H   H978      1.0  0.01245  0.49202  0.10025  1.0000
  C   C609      1.0  0.77233  0.54593  0.02891  1.0000
  C   C610      1.0  0.80411  0.21391  0.08142  1.0000
  C   C611      1.0  0.02699  0.26822  0.21384  1.0000
  C   C612      1.0  0.77168  0.36669  0.07848  1.0000
  H   H979      1.0  0.95713  0.28029  0.09398  1.0000
  H   H980      1.0  0.02995  0.51488  0.21022  1.0000
  C   C613      1.0  0.03697  0.48578  0.11174  1.0000
  Fe  Fe120     1.0  0.86993  0.45748  0.02512  1.0000
  H   H981      1.0  0.00649  0.16519  0.00538  1.0000
  C   C614      1.0  0.01687  0.43817  0.17723  1.0000
  C   C615      1.0  0.88086  0.58925  0.08421  1.0000
  N   N60       1.0  0.79572  0.47449  0.20226  1.0000
  C   C616      1.0  0.76570  0.42606  0.05378  1.0000
  C   C617      1.0  0.84897  0.59609  0.11011  1.0000
  N   N61       1.0  0.97298  0.28433  0.99990  1.0000
  H   H982      1.0  0.81251  0.43377  0.15282  1.0000
  H   H983      1.0  0.99232  0.49556  0.20949  1.0000
  H   H984      1.0  0.78934  0.53153  0.99842  1.0000
  H   H985      1.0  0.81990  0.34615  0.05681  1.0000
  S   S237      1.0  0.95927  0.44351  0.04840  1.0000
  C   C618      1.0  0.01801  0.49072  0.21526  1.0000
  C   C619      1.0  0.89077  0.59772  0.02353  1.0000
  H   H986      1.0  0.84323  0.49506  0.18618  1.0000
  C   C620      1.0  0.95697  0.18232  0.00338  1.0000
  N   N62       1.0  0.74317  0.55736  0.00295  1.0000
  S   S238      1.0  0.89615  0.20891  0.99809  1.0000
  H   H987      1.0  0.84393  0.39970  0.02033  1.0000
  H   H988      1.0  0.83140  0.43594  0.21676  1.0000
  H   H989      1.0  0.96280  0.33670  0.99370  1.0000
  Fe  Fe121     1.0  0.78621  0.59926  0.22031  1.0000
  C   C621      1.0  0.06789  0.46059  0.18599  1.0000
  C   C622      1.0  0.00122  0.26142  0.00393  1.0000
  H   H990      1.0  0.00453  0.11410  0.15478  1.0000
  S   S239      1.0  0.90323  0.42024  0.97982  1.0000
  H   H991      1.0  0.91990  0.27536  0.30391  1.0000
  C   C623      1.0  0.06421  0.25984  0.28480  1.0000
  C   C624      1.0  0.96852  0.15709  0.40040  1.0000
  H   H992      1.0  0.78433  0.37564  0.31005  1.0000
  H   H993      1.0  0.92969  0.34455  0.23657  1.0000
  C   C625      1.0  0.88140  0.42091  0.33800  1.0000
  C   C626      1.0  0.89551  0.56229  0.36705  1.0000
  N   N63       1.0  0.74011  0.36318  0.36936  1.0000
  H   H994      1.0  0.02047  0.19155  0.28926  1.0000
  N   N64       1.0  0.94608  0.31798  0.31292  1.0000
  H   H995      1.0  0.95285  0.28580  0.24440  1.0000
  S   S240      1.0  0.04466  0.60953  0.27841  1.0000
  H   H996      1.0  0.84466  0.52668  0.35513  1.0000
  C   C627      1.0  0.90707  0.51492  0.31257  1.0000
  S   S241      1.0  0.90535  0.23428  0.42042  1.0000
  C   C628      1.0  0.92630  0.41253  0.39284  1.0000
  Fe  Fe122     1.0  0.05740  0.34526  0.45267  1.0000
  C   C629      1.0  0.93558  0.43539  0.28987  1.0000
  H   H997      1.0  0.02627  0.51901  0.47604  1.0000
  H   H998      1.0  0.92274  0.36566  0.30114  1.0000
  H   H999      1.0  0.78407  0.38282  0.38550  1.0000
  H   H1000     1.0  0.88404  0.54771  0.40850  1.0000
  H   H1001     1.0  0.73966  0.31472  0.34184  1.0000
  H   H1002     1.0  0.03311  0.19276  0.45270  1.0000
  S   S242      1.0  0.01102  0.34083  0.41892  1.0000
  S   S243      1.0  0.79650  0.29840  0.26271  1.0000
  C   C630      1.0  0.90170  0.16891  0.40792  1.0000
  Fe  Fe123     1.0  0.79838  0.19034  0.39985  1.0000
  H   H1003     1.0  0.98108  0.35539  0.30891  1.0000
  H   H1004     1.0  0.85028  0.53360  0.27567  1.0000
  C   C631      1.0  0.80919  0.13794  0.28922  1.0000
  S   S244      1.0  0.77255  0.47114  0.41890  1.0000
  H   H1005     1.0  0.93862  0.33970  0.39496  1.0000
  S   S245      1.0  0.83741  0.21667  0.33483  1.0000
  H   H1006     1.0  0.91218  0.30666  0.39306  1.0000
  Fe  Fe124     1.0  0.80332  0.26070  0.33850  1.0000
  H   H1007     1.0  0.98626  0.33302  0.24550  1.0000
  S   S246      1.0  0.03703  0.12639  0.28583  1.0000
  H   H1008     1.0  0.87584  0.17324  0.41082  1.0000
  H   H1009     1.0  0.89807  0.49770  0.35246  1.0000
  C   C632      1.0  0.94487  0.28504  0.29305  1.0000
  C   C633      1.0  0.97918  0.33056  0.29456  1.0000
  H   H1010     1.0  0.84162  0.56779  0.31860  1.0000
  Fe  Fe125     1.0  0.81566  0.43698  0.42157  1.0000
  H   H1011     1.0  0.04416  0.27998  0.47045  1.0000
  C   C634      1.0  0.80570  0.11899  0.34442  1.0000
  H   H1012     1.0  0.95365  0.29759  0.40043  1.0000
  H   H1013     1.0  0.01800  0.47962  0.26179  1.0000
  H   H1014     1.0  0.96265  0.11898  0.27415  1.0000
  H   H1015     1.0  0.90322  0.50331  0.27309  1.0000
  Fe  Fe126     1.0  0.85272  0.23379  0.41436  1.0000
  S   S247      1.0  0.04873  0.11605  0.42576  1.0000
  S   S248      1.0  0.00576  0.55862  0.38458  1.0000
  H   H1016     1.0  0.80147  0.16365  0.28620  1.0000
  H   H1017     1.0  0.87674  0.40172  0.43017  1.0000
  H   H1018     1.0  0.92182  0.56419  0.36840  1.0000
  S   S249      1.0  0.80545  0.55405  0.45464  1.0000
  H   H1019     1.0  0.97108  0.20892  0.40852  1.0000
  H   H1020     1.0  0.84871  0.60680  0.45097  1.0000
  H   H1021     1.0  0.78826  0.34162  0.36485  1.0000
  H   H1022     1.0  0.89775  0.33200  0.29667  1.0000
  H   H1023     1.0  0.89924  0.11726  0.39914  1.0000
  H   H1024     1.0  0.89117  0.59437  0.25969  1.0000
  C   C635      1.0  0.94825  0.13102  0.39891  1.0000
  H   H1025     1.0  0.81164  0.47850  0.28496  1.0000
  H   H1026     1.0  0.93374  0.51693  0.30975  1.0000
  H   H1027     1.0  0.93523  0.40439  0.43350  1.0000
  Fe  Fe127     1.0  0.02699  0.58537  0.44808  1.0000
  S   S250      1.0  0.83998  0.42008  0.33643  1.0000
  H   H1028     1.0  0.88481  0.58783  0.36702  1.0000
  S   S251      1.0  0.82123  0.27955  0.41401  1.0000
  C   C636      1.0  0.92190  0.19475  0.41105  1.0000
  C   C637      1.0  0.93730  0.31546  0.37812  1.0000
  H   H1029     1.0  0.89347  0.44082  0.24647  1.0000
  H   H1030     1.0  0.86274  0.27197  0.24624  1.0000
  C   C638      1.0  0.77572  0.36601  0.35699  1.0000
  C   C639      1.0  0.89315  0.41099  0.39088  1.0000
  N   N65       1.0  0.89025  0.54756  0.31402  1.0000
  C   C640      1.0  0.90321  0.56941  0.26027  1.0000
  H   H1031     1.0  0.99435  0.15288  0.39683  1.0000
  S   S252      1.0  0.76713  0.58049  0.31415  1.0000
  S   S253      1.0  0.05309  0.40046  0.44731  1.0000
  H   H1032     1.0  0.77085  0.46476  0.29157  1.0000
  H   H1033     1.0  0.04126  0.25143  0.41863  1.0000
  C   C641      1.0  0.95534  0.18890  0.40690  1.0000
  C   C642      1.0  0.05483  0.22710  0.29934  1.0000
  C   C643      1.0  0.85515  0.54366  0.31598  1.0000
  C   C644      1.0  0.94751  0.42495  0.34248  1.0000
  Fe  Fe128     1.0  0.00446  0.39534  0.42157  1.0000
  C   C645      1.0  0.03256  0.25690  0.46487  1.0000
  Fe  Fe129     1.0  0.05572  0.56149  0.33043  1.0000
  S   S254      1.0  0.76237  0.23290  0.39587  1.0000
  C   C646      1.0  0.78924  0.48151  0.26455  1.0000
  S   S255      1.0  0.84068  0.46830  0.47203  1.0000
  Fe  Fe130     1.0  0.99691  0.60890  0.33907  1.0000
  C   C647      1.0  0.91487  0.13706  0.40197  1.0000
  Fe  Fe131     1.0  0.78304  0.24848  0.47140  1.0000
  S   S256      1.0  0.78835  0.13648  0.40815  1.0000
  S   S257      1.0  0.98892  0.42724  0.34455  1.0000
  H   H1034     1.0  0.96103  0.26677  0.31496  1.0000
  H   H1035     1.0  0.73727  0.36690  0.46230  1.0000
  H   H1036     1.0  0.74132  0.32543  0.44284  1.0000
  C   C648      1.0  0.90259  0.43280  0.28729  1.0000
  H   H1037     1.0  0.92963  0.57287  0.25716  1.0000
  C   C649      1.0  0.92298  0.34097  0.28562  1.0000
  H   H1038     1.0  0.77975  0.50725  0.26847  1.0000
  H   H1039     1.0  0.99742  0.31355  0.31338  1.0000
  C   C650      1.0  0.02925  0.21602  0.27537  1.0000
  H   H1040     1.0  0.00587  0.26172  0.46983  1.0000
  H   H1041     1.0  0.95171  0.44546  0.25102  1.0000
  C   C651      1.0  0.05036  0.28037  0.24190  1.0000
  C   C652      1.0  0.82145  0.12321  0.23785  1.0000
  S   S258      1.0  0.81634  0.20437  0.47917  1.0000
  H   H1042     1.0  0.92900  0.50801  0.46304  1.0000
  H   H1043     1.0  0.73966  0.34781  0.28334  1.0000
  Fe  Fe132     1.0  0.79583  0.50042  0.47556  1.0000
  H   H1044     1.0  0.06722  0.44951  0.23276  1.0000
  H   H1045     1.0  0.05827  0.30542  0.22968  1.0000
  C   C653      1.0  0.01535  0.23655  0.23238  1.0000
  H   H1046     1.0  0.93713  0.46643  0.49351  1.0000
  H   H1047     1.0  0.92562  0.35514  0.59485  1.0000
  S   S259      1.0  0.79374  0.40524  0.50260  1.0000
  H   H1048     1.0  0.00200  0.24190  0.57630  1.0000
  H   H1049     1.0  0.75361  0.32686  0.58960  1.0000
  C   C654      1.0  0.92889  0.53621  0.56276  1.0000
  Fe  Fe133     1.0  0.98751  0.33681  0.51386  1.0000
  H   H1050     1.0  0.89714  0.15564  0.68729  1.0000
  H   H1051     1.0  0.97524  0.41120  0.70747  1.0000
  H   H1052     1.0  0.88752  0.15689  0.53061  1.0000
  N   N66       1.0  0.92453  0.50095  0.55799  1.0000
  C   C655      1.0  0.02409  0.53088  0.56510  1.0000
  C   C656      1.0  0.83776  0.55970  0.60918  1.0000
  S   S260      1.0  0.87589  0.60174  0.64963  1.0000
  H   H1053     1.0  0.84590  0.14458  0.65272  1.0000
  S   S261      1.0  0.84032  0.42219  0.63095  1.0000
  S   S262      1.0  0.03434  0.42030  0.61398  1.0000
  H   H1054     1.0  0.87720  0.51008  0.53387  1.0000
  C   C657      1.0  0.92620  0.30205  0.61087  1.0000
  H   H1055     1.0  0.82767  0.33288  0.65476  1.0000
  S   S263      1.0  0.03438  0.33711  0.54797  1.0000
  C   C658      1.0  0.02555  0.19909  0.49861  1.0000
  H   H1056     1.0  0.87901  0.25777  0.72429  1.0000
  H   H1057     1.0  0.75187  0.36907  0.60374  1.0000
  H   H1058     1.0  0.81244  0.36330  0.60353  1.0000
  H   H1059     1.0  0.90036  0.13270  0.59349  1.0000
  N   N67       1.0  0.77576  0.33594  0.66367  1.0000
  C   C659      1.0  0.91610  0.33391  0.62392  1.0000
  H   H1060     1.0  0.02959  0.36003  0.69497  1.0000
  H   H1061     1.0  0.73768  0.20223  0.51649  1.0000
  Fe  Fe134     1.0  0.01786  0.14827  0.67482  1.0000
  C   C660      1.0  0.93991  0.49289  0.49863  1.0000
  N   N68       1.0  0.04085  0.22947  0.50816  1.0000
  H   H1062     1.0  0.86864  0.21549  0.53826  1.0000
  C   C661      1.0  0.89883  0.15817  0.57058  1.0000
  C   C662      1.0  0.85801  0.58671  0.59496  1.0000
  C   C663      1.0  0.80828  0.33814  0.62706  1.0000
  C   C664      1.0  0.75068  0.34324  0.62535  1.0000
  C   C665      1.0  0.86270  0.60291  0.53737  1.0000
  S   S264      1.0  0.97761  0.39118  0.51473  1.0000
  H   H1063     1.0  0.03105  0.47428  0.68378  1.0000
  H   H1064     1.0  0.90537  0.22322  0.56274  1.0000
  C   C666      1.0  0.02959  0.48412  0.63855  1.0000
  H   H1065     1.0  0.00565  0.32392  0.71033  1.0000
  H   H1066     1.0  0.86701  0.23258  0.60694  1.0000
  C   C667      1.0  0.84586  0.59337  0.49480  1.0000
  H   H1067     1.0  0.91761  0.54317  0.60702  1.0000
  C   C668      1.0  0.84657  0.16967  0.62761  1.0000
  C   C669      1.0  0.88968  0.27905  0.69737  1.0000
  C   C670      1.0  0.91317  0.27475  0.64794  1.0000
  Fe  Fe135     1.0  0.75178  0.44149  0.50356  1.0000
  H   H1068     1.0  0.77383  0.28351  0.66295  1.0000
  C   C671      1.0  0.87977  0.31075  0.71109  1.0000
  C   C672      1.0  0.82522  0.56671  0.50909  1.0000
  H   H1069     1.0  0.92812  0.48524  0.64914  1.0000
  C   C673      1.0  0.77172  0.30225  0.69490  1.0000
  H   H1070     1.0  0.92021  0.19059  0.65253  1.0000
  Fe  Fe136     1.0  0.02681  0.39202  0.54050  1.0000
  C   C674      1.0  0.82055  0.43563  0.69772  1.0000
  C   C675      1.0  0.88021  0.21453  0.57838  1.0000
  C   C676      1.0  0.88957  0.49435  0.56680  1.0000
  H   H1071     1.0  0.81171  0.32035  0.59337  1.0000
  S   S265      1.0  0.95419  0.29531  0.54769  1.0000
  C   C677      1.0  0.02662  0.50947  0.52146  1.0000
  H   H1072     1.0  0.98757  0.11828  0.52256  1.0000
  H   H1073     1.0  0.83444  0.16864  0.58849  1.0000
  C   C678      1.0  0.02956  0.47540  0.53651  1.0000
  H   H1074     1.0  0.83364  0.54737  0.65388  1.0000
  Fe  Fe137     1.0  0.81460  0.44004  0.55397  1.0000
  H   H1075     1.0  0.96634  0.49757  0.49040  1.0000
  C   C679      1.0  0.00422  0.35136  0.70437  1.0000
  H   H1076     1.0  0.02389  0.53475  0.65757  1.0000
  H   H1077     1.0  0.92410  0.16645  0.55487  1.0000
  C   C680      1.0  0.89273  0.33825  0.67398  1.0000
  H   H1078     1.0  0.96583  0.48513  0.59943  1.0000
  H   H1079     1.0  0.79870  0.47912  0.65638  1.0000
  H   H1080     1.0  0.77552  0.38578  0.68503  1.0000
  C   C681      1.0  0.89532  0.18094  0.66364  1.0000
  H   H1081     1.0  0.03451  0.21722  0.60232  1.0000
  C   C682      1.0  0.93961  0.48025  0.60383  1.0000
  H   H1082     1.0  0.87716  0.49936  0.61159  1.0000
  N   N69       1.0  0.88024  0.18084  0.61005  1.0000
  C   C683      1.0  0.79999  0.46363  0.69712  1.0000
  C   C684      1.0  0.02880  0.23763  0.56886  1.0000
  H   H1083     1.0  0.92154  0.25022  0.63861  1.0000
  H   H1084     1.0  0.80511  0.52944  0.57775  1.0000
  H   H1085     1.0  0.83169  0.18646  0.65682  1.0000
  H   H1086     1.0  0.99860  0.20182  0.50639  1.0000
  H   H1087     1.0  0.03062  0.45899  0.50280  1.0000
  H   H1088     1.0  0.88103  0.19661  0.69558  1.0000
  H   H1089     1.0  0.79057  0.29592  0.72371  1.0000
  C   C685      1.0  0.96584  0.11670  0.61437  1.0000
  C   C686      1.0  0.82148  0.54962  0.56609  1.0000
  C   C687      1.0  0.02558  0.51823  0.62375  1.0000
  S   S266      1.0  0.01825  0.57324  0.54658  1.0000
  H   H1090     1.0  0.95501  0.54217  0.55621  1.0000
  H   H1091     1.0  0.04010  0.26022  0.57793  1.0000
  C   C688      1.0  0.03126  0.46276  0.59494  1.0000
  H   H1092     1.0  0.88544  0.46810  0.56247  1.0000
  H   H1093     1.0  0.88452  0.36289  0.68358  1.0000
  H   H1094     1.0  0.93735  0.45347  0.60067  1.0000
  H   H1095     1.0  0.99323  0.35934  0.66400  1.0000
  C   C689      1.0  0.77242  0.36011  0.70734  1.0000
  S   S267      1.0  0.97766  0.15613  0.62179  1.0000
  H   H1096     1.0  0.03215  0.17756  0.52910  1.0000
  S   S268      1.0  0.77074  0.47416  0.56042  1.0000
  S   S269      1.0  0.75190  0.26505  0.55173  1.0000
  H   H1097     1.0  0.91756  0.55260  0.52912  1.0000
  S   S270      1.0  0.03161  0.18744  0.72496  1.0000
  H   H1098     1.0  0.75652  0.60225  0.56131  1.0000
  H   H1099     1.0  0.74748  0.29969  0.72324  1.0000
  H   H1100     1.0  0.93977  0.36307  0.72765  1.0000
  S   S271      1.0  0.06760  0.14120  0.62474  1.0000
  S   S272      1.0  0.95383  0.94772  0.85595  1.0000
  S   S273      1.0  0.74544  0.86106  0.92167  1.0000
  H   H1101     1.0  0.97889  0.84544  0.76693  1.0000
  C   C690      1.0  0.04282  0.89035  0.81852  1.0000
  H   H1102     1.0  0.85132  0.08833  0.74258  1.0000
  C   C691      1.0  0.05944  0.66247  0.79587  1.0000
  Fe  Fe138     1.0  0.92902  0.99520  0.82711  1.0000
  H   H1103     1.0  0.87997  0.03950  0.78678  1.0000
  H   H1104     1.0  0.92649  0.77429  0.82570  1.0000
  Fe  Fe139     1.0  0.98651  0.68885  0.84180  1.0000
  H   H1105     1.0  0.84532  0.80654  0.81445  1.0000
  H   H1106     1.0  0.98366  0.75673  0.82081  1.0000
  H   H1107     1.0  0.95345  0.74939  0.73735  1.0000
  C   C692      1.0  0.84149  0.75474  0.80835  1.0000
  S   S274      1.0  0.93563  0.70495  0.87784  1.0000
  H   H1108     1.0  0.97486  0.06059  0.84403  1.0000
  H   H1109     1.0  0.83161  0.70321  0.81349  1.0000
  S   S275      1.0  0.90637  0.02740  0.89594  1.0000
  C   C693      1.0  0.97873  0.07063  0.88500  1.0000
  H   H1110     1.0  0.06750  0.75212  0.92942  1.0000
  H   H1111     1.0  0.02714  0.89643  0.85831  1.0000
  Fe  Fe140     1.0  0.92964  0.65193  0.91524  1.0000
  S   S276      1.0  0.90748  0.87788  0.81355  1.0000
  C   C694      1.0  0.87523  0.88185  0.87165  1.0000
  H   H1112     1.0  0.99378  0.84430  0.90922  1.0000
  S   S277      1.0  0.04641  0.95678  0.78594  1.0000
  C   C695      1.0  0.99131  0.78053  0.79483  1.0000
  S   S278      1.0  0.97123  0.01129  0.75823  1.0000
  H   H1113     1.0  0.86280  0.73229  0.92092  1.0000
  S   S279      1.0  0.88253  0.62764  0.91490  1.0000
  H   H1114     1.0  0.89131  0.09187  0.93263  1.0000
  H   H1115     1.0  0.77729  0.70824  0.87359  1.0000
  H   H1116     1.0  0.91527  0.81026  0.78055  1.0000
  H   H1117     1.0  0.83428  0.94047  0.95024  1.0000
  C   C696      1.0  0.05146  0.68222  0.74617  1.0000
  H   H1118     1.0  0.06603  0.78736  0.87525  1.0000
  C   C697      1.0  0.87641  0.06155  0.80890  1.0000
  H   H1119     1.0  0.04381  0.07604  0.86584  1.0000
  C   C698      1.0  0.86619  0.91299  0.88944  1.0000
  H   H1120     1.0  0.75083  0.81722  0.81109  1.0000
  S   S280      1.0  0.74128  0.76339  0.91790  1.0000
  C   C699      1.0  0.04919  0.85725  0.80869  1.0000
  C   C700      1.0  0.82270  0.72691  0.82662  1.0000
  H   H1121     1.0  0.95439  0.88348  0.96811  1.0000
  H   H1122     1.0  0.79251  0.81093  0.88090  1.0000
  C   C701      1.0  0.79226  0.72964  0.86170  1.0000
  Fe  Fe141     1.0  0.99622  0.64784  0.95528  1.0000
  C   C702      1.0  0.93505  0.79876  0.80385  1.0000
  H   H1123     1.0  0.79779  0.99528  0.93318  1.0000
  C   C703      1.0  0.00550  0.06375  0.97061  1.0000
  C   C704      1.0  0.88257  0.09099  0.89122  1.0000
  H   H1124     1.0  0.03307  0.04088  0.83359  1.0000
  H   H1125     1.0  0.81372  0.03608  0.91634  1.0000
  C   C705      1.0  0.80080  0.78745  0.86586  1.0000
  C   C706      1.0  0.86016  0.08922  0.78386  1.0000
  H   H1126     1.0  0.96346  0.79262  0.92149  1.0000
  H   H1127     1.0  0.04262  0.66014  0.83680  1.0000
  C   C707      1.0  0.99064  0.82906  0.95130  1.0000
  H   H1128     1.0  0.91901  0.90250  0.94471  1.0000
  H   H1129     1.0  0.87867  0.93455  0.86724  1.0000
  H   H1130     1.0  0.98679  0.09641  0.87235  1.0000
  S   S281      1.0  0.00676  0.70039  0.92117  1.0000
  H   H1131     1.0  0.95475  0.07179  0.91408  1.0000
  H   H1132     1.0  0.86653  0.82980  0.88886  1.0000
  S   S282      1.0  0.02412  0.10667  0.74520  1.0000
  C   C708      1.0  0.99159  0.01588  0.92916  1.0000
  H   H1133     1.0  0.77516  0.76793  0.75918  1.0000
  C   C709      1.0  0.83378  0.85740  0.94905  1.0000
  C   C710      1.0  0.78098  0.76005  0.88030  1.0000
  C   C711      1.0  0.88727  0.06229  0.86295  1.0000
  C   C712      1.0  0.05658  0.91553  0.77668  1.0000
  C   C713      1.0  0.97566  0.82876  0.73355  1.0000
  H   H1134     1.0  0.96717  0.01480  0.95718  1.0000
  C   C714      1.0  0.86137  0.74754  0.95827  1.0000
  C   C715      1.0  0.84123  0.91636  0.93695  1.0000
  H   H1135     1.0  0.05289  0.03505  0.89767  1.0000
  N   N70       1.0  0.96570  0.79567  0.76225  1.0000
  H   H1136     1.0  0.93776  0.81438  0.83894  1.0000
  C   C716      1.0  0.03449  0.05056  0.87627  1.0000
  C   C717      1.0  0.97321  0.80008  0.95820  1.0000
  C   C718      1.0  0.85913  0.85397  0.90169  1.0000
  S   S283      1.0  0.97909  0.63520  0.87371  1.0000
  C   C719      1.0  0.83088  0.78491  0.82892  1.0000
  H   H1137     1.0  0.88656  0.75409  0.96085  1.0000
  S   S284      1.0  0.90295  0.97369  0.76370  1.0000
  H   H1138     1.0  0.99003  0.00455  0.88823  1.0000
  S   S285      1.0  0.01327  0.70247  0.74987  1.0000
  H   H1139     1.0  0.84785  0.77092  0.94669  1.0000
  Fe  Fe142     1.0  0.95535  0.71135  0.96054  1.0000
  S   S286      1.0  0.87667  0.75225  0.75609  1.0000
  Fe  Fe143     1.0  0.93050  0.92692  0.78832  1.0000
  C   C720      1.0  0.75360  0.83133  0.76629  1.0000
  H   H1140     1.0  0.99782  0.79705  0.82572  1.0000
  Fe  Fe144     1.0  0.99364  0.96191  0.78143  1.0000
  H   H1141     1.0  0.03864  0.83778  0.84082  1.0000
  H   H1142     1.0  0.01384  0.77510  0.76397  1.0000
  H   H1143     1.0  0.84009  0.00157  0.93290  1.0000
  H   H1144     1.0  0.00847  0.00009  0.95398  1.0000
  N   N71       1.0  0.00258  0.05020  0.91518  1.0000
  H   H1145     1.0  0.01236  0.09001  0.96231  1.0000
  H   H1146     1.0  0.77789  0.84259  0.75738  1.0000
  C   C721      1.0  0.82517  0.88865  0.96703  1.0000
  H   H1147     1.0  0.82130  0.83591  0.97235  1.0000
  C   C722      1.0  0.81518  0.01223  0.94497  1.0000
  H   H1148     1.0  0.73491  0.85176  0.76831  1.0000
  H   H1149     1.0  0.81258  0.70541  0.97314  1.0000
  H   H1150     1.0  0.93998  0.94847  0.06573  1.0000
  S   S287      1.0  0.84547  0.07132  0.17785  1.0000
  S   S288      1.0  0.92979  0.94757  0.21406  1.0000
  C   C723      1.0  0.88787  0.91652  0.04683  1.0000
  H   H1151     1.0  0.88247  0.93000  0.08630  1.0000
  H   H1152     1.0  0.05279  0.00584  0.04448  1.0000
  H   H1153     1.0  0.81944  0.63039  0.98677  1.0000
  H   H1154     1.0  0.87157  0.89506  0.05480  1.0000
  S   S289      1.0  0.79473  0.89351  0.02743  1.0000
  H   H1155     1.0  0.86761  0.68340  0.99121  1.0000
  S   S290      1.0  0.06455  0.84885  0.13003  1.0000
  S   S291      1.0  0.98394  0.00053  0.08705  1.0000
  H   H1156     1.0  0.80197  0.61599  0.09510  1.0000
  C   C724      1.0  0.04706  0.01703  0.08535  1.0000
  H   H1157     1.0  0.76866  0.03537  0.06976  1.0000
  C   C725      1.0  0.86871  0.61271  0.98854  1.0000
  Fe  Fe145     1.0  0.87894  0.94971  0.19716  1.0000
  H   H1158     1.0  0.82738  0.04347  0.06968  1.0000
  H   H1159     1.0  0.97217  0.77837  0.10549  1.0000
  C   C726      1.0  0.86446  0.69899  0.02830  1.0000
  H   H1160     1.0  0.80492  0.98728  0.09302  1.0000
  C   C727      1.0  0.84437  0.75091  0.06271  1.0000
  Fe  Fe146     1.0  0.93754  0.99360  0.15163  1.0000
  S   S292      1.0  0.92175  0.02715  0.22156  1.0000
  C   C728      1.0  0.93040  0.88392  0.08735  1.0000
  C   C729      1.0  0.01544  0.01627  0.11701  1.0000
  Fe  Fe147     1.0  0.87216  0.02373  0.19967  1.0000
  H   H1161     1.0  0.91596  0.86393  0.99071  1.0000
  S   S293      1.0  0.94611  0.65940  0.00021  1.0000
  H   H1162     1.0  0.95651  0.87628  0.08082  1.0000
  H   H1163     1.0  0.92531  0.89635  0.12844  1.0000
  H   H1164     1.0  0.85251  0.68391  0.06883  1.0000
  H   H1165     1.0  0.86919  0.75776  0.06766  1.0000
  H   H1166     1.0  0.91754  0.09578  0.15925  1.0000
  H   H1167     1.0  0.02367  0.94415  0.22014  1.0000
  H   H1168     1.0  0.91585  0.86123  0.09564  1.0000
  C   C730      1.0  0.92816  0.88806  0.98267  1.0000
  C   C731      1.0  0.77485  0.03119  0.02231  1.0000
  C   C732      1.0  0.97787  0.79221  0.06218  1.0000
  H   H1169     1.0  0.98527  0.02850  0.19659  1.0000
  H   H1170     1.0  0.83519  0.97336  0.03601  1.0000
  C   C733      1.0  0.83171  0.03956  0.02193  1.0000
  C   C734      1.0  0.00895  0.02970  0.17091  1.0000
  N   N72       1.0  0.92236  0.90591  0.03568  1.0000
  S   S294      1.0  0.85689  0.90110  0.19591  1.0000
  S   S295      1.0  0.88815  0.99250  0.12602  1.0000
  C   C735      1.0  0.94268  0.10431  0.14272  1.0000
  Fe  Fe148     1.0  0.75201  0.86617  0.01452  1.0000
  C   C736      1.0  0.03327  0.04496  0.19202  1.0000
  S   S296      1.0  0.05590  0.92909  0.10349  1.0000
  H   H1171     1.0  0.79965  0.70816  0.05076  1.0000
  H   H1172     1.0  0.00463  0.82879  0.09257  1.0000
  H   H1173     1.0  0.83297  0.73814  0.10603  1.0000
  Fe  Fe149     1.0  0.05431  0.88509  0.05425  1.0000
  S   S297      1.0  0.94018  0.74892  0.02407  1.0000
  H   H1174     1.0  0.88911  0.70431  0.03607  1.0000
  C   C737      1.0  0.99639  0.82061  0.05482  1.0000
  C   C738      1.0  0.81043  0.98474  0.04479  1.0000
  S   S298      1.0  0.73908  0.81414  0.04953  1.0000
  H   H1175     1.0  0.79318  0.96684  0.03534  1.0000
  C   C739      1.0  0.06447  0.04671  0.15932  1.0000
  C   C740      1.0  0.81234  0.72149  0.00898  1.0000
  H   H1176     1.0  0.75639  0.01461  0.01294  1.0000
  N   N73       1.0  0.84562  0.72974  0.01460  1.0000
  H   H1177     1.0  0.77194  0.05532  0.99525  1.0000
  H   H1178     1.0  0.85706  0.02973  0.01114  1.0000
  C   C741      1.0  0.83636  0.61834  0.01382  1.0000
  N   N74       1.0  0.80805  0.01693  0.00851  1.0000
  H   H1179     1.0  0.06764  0.78896  0.00551  1.0000
  H   H1180     1.0  0.83040  0.06418  0.99567  1.0000
  H   H1181     1.0  0.88124  0.93337  0.00896  1.0000
  S   S299      1.0  0.02053  0.87788  0.99090  1.0000
  S   S300      1.0  0.03041  0.61756  0.00613  1.0000
  C   C742      1.0  0.96626  0.78203  0.01382  1.0000
  H   H1182     1.0  0.79743  0.74410  0.99825  1.0000
  C   C743      1.0  0.94289  0.93519  0.02571  1.0000
  H   H1183     1.0  0.83019  0.77429  0.05390  1.0000
  H   H1184     1.0  0.93684  0.95293  0.98833  1.0000
  C   C744      1.0  0.00214  0.83949  0.99958  1.0000
  H   H1185     1.0  0.96913  0.92815  0.01542  1.0000
  H   H1186     1.0  0.98233  0.06215  0.00234  1.0000
  H   H1187     1.0  0.95873  0.08201  0.13598  1.0000
  H   H1188     1.0  0.02447  0.05009  0.99287  1.0000
  S   S301      1.0  0.76001  0.64840  0.22403  1.0000
  C   C745      1.0  0.82655  0.61036  0.07495  1.0000
  H   H1189     1.0  0.97048  0.08226  0.23833  1.0000
  H   H1190     1.0  0.73621  0.05016  0.28076  1.0000
  S   S302      1.0  0.01466  0.63551  0.40614  1.0000
  H   H1191     1.0  0.97656  0.97829  0.25923  1.0000
  C   C746      1.0  0.82905  0.71261  0.39956  1.0000
  C   C747      1.0  0.92889  0.68970  0.32597  1.0000
  H   H1192     1.0  0.87083  0.00681  0.40757  1.0000
  Fe  Fe150     1.0  0.73762  0.62776  0.31595  1.0000
  H   H1193     1.0  0.97970  0.80566  0.37320  1.0000
  C   C748      1.0  0.85602  0.88308  0.37232  1.0000
  H   H1194     1.0  0.03038  0.70226  0.33754  1.0000
  H   H1195     1.0  0.83500  0.04515  0.30085  1.0000
  S   S303      1.0  0.96452  0.09108  0.39154  1.0000
  C   C749      1.0  0.81486  0.08551  0.34856  1.0000
  H   H1196     1.0  0.92457  0.85163  0.33480  1.0000
  H   H1197     1.0  0.88200  0.91405  0.30006  1.0000
  C   C750      1.0  0.01181  0.90994  0.36376  1.0000
  S   S304      1.0  0.05660  0.88796  0.27561  1.0000
  C   C751      1.0  0.91549  0.02692  0.46575  1.0000
  S   S305      1.0  0.85963  0.98098  0.26957  1.0000
  H   H1198     1.0  0.89477  0.85101  0.46482  1.0000
  C   C752      1.0  0.86466  0.89480  0.31243  1.0000
  S   S306      1.0  0.93158  0.96929  0.36790  1.0000
  C   C753      1.0  0.98596  0.95886  0.28824  1.0000
  C   C754      1.0  0.92916  0.65191  0.41532  1.0000
  C   C755      1.0  0.97037  0.95199  0.34663  1.0000
  H   H1199     1.0  0.74462  0.06863  0.40207  1.0000
  C   C756      1.0  0.95407  0.10444  0.24221  1.0000
  C   C757      1.0  0.95970  0.84469  0.45882  1.0000
  H   H1200     1.0  0.80608  0.76360  0.33160  1.0000
  H   H1201     1.0  0.83703  0.77635  0.40958  1.0000
  H   H1202     1.0  0.77698  0.73144  0.34822  1.0000
  H   H1203     1.0  0.00100  0.74390  0.39820  1.0000
  H   H1204     1.0  0.93362  0.62743  0.43668  1.0000
  H   H1205     1.0  0.02217  0.89124  0.39312  1.0000
  H   H1206     1.0  0.93995  0.79287  0.36640  1.0000
  H   H1207     1.0  0.79906  0.78295  0.45655  1.0000
  H   H1208     1.0  0.80110  0.82686  0.35920  1.0000
  C   C758      1.0  0.82798  0.07101  0.29747  1.0000
  Fe  Fe151     1.0  0.91152  0.98105  0.28318  1.0000
  H   H1209     1.0  0.91415  0.73998  0.33890  1.0000
  H   H1210     1.0  0.81639  0.84774  0.25313  1.0000
  H   H1211     1.0  0.81902  0.69187  0.38161  1.0000
  S   S307      1.0  0.81753  0.84878  0.46443  1.0000
  H   H1212     1.0  0.98534  0.84819  0.43723  1.0000
  H   H1213     1.0  0.75885  0.08417  0.29306  1.0000
  S   S308      1.0  0.05414  0.05297  0.34881  1.0000
  C   C759      1.0  0.86562  0.05932  0.46897  1.0000
  Fe  Fe152     1.0  0.76375  0.85386  0.46775  1.0000
  H   H1214     1.0  0.87014  0.06595  0.42008  1.0000
  C   C760      1.0  0.90654  0.82803  0.44870  1.0000
  C   C761      1.0  0.02509  0.91443  0.30350  1.0000
  H   H1215     1.0  0.95535  0.78283  0.43463  1.0000
  C   C762      1.0  0.04240  0.75362  0.43757  1.0000
  C   C763      1.0  0.93464  0.65801  0.35345  1.0000
  Fe  Fe153     1.0  0.01845  0.09437  0.36910  1.0000
  C   C764      1.0  0.98417  0.92856  0.38532  1.0000
  H   H1216     1.0  0.75809  0.73804  0.47839  1.0000
  C   C765      1.0  0.81929  0.84538  0.34619  1.0000
  H   H1217     1.0  0.92747  0.00270  0.47807  1.0000
  C   C766      1.0  0.95438  0.80242  0.39683  1.0000
  S   S309      1.0  0.95003  0.62643  0.31055  1.0000
  H   H1218     1.0  0.92174  0.03268  0.41683  1.0000
  H   H1219     1.0  0.81164  0.07075  0.39118  1.0000
  C   C767      1.0  0.77868  0.72079  0.46503  1.0000
  C   C768      1.0  0.93961  0.85904  0.36635  1.0000
  H   H1220     1.0  0.76858  0.76960  0.38002  1.0000
  H   H1221     1.0  0.92945  0.09579  0.26247  1.0000
  H   H1222     1.0  0.92941  0.88311  0.38044  1.0000
  H   H1223     1.0  0.93339  0.69448  0.27814  1.0000
  C   C769      1.0  0.82794  0.85715  0.28618  1.0000
  C   C770      1.0  0.81768  0.76386  0.44268  1.0000
  C   C771      1.0  0.91755  0.67744  0.44961  1.0000
  N   N75       1.0  0.94003  0.83358  0.41762  1.0000
  H   H1224     1.0  0.76878  0.69903  0.44991  1.0000
  C   C772      1.0  0.78810  0.75101  0.36733  1.0000
  H   H1225     1.0  0.84815  0.72405  0.36464  1.0000
  C   C773      1.0  0.84989  0.88263  0.26944  1.0000
  C   C774      1.0  0.91823  0.71544  0.36033  1.0000
  Fe  Fe154     1.0  0.06311  0.63271  0.34889  1.0000
  C   C775      1.0  0.91237  0.70925  0.42212  1.0000
  C   C776      1.0  0.86598  0.00138  0.45671  1.0000
  H   H1226     1.0  0.86600  0.89413  0.40550  1.0000
  H   H1227     1.0  0.84127  0.70175  0.43704  1.0000
  H   H1228     1.0  0.02779  0.05549  0.23350  1.0000
  H   H1229     1.0  0.97274  0.92385  0.43103  1.0000
  H   H1230     1.0  0.83926  0.00014  0.47070  1.0000
  H   H1231     1.0  0.87679  0.97636  0.46761  1.0000
  N   N76       1.0  0.80338  0.73706  0.41862  1.0000
  C   C777      1.0  0.83273  0.85896  0.38934  1.0000
  C   C778      1.0  0.01283  0.93964  0.26618  1.0000
  C   C779      1.0  0.02627  0.73796  0.40048  1.0000
  H   H1232     1.0  0.96450  0.86355  0.34148  1.0000
  S   S310      1.0  0.74414  0.87380  0.38553  1.0000
  H   H1233     1.0  0.89106  0.81914  0.41926  1.0000
  C   C780      1.0  0.04288  0.71426  0.36632  1.0000
  C   C781      1.0  0.83088  0.08975  0.24206  1.0000
  S   S311      1.0  0.89747  0.74113  0.46465  1.0000
  H   H1234     1.0  0.94998  0.86843  0.47477  1.0000
  H   H1235     1.0  0.97868  0.65219  0.66092  1.0000
  H   H1236     1.0  0.02142  0.65519  0.65906  1.0000
  H   H1237     1.0  0.05150  0.03691  0.51942  1.0000
  H   H1238     1.0  0.99961  0.72323  0.54788  1.0000
  S   S312      1.0  0.83989  0.74922  0.61527  1.0000
  H   H1239     1.0  0.87902  0.62320  0.52582  1.0000
  H   H1240     1.0  0.94172  0.10804  0.70479  1.0000
  H   H1241     1.0  0.01747  0.71413  0.61386  1.0000
  H   H1242     1.0  0.98340  0.77170  0.68449  1.0000
  Fe  Fe155     1.0  0.05965  0.80248  0.52631  1.0000
  C   C782      1.0  0.74058  0.66928  0.63758  1.0000
  C   C783      1.0  0.94100  0.06540  0.65838  1.0000
  C   C784      1.0  0.75113  0.83000  0.66268  1.0000
  H   H1243     1.0  0.05696  0.67525  0.56542  1.0000
  C   C785      1.0  0.94872  0.09781  0.66315  1.0000
  Fe  Fe156     1.0  0.80776  0.70576  0.62981  1.0000
  H   H1244     1.0  0.74752  0.81468  0.62754  1.0000
  C   C786      1.0  0.87324  0.01826  0.55047  1.0000
  S   S313      1.0  0.90128  0.69626  0.62575  1.0000
  H   H1245     1.0  0.88363  0.03671  0.57344  1.0000
  C   C787      1.0  0.04012  0.95947  0.59022  1.0000
  H   H1246     1.0  0.00658  0.62318  0.62488  1.0000
  Fe  Fe157     1.0  0.87409  0.71972  0.55483  1.0000
  S   S314      1.0  0.83993  0.67840  0.56348  1.0000
  H   H1247     1.0  0.83892  0.06020  0.48388  1.0000
  H   H1248     1.0  0.01691  0.01155  0.52646  1.0000
  N   N77       1.0  0.74977  0.80987  0.72076  1.0000
  C   C788      1.0  0.99899  0.70610  0.58934  1.0000
  H   H1249     1.0  0.98481  0.63665  0.53110  1.0000
  S   S315      1.0  0.75351  0.70963  0.63665  1.0000
  H   H1250     1.0  0.04340  0.64205  0.53201  1.0000
  Fe  Fe158     1.0  0.86483  0.65641  0.63857  1.0000
  H   H1251     1.0  0.04434  0.03740  0.62583  1.0000
  H   H1252     1.0  0.97600  0.06014  0.51544  1.0000
  H   H1253     1.0  0.92743  0.05099  0.69599  1.0000
  N   N78       1.0  0.05205  0.99346  0.58185  1.0000
  H   H1254     1.0  0.00993  0.01173  0.63649  1.0000
  Fe  Fe159     1.0  0.94712  0.98589  0.69666  1.0000
  C   C789      1.0  0.03783  0.66801  0.54158  1.0000
  H   H1255     1.0  0.78895  0.71188  0.50569  1.0000
  C   C790      1.0  0.00282  0.64954  0.63280  1.0000
  H   H1256     1.0  0.04366  0.99972  0.67456  1.0000
  H   H1257     1.0  0.97484  0.70944  0.61696  1.0000
  S   S316      1.0  0.82989  0.68073  0.70596  1.0000
  H   H1258     1.0  0.96026  0.82610  0.49818  1.0000
  H   H1259     1.0  0.95578  0.66370  0.56787  1.0000
  H   H1260     1.0  0.91291  0.67260  0.49732  1.0000
  H   H1261     1.0  0.01348  0.95948  0.59033  1.0000
  C   C791      1.0  0.98062  0.66241  0.54233  1.0000
  H   H1262     1.0  0.95702  0.84084  0.70811  1.0000
  S   S317      1.0  0.05467  0.84429  0.58258  1.0000
  H   H1263     1.0  0.77491  0.84203  0.64843  1.0000
  C   C792      1.0  0.97455  0.10355  0.56047  1.0000
  C   C793      1.0  0.04360  0.01089  0.52619  1.0000
  Fe  Fe160     1.0  0.86442  0.72249  0.68742  1.0000
  H   H1264     1.0  0.94124  0.78500  0.69196  1.0000
  H   H1265     1.0  0.77412  0.76829  0.68197  1.0000
  S   S318      1.0  0.97259  0.93717  0.71549  1.0000
  H   H1266     1.0  0.77277  0.65979  0.55764  1.0000
  H   H1267     1.0  0.80046  0.79541  0.70658  1.0000
  C   C794      1.0  0.77608  0.78432  0.71694  1.0000
  C   C795      1.0  0.96079  0.77458  0.71681  1.0000
  H   H1268     1.0  0.05227  0.94494  0.55434  1.0000
  H   H1269     1.0  0.05555  0.99878  0.48718  1.0000
  C   C796      1.0  0.03677  0.01129  0.63196  1.0000
  H   H1270     1.0  0.98101  0.67903  0.50018  1.0000
  H   H1271     1.0  0.99914  0.82742  0.70286  1.0000
  S   S319      1.0  0.02221  0.78337  0.48067  1.0000
  H   H1272     1.0  0.92681  0.04582  0.48597  1.0000
  S   S320      1.0  0.94675  0.00929  0.60378  1.0000
  C   C797      1.0  0.75463  0.64987  0.59344  1.0000
  H   H1273     1.0  0.88436  0.99380  0.56430  1.0000
  C   C798      1.0  0.96769  0.07074  0.55630  1.0000
  H   H1274     1.0  0.04488  0.94612  0.63307  1.0000
  C   C799      1.0  0.95146  0.05148  0.60568  1.0000
  H   H1275     1.0  0.84675  0.01740  0.56716  1.0000
  N   N79       1.0  0.00509  0.67152  0.57654  1.0000
  H   H1276     1.0  0.90601  0.80905  0.48774  1.0000
  C   C800      1.0  0.74536  0.61721  0.59542  1.0000
  H   H1277     1.0  0.04006  0.68377  0.49833  1.0000
  N   N80       1.0  0.88004  0.02645  0.48549  1.0000
  H   H1278     1.0  0.87629  0.07884  0.48905  1.0000
  H   H1279     1.0  0.06786  0.70024  0.65490  1.0000
  H   H1280     1.0  0.82879  0.75441  0.48225  1.0000
