data_image0
_chemical_formula_structural       H2SCH2SCH3CFeH4CHC2H2CH2NCSHSCH5CH2CHCHSHCH2NHCSCH2CH2FeHCH4SCSFeHSCHCFeSHCH2SFeC2H4CH2C3H2CHC2HS3H2C2HCHFeHC4H4CH3NCHCH6NCHC4SH2CH2SH3SC2HSHC3H2CHC2FeC2HCNH2FeHS2HCH3CSC4FeH4C2HNHC2HCFeHCHSH2C2N2H2C2H5SH5CH2C2H2CH3SCH4CHC3HCHCSHSCH2CHCHCHCHCFeSFeHCHC2HNH2SHCSHC4H5SCHCH5CHNH5SHCSH4CHCHC2FeHCH2C2S2HCHFeH2SHCH2FeHFe3H4SCH4SH2CN2C2H4C5HCH3S2NH2CH4CH5SFeHC2HSHCH3FeC3HCS2C2HNC2HNH7CNH5SH3CSFeCSCH4CH2CHS2H3SCHC3SHC2H3CFeHCNCFeHCSH8C2SCSH2CHFeCH3FeS2HS2C3HCH3Fe2CH2CH4C2H3CN2CH2CHCH3CSHNHFeCHSC4HC2HCH3C2HSH2CFe2CH8SCHNHCSC2SH2CH2CHSCHCHCHCH2SH4CH2FeSH5CHFeHCH2SC2SHC4SCHSH3Fe2H2CSHCHCSHC2FeC2H3C2FeCS3FeHCHCHSH2FeHNH3FeSH2SC2SHCH5CSC2SHCH4CHCHCH3NHSHFeH4C3SHC2FeHS2HC2SNHCHFeHCHCH3SFeCHCHC2HSHFe2HSHCSCHSFeHCH2FeHSH2CHSHC2HCH8CHC2S2C2FeCSHCH2NHCSCHCHCH2C2SHCHCSH2NHSHCHS2H4FeHSC2HSH2C2HCH4C2S2FeCFeCHFeHSH2CHSCSHNHFeCSH2CSHSCHFeHSH2CHNFeHFeH2SH2SCHCNHCHC4HCHCH3CH2SC3HCHC3HFeH2SHCNFeH3C2SCH2C2H3CH3SHFeHSCH2CFeHCSH2CH4SH2CHCFeCH3FeHCHSHCHC2NHCHC3FeCHCS2CHCNFeCHCH2C4H2C2SHCFe2HCNCFeHSHSFeCHCHFeCHSFeHCSHSHC2SH2SC3H4SH2NHCH3SCH4C3HC2H3SH4C2SH4SH3SNCHCHC2HSFeSCSFeHCH2CSHC2H3CH2CHSH2CH2CH2CN
_chemical_formula_sum              "H576 S144 C360 Fe72 N36"
_cell_length_a       28.0899
_cell_length_b       28.1378
_cell_length_c       29.6365
_cell_angle_alpha    57.1158
_cell_angle_beta     112.372
_cell_angle_gamma    115.646

_space_group_name_H-M_alt    "P 1"
_space_group_IT_number       1

loop_
  _space_group_symop_operation_xyz
  'x, y, z'

loop_
  _atom_site_type_symbol
  _atom_site_label
  _atom_site_symmetry_multiplicity
  _atom_site_fract_x
  _atom_site_fract_y
  _atom_site_fract_z
  _atom_site_occupancy
  H   H1        1.0  0.85955  0.97789  0.78656  1.0000
  H   H2        1.0  0.90356  0.05126  0.77090  1.0000
  S   S1        1.0  0.65638  0.95770  0.65882  1.0000
  C   C1        1.0  0.83890  0.09321  0.77714  1.0000
  H   H3        1.0  0.69400  0.17960  0.81328  1.0000
  H   H4        1.0  0.87151  0.12837  0.75417  1.0000
  S   S2        1.0  0.49768  0.90863  0.65233  1.0000
  C   C2        1.0  0.90542  0.90551  0.77192  1.0000
  H   H5        1.0  0.88485  0.00447  0.83651  1.0000
  H   H6        1.0  0.48528  0.06755  0.79137  1.0000
  H   H7        1.0  0.80439  0.11109  0.76136  1.0000
  C   C3        1.0  0.51927  0.89064  0.79660  1.0000
  Fe  Fe1       1.0  0.57227  0.89622  0.65506  1.0000
  H   H8        1.0  0.41987  0.18792  0.71331  1.0000
  H   H9        1.0  0.76768  0.13381  0.84967  1.0000
  H   H10       1.0  0.74409  0.00923  0.78863  1.0000
  H   H11       1.0  0.51005  0.20700  0.86520  1.0000
  C   C4        1.0  0.81436  0.94021  0.70039  1.0000
  H   H12       1.0  0.83306  0.08427  0.68774  1.0000
  C   C5        1.0  0.75015  0.18358  0.62475  1.0000
  C   C6        1.0  0.78321  0.16896  0.81142  1.0000
  H   H13       1.0  0.78500  0.01253  0.70730  1.0000
  H   H14       1.0  0.85443  0.08425  0.82077  1.0000
  C   C7        1.0  0.86956  0.01719  0.79210  1.0000
  H   H15       1.0  0.43408  0.13622  0.64105  1.0000
  H   H16       1.0  0.82714  0.17495  0.82036  1.0000
  N   N1        1.0  0.82250  0.03920  0.77113  1.0000
  C   C8        1.0  0.81028  0.89359  0.75332  1.0000
  S   S3        1.0  0.71301  0.18386  0.66022  1.0000
  H   H17       1.0  0.51640  0.91908  0.81019  1.0000
  S   S4        1.0  0.60155  0.05882  0.83844  1.0000
  C   C9        1.0  0.86482  0.97190  0.68471  1.0000
  H   H18       1.0  0.69427  0.20136  0.74413  1.0000
  H   H19       1.0  0.50953  0.91251  0.75102  1.0000
  H   H20       1.0  0.77917  0.95365  0.67235  1.0000
  H   H21       1.0  0.82563  0.20748  0.67510  1.0000
  H   H22       1.0  0.47927  0.13406  0.72890  1.0000
  C   C10       1.0  0.80614  0.19825  0.64034  1.0000
  H   H23       1.0  0.76535  0.95272  0.79761  1.0000
  H   H24       1.0  0.76285  0.15175  0.78060  1.0000
  C   C11       1.0  0.77971  0.99343  0.80254  1.0000
  H   H25       1.0  0.76756  0.07227  0.69543  1.0000
  C   C12       1.0  0.80143  0.05293  0.71281  1.0000
  H   H26       1.0  0.79411  0.98054  0.84694  1.0000
  S   S5        1.0  0.61802  0.18844  0.85435  1.0000
  H   H27       1.0  0.56188  0.89028  0.80927  1.0000
  C   C13       1.0  0.48027  0.11194  0.77367  1.0000
  H   H28       1.0  0.51690  0.13854  0.79123  1.0000
  H   H29       1.0  0.86831  0.00941  0.64461  1.0000
  N   N2        1.0  0.43100  0.10709  0.78494  1.0000
  H   H30       1.0  0.46031  0.19661  0.77334  1.0000
  C   C14       1.0  0.43527  0.07983  0.84477  1.0000
  S   S6        1.0  0.45907  0.93369  0.86507  1.0000
  C   C15       1.0  0.91048  0.95456  0.72084  1.0000
  H   H31       1.0  0.43883  0.03419  0.86554  1.0000
  H   H32       1.0  0.47116  0.10602  0.86336  1.0000
  C   C16       1.0  0.42466  0.16671  0.75873  1.0000
  H   H33       1.0  0.42371  0.11350  0.00513  1.0000
  H   H34       1.0  0.84524  0.04716  0.07540  1.0000
  Fe  Fe2       1.0  0.61867  0.09400  0.89688  1.0000
  H   H35       1.0  0.84417  0.02336  0.91394  1.0000
  C   C17       1.0  0.82252  0.00055  0.08354  1.0000
  H   H36       1.0  0.84867  0.19117  0.08880  1.0000
  H   H37       1.0  0.70592  0.16984  0.94874  1.0000
  H   H38       1.0  0.44251  0.91494  0.08880  1.0000
  H   H39       1.0  0.73160  0.91112  0.09816  1.0000
  S   S7        1.0  0.68522  0.05278  0.95417  1.0000
  C   C18       1.0  0.74571  0.92238  0.98753  1.0000
  S   S8        1.0  0.55658  0.01851  0.94539  1.0000
  Fe  Fe3       1.0  0.66397  0.01290  0.89864  1.0000
  H   H40       1.0  0.70273  0.90826  0.98359  1.0000
  S   S9        1.0  0.62781  0.91745  0.08818  1.0000
  C   C19       1.0  0.85658  0.95677  0.99708  1.0000
  H   H41       1.0  0.78052  0.20778  0.87402  1.0000
  C   C20       1.0  0.82510  0.98638  0.94779  1.0000
  Fe  Fe4       1.0  0.62097  0.97268  0.99681  1.0000
  S   S10       1.0  0.60424  0.93102  0.94402  1.0000
  H   H42       1.0  0.51292  0.89321  0.97825  1.0000
  C   C21       1.0  0.76967  0.96980  0.94294  1.0000
  H   H43       1.0  0.79372  0.00157  0.04501  1.0000
  H   H44       1.0  0.73002  0.00920  0.07918  1.0000
  S   S11       1.0  0.73246  0.01014  0.88072  1.0000
  Fe  Fe5       1.0  0.54355  0.98070  0.89067  1.0000
  C   C22       1.0  0.75937  0.00333  0.11838  1.0000
  C   C23       1.0  0.83330  0.91002  0.04217  1.0000
  H   H45       1.0  0.89909  0.97104  0.00014  1.0000
  H   H46       1.0  0.78330  0.04818  0.11540  1.0000
  H   H47       1.0  0.85345  0.89963  0.93088  1.0000
  H   H48       1.0  0.85182  0.97854  0.09211  1.0000
  C   C24       1.0  0.77743  0.89204  0.03697  1.0000
  H   H49       1.0  0.81983  0.87948  0.87578  1.0000
  H   H50       1.0  0.47017  0.87748  0.07596  1.0000
  C   C25       1.0  0.87700  0.09262  0.24557  1.0000
  C   C26       1.0  0.55776  0.15588  0.24826  1.0000
  C   C27       1.0  0.46869  0.09506  0.22638  1.0000
  H   H51       1.0  0.61223  0.97253  0.35632  1.0000
  H   H52       1.0  0.86052  0.93923  0.19078  1.0000
  C   C28       1.0  0.71691  0.03160  0.35617  1.0000
  H   H53       1.0  0.51835  0.07073  0.30680  1.0000
  C   C29       1.0  0.55425  0.19791  0.19309  1.0000
  C   C30       1.0  0.76151  0.90954  0.13621  1.0000
  H   H54       1.0  0.55143  0.88842  0.14436  1.0000
  S   S12       1.0  0.68002  0.17748  0.19513  1.0000
  S   S13       1.0  0.81408  0.12561  0.26737  1.0000
  S   S14       1.0  0.61697  0.16630  0.29560  1.0000
  H   H55       1.0  0.67730  0.97549  0.26657  1.0000
  H   H56       1.0  0.50231  0.09509  0.36132  1.0000
  C   C31       1.0  0.83344  0.16409  0.16664  1.0000
  C   C32       1.0  0.89177  0.12952  0.15528  1.0000
  H   H57       1.0  0.71316  0.07673  0.32546  1.0000
  C   C33       1.0  0.83411  0.96525  0.18058  1.0000
  H   H58       1.0  0.78700  0.88291  0.14561  1.0000
  Fe  Fe6       1.0  0.76843  0.19133  0.22782  1.0000
  H   H59       1.0  0.81403  0.94366  0.21580  1.0000
  C   C34       1.0  0.50785  0.18862  0.15462  1.0000
  C   C35       1.0  0.62692  0.98574  0.31997  1.0000
  C   C36       1.0  0.86996  0.90155  0.35932  1.0000
  C   C37       1.0  0.51501  0.10437  0.26484  1.0000
  H   H60       1.0  0.76044  0.03471  0.36755  1.0000
  H   H61       1.0  0.60090  0.95273  0.30419  1.0000
  H   H62       1.0  0.62050  0.02957  0.28811  1.0000
  H   H63       1.0  0.86039  0.00952  0.17675  1.0000
  C   C38       1.0  0.46521  0.13707  0.17126  1.0000
  H   H64       1.0  0.88441  0.06448  0.28917  1.0000
  H   H65       1.0  0.52409  0.19918  0.34400  1.0000
  H   H66       1.0  0.43724  0.88307  0.18238  1.0000
  N   N3        1.0  0.68419  0.98822  0.33436  1.0000
  C   C39       1.0  0.84331  0.12814  0.22317  1.0000
  H   H67       1.0  0.80661  0.19079  0.14902  1.0000
  C   C40       1.0  0.70217  0.00626  0.28504  1.0000
  H   H68       1.0  0.69966  0.05152  0.25316  1.0000
  H   H69       1.0  0.74482  0.00685  0.29500  1.0000
  H   H70       1.0  0.73562  0.98000  0.15113  1.0000
  H   H71       1.0  0.52670  0.92762  0.15769  1.0000
  H   H72       1.0  0.43570  0.05504  0.23919  1.0000
  H   H73       1.0  0.73873  0.88527  0.16997  1.0000
  N   N4        1.0  0.79434  0.96970  0.12962  1.0000
  C   C41       1.0  0.90821  0.88317  0.31160  1.0000
  H   H74       1.0  0.67090  0.89670  0.35951  1.0000
  C   C42       1.0  0.90138  0.09345  0.21178  1.0000
  C   C43       1.0  0.52675  0.88269  0.16961  1.0000
  C   C44       1.0  0.85752  0.16458  0.13264  1.0000
  C   C45       1.0  0.91383  0.91241  0.34000  1.0000
  S   S15       1.0  0.81674  0.88626  0.50651  1.0000
  H   H75       1.0  0.84351  0.17430  0.39105  1.0000
  H   H76       1.0  0.80162  0.06150  0.49211  1.0000
  C   C46       1.0  0.78278  0.92737  0.50400  1.0000
  H   H77       1.0  0.57214  0.13266  0.45018  1.0000
  H   H78       1.0  0.50293  0.04679  0.50421  1.0000
  S   S16       1.0  0.91208  0.01860  0.40725  1.0000
  H   H79       1.0  0.59589  0.12641  0.40553  1.0000
  H   H80       1.0  0.87037  0.17352  0.45669  1.0000
  H   H81       1.0  0.68146  0.15781  0.56908  1.0000
  S   S17       1.0  0.69700  0.02284  0.51712  1.0000
  C   C47       1.0  0.83700  0.20252  0.61002  1.0000
  C   C48       1.0  0.70280  0.93103  0.51369  1.0000
  H   H82       1.0  0.56343  0.03194  0.40137  1.0000
  S   S18       1.0  0.49410  0.16880  0.45317  1.0000
  H   H83       1.0  0.47540  0.09627  0.40634  1.0000
  C   C49       1.0  0.72979  0.90020  0.51242  1.0000
  C   C50       1.0  0.75580  0.17643  0.54914  1.0000
  C   C51       1.0  0.80829  0.98607  0.49523  1.0000
  H   H84       1.0  0.67242  0.91131  0.41168  1.0000
  H   H85       1.0  0.73402  0.93060  0.39208  1.0000
  C   C52       1.0  0.78127  0.01691  0.49676  1.0000
  H   H86       1.0  0.61642  0.08850  0.47829  1.0000
  C   C53       1.0  0.58179  0.10176  0.44500  1.0000
  C   C54       1.0  0.81190  0.19241  0.56405  1.0000
  Fe  Fe7       1.0  0.89952  0.94310  0.49010  1.0000
  C   C55       1.0  0.51737  0.01863  0.49975  1.0000
  C   C56       1.0  0.72894  0.98885  0.50721  1.0000
  H   H87       1.0  0.44229  0.08860  0.55042  1.0000
  C   C57       1.0  0.72488  0.17159  0.57980  1.0000
  N   N5        1.0  0.53484  0.04964  0.44689  1.0000
  H   H88       1.0  0.84925  0.00724  0.48859  1.0000
  H   H89       1.0  0.66187  0.90969  0.52053  1.0000
  Fe  Fe8       1.0  0.65756  0.94976  0.58810  1.0000
  H   H90       1.0  0.51612  0.96911  0.44300  1.0000
  S   S19       1.0  0.55586  0.16802  0.60288  1.0000
  S   S20       1.0  0.57211  0.89535  0.57983  1.0000
  H   H91       1.0  0.58444  0.99518  0.47375  1.0000
  C   C58       1.0  0.55016  0.00952  0.44096  1.0000
  H   H92       1.0  0.73626  0.16726  0.51422  1.0000
  H   H93       1.0  0.55080  0.00650  0.53508  1.0000
  H   H94       1.0  0.48377  0.97747  0.50374  1.0000
  C   C59       1.0  0.41640  0.16811  0.60369  1.0000
  S   S21       1.0  0.85099  0.20239  0.52416  1.0000
  C   C60       1.0  0.42859  0.12189  0.46308  1.0000
  C   C61       1.0  0.49000  0.06857  0.40173  1.0000
  C   C62       1.0  0.88134  0.18651  0.41838  1.0000
  C   C63       1.0  0.44842  0.87759  0.61018  1.0000
  Fe  Fe9       1.0  0.54297  0.20786  0.51143  1.0000
  H   H95       1.0  0.90646  0.15869  0.42952  1.0000
  H   H96       1.0  0.87411  0.92367  0.38159  1.0000
  H   H97       1.0  0.70422  0.01936  0.39331  1.0000
  H   H98       1.0  0.45498  0.02997  0.40058  1.0000
  C   C64       1.0  0.69079  0.92922  0.37625  1.0000
  C   C65       1.0  0.86068  0.40410  0.78854  1.0000
  H   H99       1.0  0.56690  0.28586  0.79862  1.0000
  N   N6        1.0  0.77231  0.22466  0.79189  1.0000
  H   H100      1.0  0.70329  0.25565  0.76349  1.0000
  C   C66       1.0  0.85732  0.49693  0.70778  1.0000
  C   C67       1.0  0.73260  0.33818  0.85140  1.0000
  H   H101      1.0  0.64748  0.45544  0.86108  1.0000
  C   C68       1.0  0.63310  0.51112  0.69211  1.0000
  Fe  Fe10      1.0  0.44845  0.44380  0.67998  1.0000
  H   H102      1.0  0.46291  0.24893  0.83442  1.0000
  C   C69       1.0  0.55686  0.31905  0.80013  1.0000
  H   H103      1.0  0.88223  0.38131  0.83095  1.0000
  S   S22       1.0  0.49853  0.25289  0.62835  1.0000
  H   H104      1.0  0.47158  0.51422  0.80346  1.0000
  H   H105      1.0  0.78603  0.28306  0.82397  1.0000
  C   C70       1.0  0.79601  0.24313  0.83578  1.0000
  C   C71       1.0  0.71347  0.21502  0.77749  1.0000
  N   N7        1.0  0.54520  0.29641  0.85411  1.0000
  N   N8        1.0  0.88810  0.46825  0.76326  1.0000
  H   H106      1.0  0.54287  0.48254  0.81039  1.0000
  H   H107      1.0  0.65928  0.31375  0.79906  1.0000
  C   C72       1.0  0.53013  0.34102  0.85348  1.0000
  C   C73       1.0  0.57204  0.52589  0.80737  1.0000
  H   H108      1.0  0.89383  0.29565  0.66102  1.0000
  H   H109      1.0  0.59127  0.36029  0.79055  1.0000
  H   H110      1.0  0.73953  0.38522  0.82464  1.0000
  H   H111      1.0  0.85901  0.38331  0.76482  1.0000
  H   H112      1.0  0.91330  0.54210  0.78000  1.0000
  S   S23       1.0  0.75516  0.51689  0.84516  1.0000
  H   H113      1.0  0.64817  0.48451  0.73468  1.0000
  H   H114      1.0  0.78774  0.31327  0.72641  1.0000
  H   H115      1.0  0.49276  0.53898  0.71773  1.0000
  H   H116      1.0  0.85468  0.47928  0.68090  1.0000
  H   H117      1.0  0.56275  0.38363  0.84361  1.0000
  C   C74       1.0  0.50030  0.24123  0.86539  1.0000
  H   H118      1.0  0.52171  0.33005  0.76666  1.0000
  H   H119      1.0  0.85066  0.48810  0.80008  1.0000
  C   C75       1.0  0.57870  0.50893  0.67436  1.0000
  C   C76       1.0  0.68700  0.29780  0.83720  1.0000
  H   H120      1.0  0.81566  0.49012  0.70910  1.0000
  H   H121      1.0  0.84127  0.28040  0.75300  1.0000
  C   C77       1.0  0.79665  0.27117  0.74322  1.0000
  H   H122      1.0  0.60482  0.53510  0.78882  1.0000
  H   H123      1.0  0.58951  0.52010  0.85004  1.0000
  H   H124      1.0  0.49334  0.35043  0.82222  1.0000
  S   S24       1.0  0.53516  0.46120  0.72131  1.0000
  C   C78       1.0  0.89136  0.49386  0.79706  1.0000
  H   H125      1.0  0.81907  0.39523  0.79147  1.0000
  H   H126      1.0  0.78080  0.25785  0.70991  1.0000
  H   H127      1.0  0.84065  0.25319  0.84581  1.0000
  H   H128      1.0  0.91268  0.47180  0.83973  1.0000
  C   C79       1.0  0.55937  0.47004  0.98306  1.0000
  H   H129      1.0  0.67712  0.41360  0.08012  1.0000
  C   C80       1.0  0.72494  0.49559  0.99408  1.0000
  C   C81       1.0  0.70612  0.45483  0.08263  1.0000
  C   C82       1.0  0.71387  0.21659  0.92099  1.0000
  H   H130      1.0  0.75053  0.39431  0.07561  1.0000
  C   C83       1.0  0.78752  0.53448  0.05716  1.0000
  H   H131      1.0  0.60851  0.37133  0.94198  1.0000
  C   C84       1.0  0.44572  0.40696  0.08078  1.0000
  S   S25       1.0  0.50863  0.40739  0.92392  1.0000
  H   H132      1.0  0.79979  0.42720  0.11827  1.0000
  S   S26       1.0  0.91054  0.52430  0.91143  1.0000
  C   C85       1.0  0.76209  0.42284  0.94843  1.0000
  H   H133      1.0  0.78809  0.24131  0.97273  1.0000
  H   H134      1.0  0.52220  0.32629  0.89382  1.0000
  C   C86       1.0  0.68433  0.35490  0.99116  1.0000
  H   H135      1.0  0.58956  0.51770  0.03036  1.0000
  C   C87       1.0  0.73976  0.37335  0.99340  1.0000
  H   H136      1.0  0.80504  0.43769  0.95054  1.0000
  C   C88       1.0  0.65116  0.38450  0.94328  1.0000
  H   H137      1.0  0.43001  0.41769  0.98110  1.0000
  C   C89       1.0  0.76025  0.25702  0.93457  1.0000
  H   H138      1.0  0.69241  0.45704  0.98975  1.0000
  C   C90       1.0  0.67321  0.43248  0.89777  1.0000
  Fe  Fe11      1.0  0.89525  0.32606  0.95842  1.0000
  S   S27       1.0  0.65374  0.29776  0.04715  1.0000
  Fe  Fe12      1.0  0.44753  0.31791  0.94684  1.0000
  H   H139      1.0  0.45077  0.52099  0.03240  1.0000
  C   C91       1.0  0.53819  0.41424  0.98458  1.0000
  H   H140      1.0  0.58754  0.27232  0.93780  1.0000
  C   C92       1.0  0.53607  0.36336  0.03494  1.0000
  C   C93       1.0  0.77862  0.43689  0.07527  1.0000
  H   H141      1.0  0.76546  0.34992  0.02989  1.0000
  N   N9        1.0  0.74944  0.48053  0.05228  1.0000
  H   H142      1.0  0.80953  0.45303  0.05131  1.0000
  H   H143      1.0  0.68253  0.48580  0.06545  1.0000
  S   S28       1.0  0.88566  0.24439  0.95605  1.0000
  H   H144      1.0  0.52054  0.32024  0.03623  1.0000
  C   C94       1.0  0.42751  0.45574  0.98178  1.0000
  S   S29       1.0  0.82943  0.36870  0.91296  1.0000
  H   H145      1.0  0.62964  0.32287  0.88737  1.0000
  C   C95       1.0  0.57597  0.47469  0.03187  1.0000
  C   C96       1.0  0.55395  0.36802  0.08378  1.0000
  C   C97       1.0  0.57338  0.42361  0.08231  1.0000
  C   C98       1.0  0.76967  0.31778  0.89966  1.0000
  H   H146      1.0  0.56036  0.50947  0.94413  1.0000
  H   H147      1.0  0.49127  0.22193  0.90638  1.0000
  H   H148      1.0  0.48648  0.43819  0.08398  1.0000
  H   H149      1.0  0.46812  0.48851  0.97967  1.0000
  H   H150      1.0  0.50552  0.22070  0.11193  1.0000
  S   S30       1.0  0.46523  0.23154  0.98571  1.0000
  C   C99       1.0  0.59323  0.28409  0.89732  1.0000
  H   H151      1.0  0.60229  0.24634  0.90291  1.0000
  C   C100      1.0  0.72873  0.45229  0.90055  1.0000
  H   H152      1.0  0.75482  0.50947  0.97009  1.0000
  H   H153      1.0  0.80548  0.52486  0.10066  1.0000
  H   H154      1.0  0.70633  0.53181  0.97453  1.0000
  H   H155      1.0  0.44959  0.36924  0.08072  1.0000
  H   H156      1.0  0.43149  0.38959  0.11870  1.0000
  C   C101      1.0  0.67734  0.23701  0.87219  1.0000
  H   H157      1.0  0.44793  0.49174  0.18982  1.0000
  N   N10       1.0  0.53215  0.29161  0.29359  1.0000
  H   H158      1.0  0.47466  0.24274  0.24941  1.0000
  H   H159      1.0  0.47408  0.32698  0.28684  1.0000
  H   H160      1.0  0.60661  0.35147  0.26641  1.0000
  H   H161      1.0  0.58742  0.23740  0.17992  1.0000
  H   H162      1.0  0.75062  0.49754  0.19889  1.0000
  S   S31       1.0  0.76876  0.21940  0.28530  1.0000
  H   H163      1.0  0.76510  0.40444  0.22387  1.0000
  C   C102      1.0  0.84943  0.44393  0.22071  1.0000
  S   S32       1.0  0.79134  0.28336  0.16104  1.0000
  H   H164      1.0  0.48732  0.32161  0.21099  1.0000
  H   H165      1.0  0.88691  0.25499  0.31207  1.0000
  H   H166      1.0  0.50902  0.29112  0.35539  1.0000
  H   H167      1.0  0.55856  0.38657  0.25111  1.0000
  C   C103      1.0  0.79031  0.49715  0.20283  1.0000
  H   H168      1.0  0.83768  0.27663  0.35018  1.0000
  C   C104      1.0  0.57497  0.34858  0.28248  1.0000
  H   H169      1.0  0.45759  0.24782  0.32271  1.0000
  C   C105      1.0  0.53853  0.48553  0.35744  1.0000
  C   C106      1.0  0.79842  0.44451  0.21664  1.0000
  Fe  Fe13      1.0  0.78747  0.31126  0.21721  1.0000
  H   H170      1.0  0.72205  0.44379  0.12651  1.0000
  C   C107      1.0  0.50646  0.28585  0.24231  1.0000
  H   H171      1.0  0.49508  0.46960  0.35190  1.0000
  H   H172      1.0  0.58586  0.24191  0.31866  1.0000
  C   C108      1.0  0.89271  0.49558  0.21264  1.0000
  C   C109      1.0  0.55577  0.24246  0.33420  1.0000
  S   S33       1.0  0.70042  0.30834  0.18329  1.0000
  S   S34       1.0  0.59083  0.42829  0.14349  1.0000
  H   H173      1.0  0.53631  0.28843  0.22422  1.0000
  C   C110      1.0  0.46008  0.52021  0.20983  1.0000
  H   H174      1.0  0.59467  0.35480  0.32013  1.0000
  Fe  Fe14      1.0  0.70270  0.27252  0.13252  1.0000
  H   H175      1.0  0.50489  0.53450  0.22078  1.0000
  H   H176      1.0  0.89633  0.33400  0.35793  1.0000
  S   S35       1.0  0.86060  0.38012  0.23452  1.0000
  H   H177      1.0  0.44492  0.49237  0.24900  1.0000
  C   C111      1.0  0.49149  0.28938  0.31550  1.0000
  H   H178      1.0  0.55182  0.32844  0.12260  1.0000
  H   H179      1.0  0.90928  0.30084  0.21130  1.0000
  Fe  Fe15      1.0  0.62721  0.52287  0.12734  1.0000
  H   H180      1.0  0.90464  0.33361  0.13858  1.0000
  Fe  Fe16      1.0  0.68235  0.21371  0.24723  1.0000
  Fe  Fe17      1.0  0.55087  0.25347  0.58702  1.0000
  Fe  Fe18      1.0  0.62000  0.32909  0.49927  1.0000
  H   H181      1.0  0.89139  0.39337  0.54888  1.0000
  H   H182      1.0  0.77948  0.31046  0.57878  1.0000
  H   H183      1.0  0.84400  0.46921  0.49431  1.0000
  H   H184      1.0  0.81270  0.38155  0.57794  1.0000
  S   S36       1.0  0.66426  0.41689  0.43954  1.0000
  C   C112      1.0  0.62489  0.46553  0.39519  1.0000
  H   H185      1.0  0.76666  0.29912  0.49780  1.0000
  H   H186      1.0  0.77775  0.45417  0.45468  1.0000
  H   H187      1.0  0.88038  0.38183  0.49131  1.0000
  H   H188      1.0  0.54836  0.39841  0.40039  1.0000
  S   S37       1.0  0.63104  0.24976  0.50957  1.0000
  H   H189      1.0  0.47601  0.47657  0.41771  1.0000
  H   H190      1.0  0.73282  0.35523  0.45661  1.0000
  C   C113      1.0  0.81679  0.44397  0.47067  1.0000
  N   N11       1.0  0.51692  0.46339  0.49951  1.0000
  N   N12       1.0  0.80955  0.37975  0.50521  1.0000
  C   C114      1.0  0.56864  0.44519  0.38527  1.0000
  C   C115      1.0  0.78603  0.35883  0.55207  1.0000
  H   H191      1.0  0.58920  0.47022  0.48426  1.0000
  H   H192      1.0  0.49801  0.41078  0.45942  1.0000
  H   H193      1.0  0.78941  0.36202  0.43699  1.0000
  H   H194      1.0  0.85882  0.32089  0.55322  1.0000
  C   C116      1.0  0.48158  0.44001  0.45994  1.0000
  C   C117      1.0  0.87588  0.28573  0.37842  1.0000
  C   C118      1.0  0.49308  0.50223  0.49749  1.0000
  C   C119      1.0  0.77308  0.34769  0.47266  1.0000
  C   C120      1.0  0.57077  0.49770  0.48502  1.0000
  H   H195      1.0  0.86499  0.27577  0.41560  1.0000
  C   C121      1.0  0.86237  0.36852  0.52549  1.0000
  H   H196      1.0  0.88029  0.21578  0.62091  1.0000
  H   H197      1.0  0.83428  0.46130  0.43480  1.0000
  H   H198      1.0  0.74630  0.36720  0.53797  1.0000
  S   S38       1.0  0.63894  0.30010  0.58963  1.0000
  S   S39       1.0  0.53113  0.28967  0.49556  1.0000
  N   N13       1.0  0.91021  0.25031  0.39201  1.0000
  H   H199      1.0  0.53969  0.38361  0.55794  1.0000
  H   H200      1.0  0.54794  0.43000  0.58626  1.0000
  C   C122      1.0  0.52195  0.41384  0.55526  1.0000
  H   H201      1.0  0.56848  0.53608  0.44371  1.0000
  H   H202      1.0  0.51835  0.52112  0.52639  1.0000
  H   H203      1.0  0.45260  0.47760  0.50841  1.0000
  H   H204      1.0  0.59870  0.51540  0.51454  1.0000
  C   C123      1.0  0.43686  0.22810  0.59098  1.0000
  H   H205      1.0  0.48209  0.38657  0.56755  1.0000
  H   H206      1.0  0.48806  0.53955  0.45563  1.0000
  H   H207      1.0  0.43319  0.31593  0.53050  1.0000
  H   H208      1.0  0.44077  0.41394  0.46977  1.0000
  H   H209      1.0  0.69418  0.54243  0.37787  1.0000
  S   S40       1.0  0.42390  0.41251  0.61703  1.0000
  Fe  Fe19      1.0  0.64312  0.21702  0.59975  1.0000
  H   H210      1.0  0.57592  0.24558  0.37332  1.0000
  C   C124      1.0  0.41636  0.26969  0.54087  1.0000
  C   C125      1.0  0.65075  0.52636  0.37213  1.0000
  H   H211      1.0  0.61963  0.64189  0.75504  1.0000
  S   S41       1.0  0.57776  0.73699  0.62532  1.0000
  H   H212      1.0  0.47859  0.59127  0.77459  1.0000
  C   C126      1.0  0.66802  0.54675  0.65465  1.0000
  H   H213      1.0  0.84700  0.77194  0.64756  1.0000
  H   H214      1.0  0.48368  0.80841  0.64167  1.0000
  H   H215      1.0  0.50477  0.61674  0.69193  1.0000
  Fe  Fe20      1.0  0.68061  0.87402  0.71071  1.0000
  C   C127      1.0  0.48773  0.79375  0.80113  1.0000
  C   C128      1.0  0.52376  0.58015  0.71812  1.0000
  C   C129      1.0  0.50105  0.55776  0.79959  1.0000
  H   H216      1.0  0.42051  0.85996  0.81408  1.0000
  C   C130      1.0  0.83489  0.75580  0.68637  1.0000
  S   S42       1.0  0.88283  0.65061  0.81848  1.0000
  S   S43       1.0  0.68720  0.87019  0.64051  1.0000
  C   C131      1.0  0.57384  0.69349  0.85750  1.0000
  C   C132      1.0  0.78279  0.76347  0.72966  1.0000
  H   H217      1.0  0.81664  0.70695  0.70316  1.0000
  N   N14       1.0  0.79690  0.78506  0.67707  1.0000
  C   C133      1.0  0.82248  0.84976  0.65385  1.0000
  C   C134      1.0  0.58521  0.62971  0.77292  1.0000
  H   H218      1.0  0.46077  0.74773  0.81823  1.0000
  N   N15       1.0  0.54556  0.57339  0.77455  1.0000
  H   H219      1.0  0.87206  0.76449  0.71595  1.0000
  H   H220      1.0  0.76333  0.71482  0.74845  1.0000
  H   H221      1.0  0.60872  0.72049  0.83828  1.0000
  H   H222      1.0  0.52058  0.68547  0.78549  1.0000
  H   H223      1.0  0.47695  0.81219  0.75576  1.0000
  H   H224      1.0  0.72727  0.72265  0.65480  1.0000
  H   H225      1.0  0.60143  0.62706  0.81459  1.0000
  C   C135      1.0  0.47909  0.63840  0.85247  1.0000
  N   N16       1.0  0.48240  0.83019  0.81970  1.0000
  H   H226      1.0  0.81907  0.77301  0.75995  1.0000
  H   H227      1.0  0.85805  0.86195  0.68319  1.0000
  H   H228      1.0  0.75456  0.78518  0.72416  1.0000
  H   H229      1.0  0.85286  0.84050  0.82957  1.0000
  H   H230      1.0  0.51594  0.55438  0.84152  1.0000
  S   S44       1.0  0.59646  0.81283  0.71338  1.0000
  H   H231      1.0  0.52967  0.79133  0.81383  1.0000
  H   H232      1.0  0.56691  0.66685  0.74692  1.0000
  H   H233      1.0  0.55598  0.59046  0.69828  1.0000
  C   C136      1.0  0.52427  0.67308  0.82788  1.0000
  S   S45       1.0  0.75096  0.85890  0.77932  1.0000
  Fe  Fe21      1.0  0.60144  0.81606  0.63824  1.0000
  C   C137      1.0  0.74777  0.77110  0.63838  1.0000
  S   S46       1.0  0.41745  0.61373  0.81472  1.0000
  C   C138      1.0  0.42639  0.83302  0.80084  1.0000
  H   H234      1.0  0.87675  0.54545  0.68796  1.0000
  H   H235      1.0  0.71802  0.79265  0.62959  1.0000
  H   H236      1.0  0.41464  0.85305  0.75537  1.0000
  H   H237      1.0  0.79409  0.87381  0.64316  1.0000
  C   C139      1.0  0.85581  0.87621  0.78873  1.0000
  H   H238      1.0  0.70978  0.54722  0.66846  1.0000
  H   H239      1.0  0.77003  0.85114  0.96403  1.0000
  C   C140      1.0  0.43891  0.87123  0.92532  1.0000
  H   H240      1.0  0.44828  0.59866  0.92533  1.0000
  S   S47       1.0  0.64107  0.70508  0.94777  1.0000
  S   S48       1.0  0.70274  0.68614  0.09884  1.0000
  H   H241      1.0  0.53787  0.79956  0.89576  1.0000
  H   H242      1.0  0.44498  0.64772  0.09538  1.0000
  H   H243      1.0  0.53546  0.63610  0.97706  1.0000
  S   S49       1.0  0.69129  0.58029  0.07701  1.0000
  C   C141      1.0  0.84226  0.78802  0.01232  1.0000
  H   H244      1.0  0.77121  0.71900  0.96424  1.0000
  C   C142      1.0  0.76089  0.81466  0.95449  1.0000
  C   C143      1.0  0.84249  0.86449  0.91876  1.0000
  C   C144      1.0  0.57831  0.67916  0.91184  1.0000
  S   S50       1.0  0.85644  0.58537  0.94053  1.0000
  H   H245      1.0  0.83282  0.75584  0.93807  1.0000
  C   C145      1.0  0.45967  0.81115  0.02384  1.0000
  C   C146      1.0  0.79623  0.76240  0.93768  1.0000
  H   H246      1.0  0.81994  0.74402  0.04108  1.0000
  H   H247      1.0  0.88053  0.86096  0.91918  1.0000
  H   H248      1.0  0.46837  0.75815  0.89898  1.0000
  C   C147      1.0  0.62506  0.76086  0.10810  1.0000
  Fe  Fe22      1.0  0.65058  0.65001  0.03884  1.0000
  H   H249      1.0  0.48746  0.80420  0.06249  1.0000
  C   C148      1.0  0.47448  0.86139  0.97578  1.0000
  N   N17       1.0  0.81051  0.80736  0.95585  1.0000
  C   C149      1.0  0.53280  0.64534  0.93604  1.0000
  Fe  Fe23      1.0  0.90542  0.67270  0.88717  1.0000
  H   H250      1.0  0.63029  0.74484  0.08494  1.0000
  C   C150      1.0  0.48324  0.62494  0.90641  1.0000
  S   S51       1.0  0.58311  0.59060  0.08548  1.0000
  H   H251      1.0  0.76755  0.56920  0.03910  1.0000
  H   H252      1.0  0.73774  0.77386  0.98504  1.0000
  H   H253      1.0  0.75863  0.85479  0.07094  1.0000
  H   H254      1.0  0.82152  0.55346  0.03614  1.0000
  H   H255      1.0  0.85178  0.81973  0.02816  1.0000
  H   H256      1.0  0.77236  0.77569  0.89512  1.0000
  H   H257      1.0  0.73384  0.82463  0.91350  1.0000
  H   H258      1.0  0.63921  0.85083  0.04520  1.0000
  C   C151      1.0  0.62922  0.82094  0.08507  1.0000
  C   C152      1.0  0.62196  0.84223  0.11438  1.0000
  S   S52       1.0  0.90769  0.75820  0.87661  1.0000
  C   C153      1.0  0.44634  0.87103  0.10248  1.0000
  S   S53       1.0  0.87519  0.87677  0.10459  1.0000
  H   H259      1.0  0.88104  0.78427  0.01442  1.0000
  H   H260      1.0  0.49329  0.83019  0.89552  1.0000
  C   C154      1.0  0.49614  0.80331  0.88017  1.0000
  H   H261      1.0  0.44650  0.58246  0.09944  1.0000
  Fe  Fe24      1.0  0.83981  0.56005  0.87517  1.0000
  C   C155      1.0  0.61390  0.72177  0.16079  1.0000
  H   H262      1.0  0.76246  0.66076  0.33447  1.0000
  H   H263      1.0  0.64048  0.61347  0.32760  1.0000
  H   H264      1.0  0.85799  0.76540  0.23731  1.0000
  Fe  Fe25      1.0  0.69087  0.75332  0.35116  1.0000
  S   S54       1.0  0.82398  0.61618  0.17408  1.0000
  S   S55       1.0  0.75224  0.79073  0.30065  1.0000
  H   H265      1.0  0.44117  0.58163  0.24196  1.0000
  S   S56       1.0  0.61078  0.64680  0.19248  1.0000
  S   S57       1.0  0.60614  0.75510  0.30843  1.0000
  C   C156      1.0  0.85811  0.84601  0.29965  1.0000
  C   C157      1.0  0.83773  0.72080  0.23897  1.0000
  C   C158      1.0  0.45969  0.60795  0.12263  1.0000
  H   H266      1.0  0.49692  0.78759  0.15332  1.0000
  C   C159      1.0  0.43981  0.83911  0.19436  1.0000
  H   H267      1.0  0.45775  0.81933  0.23879  1.0000
  H   H268      1.0  0.60709  0.81926  0.19082  1.0000
  H   H269      1.0  0.50440  0.62395  0.13069  1.0000
  Fe  Fe26      1.0  0.58508  0.65719  0.36106  1.0000
  Fe  Fe27      1.0  0.63769  0.62226  0.14794  1.0000
  C   C160      1.0  0.47328  0.78514  0.17769  1.0000
  H   H270      1.0  0.82071  0.72360  0.32083  1.0000
  H   H271      1.0  0.86673  0.69423  0.26470  1.0000
  C   C161      1.0  0.62058  0.56649  0.34480  1.0000
  H   H272      1.0  0.44120  0.64696  0.17794  1.0000
  H   H273      1.0  0.85341  0.82566  0.27550  1.0000
  H   H274      1.0  0.82656  0.65246  0.34499  1.0000
  H   H275      1.0  0.82970  0.72717  0.19646  1.0000
  C   C162      1.0  0.79985  0.68157  0.31771  1.0000
  C   C163      1.0  0.60686  0.74297  0.19023  1.0000
  H   H276      1.0  0.77079  0.77431  0.22339  1.0000
  H   H277      1.0  0.59860  0.71295  0.23119  1.0000
  H   H278      1.0  0.50100  0.62393  0.21303  1.0000
  C   C164      1.0  0.61149  0.80309  0.16733  1.0000
  N   N18       1.0  0.78750  0.69157  0.26058  1.0000
  N   N19       1.0  0.43882  0.57180  0.17411  1.0000
  C   C165      1.0  0.75107  0.72932  0.22613  1.0000
  H   H279      1.0  0.43216  0.75529  0.17133  1.0000
  H   H280      1.0  0.73788  0.73437  0.18367  1.0000
  C   C166      1.0  0.76087  0.63407  0.25932  1.0000
  H   H281      1.0  0.78602  0.60327  0.28653  1.0000
  C   C167      1.0  0.82003  0.86313  0.34852  1.0000
  H   H282      1.0  0.75384  0.63995  0.21739  1.0000
  H   H283      1.0  0.72109  0.61234  0.27212  1.0000
  H   H284      1.0  0.71409  0.71036  0.24311  1.0000
  C   C168      1.0  0.81409  0.83601  0.31810  1.0000
  S   S58       1.0  0.53011  0.59228  0.32820  1.0000
  H   H285      1.0  0.49200  0.76350  0.22164  1.0000
  N   N20       1.0  0.47152  0.84444  0.16105  1.0000
  H   H286      1.0  0.54739  0.86356  0.21319  1.0000
  Fe  Fe28      1.0  0.73641  0.60968  0.14189  1.0000
  C   C169      1.0  0.45630  0.60773  0.20291  1.0000
  H   H287      1.0  0.78583  0.85598  0.36222  1.0000
  S   S59       1.0  0.67475  0.54772  0.19506  1.0000
  C   C170      1.0  0.83346  0.54907  0.19394  1.0000
  C   C171      1.0  0.56488  0.54581  0.34127  1.0000
  C   C172      1.0  0.88471  0.54800  0.19930  1.0000
  C   C173      1.0  0.55369  0.82816  0.45964  1.0000
  H   H288      1.0  0.82464  0.80275  0.46606  1.0000
  C   C174      1.0  0.57648  0.76250  0.55636  1.0000
  C   C175      1.0  0.84691  0.67225  0.56862  1.0000
  H   H289      1.0  0.90363  0.78951  0.46052  1.0000
  C   C176      1.0  0.55520  0.80916  0.51469  1.0000
  H   H290      1.0  0.80989  0.73532  0.42988  1.0000
  H   H291      1.0  0.45216  0.72428  0.54237  1.0000
  H   H292      1.0  0.48257  0.69762  0.49217  1.0000
  C   C177      1.0  0.90225  0.75103  0.50204  1.0000
  C   C178      1.0  0.81214  0.69894  0.47252  1.0000
  H   H293      1.0  0.61380  0.69971  0.57496  1.0000
  S   S60       1.0  0.68882  0.76772  0.41756  1.0000
  H   H294      1.0  0.77040  0.67519  0.48045  1.0000
  H   H295      1.0  0.86372  0.63967  0.57457  1.0000
  C   C179      1.0  0.59685  0.73544  0.54294  1.0000
  Fe  Fe29      1.0  0.65864  0.66900  0.46421  1.0000
  Fe  Fe30      1.0  0.60157  0.76053  0.37923  1.0000
  C   C180      1.0  0.57299  0.80013  0.44617  1.0000
  H   H296      1.0  0.53626  0.86344  0.42755  1.0000
  H   H297      1.0  0.70949  0.85528  0.51796  1.0000
  H   H298      1.0  0.78428  0.74381  0.51620  1.0000
  H   H299      1.0  0.53801  0.82909  0.52472  1.0000
  H   H300      1.0  0.83645  0.86736  0.61579  1.0000
  H   H301      1.0  0.82754  0.66740  0.47432  1.0000
  H   H302      1.0  0.75729  0.78648  0.59851  1.0000
  H   H303      1.0  0.80564  0.64824  0.57769  1.0000
  S   S61       1.0  0.69353  0.62204  0.55346  1.0000
  C   C181      1.0  0.59509  0.58103  0.58237  1.0000
  H   H304      1.0  0.44400  0.78233  0.44300  1.0000
  N   N21       1.0  0.84681  0.72179  0.51267  1.0000
  H   H305      1.0  0.61195  0.73382  0.47836  1.0000
  C   C182      1.0  0.45322  0.82955  0.61128  1.0000
  S   S62       1.0  0.57134  0.66211  0.42780  1.0000
  C   C183      1.0  0.59569  0.75470  0.48807  1.0000
  C   C184      1.0  0.64893  0.58114  0.59947  1.0000
  S   S63       1.0  0.66992  0.65527  0.40197  1.0000
  H   H306      1.0  0.87149  0.68811  0.59997  1.0000
  H   H307      1.0  0.85144  0.78324  0.53716  1.0000
  C   C185      1.0  0.82589  0.76473  0.50776  1.0000
  H   H308      1.0  0.44008  0.62331  0.52201  1.0000
  H   H309      1.0  0.58059  0.60911  0.54053  1.0000
  C   C186      1.0  0.42021  0.81008  0.57183  1.0000
  H   H310      1.0  0.42588  0.77459  0.57194  1.0000
  S   S64       1.0  0.56603  0.81917  0.37736  1.0000
  C   C187      1.0  0.44109  0.66813  0.48703  1.0000
  H   H311      1.0  0.43372  0.66462  0.44912  1.0000
  C   C188      1.0  0.55978  0.54437  0.61956  1.0000
  H   H312      1.0  0.51802  0.54380  0.60588  1.0000
  C   C189      1.0  0.26524  0.19365  0.82355  1.0000
  H   H313      1.0  0.38732  0.02428  0.78160  1.0000
  C   C190      1.0  0.38379  0.06969  0.76258  1.0000
  H   H314      1.0  0.03289  0.89120  0.81537  1.0000
  H   H315      1.0  0.16296  0.13638  0.83822  1.0000
  S   S65       1.0  0.97498  0.99297  0.70515  1.0000
  H   H316      1.0  0.34592  0.06516  0.77038  1.0000
  H   H317      1.0  0.37946  0.08886  0.71751  1.0000
  H   H318      1.0  0.25334  0.14649  0.83279  1.0000
  H   H319      1.0  0.05425  0.93767  0.72327  1.0000
  C   C191      1.0  0.06761  0.89880  0.73794  1.0000
  H   H320      1.0  0.28342  0.19564  0.86323  1.0000
  H   H321      1.0  0.14172  0.20101  0.80762  1.0000
  Fe  Fe31      1.0  0.98536  0.09035  0.65713  1.0000
  S   S66       1.0  0.94409  0.13506  0.66822  1.0000
  H   H322      1.0  0.06207  0.89333  0.70162  1.0000
  H   H323      1.0  0.98344  0.17490  0.79694  1.0000
  H   H324      1.0  0.19332  0.18620  0.86830  1.0000
  H   H325      1.0  0.18250  0.16796  0.74888  1.0000
  H   H326      1.0  0.39926  0.07663  0.85482  1.0000
  C   C192      1.0  0.97410  0.17662  0.82818  1.0000
  H   H327      1.0  0.38858  0.16502  0.76751  1.0000
  Fe  Fe32      1.0  0.02326  0.20588  0.66451  1.0000
  H   H328      1.0  0.94038  0.89134  0.79927  1.0000
  C   C193      1.0  0.22018  0.19690  0.64192  1.0000
  H   H329      1.0  0.11146  0.90978  0.75510  1.0000
  H   H330      1.0  0.22285  0.15846  0.68133  1.0000
  S   S67       1.0  0.06597  0.15687  0.66206  1.0000
  C   C194      1.0  0.17742  0.18391  0.82863  1.0000
  C   C195      1.0  0.34843  0.97042  0.04082  1.0000
  S   S68       1.0  0.97725  0.06258  0.89138  1.0000
  H   H331      1.0  0.23054  0.05547  0.07292  1.0000
  C   C196      1.0  0.16899  0.11577  0.07192  1.0000
  C   C197      1.0  0.36940  0.07999  0.94776  1.0000
  C   C198      1.0  0.24667  0.19538  0.03556  1.0000
  C   C199      1.0  0.13813  0.13223  0.01889  1.0000
  S   S69       1.0  0.33428  0.90387  0.10037  1.0000
  C   C200      1.0  0.39560  0.07508  0.00014  1.0000
  H   H332      1.0  0.02223  0.11652  0.12098  1.0000
  S   S70       1.0  0.37868  0.15052  0.89123  1.0000
  H   H333      1.0  0.40551  0.01754  0.08677  1.0000
  H   H334      1.0  0.29727  0.06362  0.07161  1.0000
  H   H335      1.0  0.94519  0.18476  0.94142  1.0000
  Fe  Fe33      1.0  0.04167  0.89518  0.06078  1.0000
  Fe  Fe34      1.0  0.00287  0.00499  0.98074  1.0000
  H   H336      1.0  0.29344  0.93643  0.98380  1.0000
  H   H337      1.0  0.13786  0.19114  0.93314  1.0000
  C   C201      1.0  0.96799  0.12674  0.87891  1.0000
  S   S71       1.0  0.99655  0.01381  0.04880  1.0000
  H   H338      1.0  0.31264  0.03309  0.90149  1.0000
  C   C202      1.0  0.33359  0.02954  0.94181  1.0000
  H   H339      1.0  0.94760  0.09023  0.95663  1.0000
  C   C203      1.0  0.23697  0.95039  0.10076  1.0000
  S   S72       1.0  0.08487  0.99167  0.02023  1.0000
  H   H340      1.0  0.19606  0.95479  0.07751  1.0000
  C   C204      1.0  0.95552  0.12929  0.91883  1.0000
  C   C205      1.0  0.16155  0.17989  0.97418  1.0000
  Fe  Fe35      1.0  0.95789  0.91583  0.08498  1.0000
  C   C206      1.0  0.26912  0.04578  0.09890  1.0000
  C   C207      1.0  0.38526  0.02055  0.04648  1.0000
  H   H341      1.0  0.09635  0.10754  0.01212  1.0000
  H   H342      1.0  0.01213  0.89163  0.95960  1.0000
  H   H343      1.0  0.26182  0.96854  0.07023  1.0000
  C   C208      1.0  0.32279  0.97478  0.98842  1.0000
  C   C209      1.0  0.95299  0.18258  0.90966  1.0000
  Fe  Fe36      1.0  0.07493  0.99344  0.09094  1.0000
  C   C210      1.0  0.22287  0.14838  0.08045  1.0000
  S   S73       1.0  0.33559  0.17164  0.98127  1.0000
  S   S74       1.0  0.96084  0.90807  0.01507  1.0000
  S   S75       1.0  0.92211  0.12919  0.11363  1.0000
  Fe  Fe37      1.0  0.40729  0.19702  0.03904  1.0000
  H   H344      1.0  0.24689  0.13558  0.12149  1.0000
  C   C211      1.0  0.34137  0.13666  0.22721  1.0000
  H   H345      1.0  0.96020  0.02945  0.18215  1.0000
  C   C212      1.0  0.03043  0.16797  0.34162  1.0000
  H   H346      1.0  0.02156  0.11310  0.20484  1.0000
  S   S76       1.0  0.03630  0.89532  0.13447  1.0000
  H   H347      1.0  0.36129  0.18320  0.14735  1.0000
  H   H348      1.0  0.08597  0.99234  0.27650  1.0000
  Fe  Fe38      1.0  0.29201  0.99549  0.30942  1.0000
  H   H349      1.0  0.32483  0.10311  0.30569  1.0000
  N   N22       1.0  0.04641  0.05221  0.20246  1.0000
  H   H350      1.0  0.31007  0.92396  0.19481  1.0000
  H   H351      1.0  0.09273  0.12253  0.22551  1.0000
  H   H352      1.0  0.98728  0.98116  0.24922  1.0000
  Fe  Fe39      1.0  0.18871  0.90044  0.33974  1.0000
  S   S77       1.0  0.32716  0.06596  0.23488  1.0000
  H   H353      1.0  0.21996  0.91235  0.20110  1.0000
  H   H354      1.0  0.04303  0.06276  0.12421  1.0000
  S   S78       1.0  0.14106  0.05192  0.12662  1.0000
  C   C213      1.0  0.34740  0.19824  0.26397  1.0000
  C   C214      1.0  0.06028  0.19322  0.30131  1.0000
  S   S79       1.0  0.26123  0.90111  0.32434  1.0000
  H   H355      1.0  0.99697  0.12833  0.34647  1.0000
  C   C215      1.0  0.31385  0.97173  0.16755  1.0000
  H   H356      1.0  0.24054  0.98509  0.19562  1.0000
  H   H357      1.0  0.98766  0.97735  0.19075  1.0000
  H   H358      1.0  0.23353  0.90240  0.12605  1.0000
  H   H359      1.0  0.17615  0.16874  0.18742  1.0000
  H   H360      1.0  0.34503  0.20208  0.29729  1.0000
  C   C216      1.0  0.35720  0.18741  0.17981  1.0000
  S   S80       1.0  0.21857  0.99560  0.32232  1.0000
  C   C217      1.0  0.99292  0.00798  0.20621  1.0000
  C   C218      1.0  0.33646  0.14221  0.26906  1.0000
  S   S81       1.0  0.97537  0.96282  0.35080  1.0000
  H   H361      1.0  0.12952  0.05281  0.22972  1.0000
  C   C219      1.0  0.05262  0.08908  0.22683  1.0000
  H   H362      1.0  0.09251  0.12043  0.13984  1.0000
  H   H363      1.0  0.04812  0.06165  0.27050  1.0000
  H   H364      1.0  0.08416  0.99236  0.21553  1.0000
  H   H365      1.0  0.33313  0.99543  0.19326  1.0000
  C   C220      1.0  0.08835  0.02126  0.23249  1.0000
  H   H366      1.0  0.18424  0.96495  0.14826  1.0000
  C   C221      1.0  0.22489  0.95988  0.17165  1.0000
  H   H367      1.0  0.04980  0.17300  0.27516  1.0000
  C   C222      1.0  0.05124  0.08994  0.14433  1.0000
  H   H368      1.0  0.94244  0.88894  0.29897  1.0000
  H   H369      1.0  0.92771  0.06613  0.22960  1.0000
  H   H370      1.0  0.34230  0.98883  0.14074  1.0000
  N   N23       1.0  0.26115  0.98179  0.13479  1.0000
  H   H371      1.0  0.28741  0.07087  0.12330  1.0000
  S   S82       1.0  0.40800  0.12282  0.12389  1.0000
  H   H372      1.0  0.35084  0.01603  0.55931  1.0000
  Fe  Fe40      1.0  0.01894  0.95459  0.53356  1.0000
  H   H373      1.0  0.22351  0.07693  0.52729  1.0000
  H   H374      1.0  0.12156  0.15940  0.51944  1.0000
  H   H375      1.0  0.09371  0.08953  0.51916  1.0000
  H   H376      1.0  0.08501  0.89653  0.51863  1.0000
  C   C223      1.0  0.17253  0.16114  0.45929  1.0000
  C   C224      1.0  0.32505  0.04102  0.47296  1.0000
  C   C225      1.0  0.37414  0.88318  0.53300  1.0000
  S   S83       1.0  0.08322  0.91707  0.60086  1.0000
  H   H377      1.0  0.20675  0.16663  0.44512  1.0000
  C   C226      1.0  0.04379  0.19403  0.37545  1.0000
  C   C227      1.0  0.39142  0.11791  0.41691  1.0000
  Fe  Fe41      1.0  0.25723  0.96358  0.41123  1.0000
  H   H378      1.0  0.13516  0.13876  0.43851  1.0000
  S   S84       1.0  0.33404  0.97335  0.39605  1.0000
  S   S85       1.0  0.26286  0.98559  0.47569  1.0000
  H   H379      1.0  0.23168  0.13861  0.59020  1.0000
  C   C228      1.0  0.09532  0.91924  0.47766  1.0000
  C   C229      1.0  0.17061  0.19905  0.60564  1.0000
  S   S86       1.0  0.96523  0.13473  0.56549  1.0000
  N   N24       1.0  0.17871  0.12750  0.51952  1.0000
  H   H380      1.0  0.13568  0.16117  0.61595  1.0000
  C   C230      1.0  0.35792  0.19208  0.51441  1.0000
  H   H381      1.0  0.40345  0.94013  0.57141  1.0000
  Fe  Fe42      1.0  0.98169  0.06339  0.45357  1.0000
  H   H382      1.0  0.06806  0.94715  0.44818  1.0000
  C   C231      1.0  0.22605  0.16195  0.54479  1.0000
  H   H383      1.0  0.40266  0.14530  0.37723  1.0000
  C   C232      1.0  0.36181  0.04514  0.51948  1.0000
  H   H384      1.0  0.13398  0.09406  0.58091  1.0000
  H   H385      1.0  0.17092  0.20626  0.44444  1.0000
  H   H386      1.0  0.34240  0.90263  0.50436  1.0000
  S   S87       1.0  0.31173  0.16979  0.46529  1.0000
  Fe  Fe43      1.0  0.96994  0.97860  0.41450  1.0000
  C   C233      1.0  0.13001  0.11710  0.53566  1.0000
  H   H387      1.0  0.36099  0.10377  0.57512  1.0000
  C   C234      1.0  0.41363  0.08601  0.51447  1.0000
  H   H388      1.0  0.31096  0.07636  0.38589  1.0000
  C   C235      1.0  0.33971  0.07836  0.42181  1.0000
  C   C236      1.0  0.37593  0.14997  0.56585  1.0000
  H   H389      1.0  0.22245  0.20609  0.53030  1.0000
  S   S88       1.0  0.00937  0.15978  0.42862  1.0000
  H   H390      1.0  0.15205  0.04340  0.51949  1.0000
  Fe  Fe44      1.0  0.92876  0.18370  0.57652  1.0000
  Fe  Fe45      1.0  0.04272  0.20489  0.57087  1.0000
  H   H391      1.0  0.19048  0.04338  0.58352  1.0000
  S   S89       1.0  0.96451  0.99146  0.53664  1.0000
  H   H392      1.0  0.13720  0.94937  0.47985  1.0000
  C   C237      1.0  0.18650  0.07029  0.53831  1.0000
  S   S90       1.0  0.04056  0.02945  0.45389  1.0000
  C   C238      1.0  0.10218  0.90890  0.40520  1.0000
  H   H393      1.0  0.26346  0.16992  0.53412  1.0000
  S   S91       1.0  0.95281  0.90004  0.49421  1.0000
  Fe  Fe46      1.0  0.29641  0.87852  0.41331  1.0000
  H   H394      1.0  0.14305  0.94138  0.40376  1.0000
  C   C239      1.0  0.40773  0.90327  0.57211  1.0000
  H   H395      1.0  0.07270  0.93372  0.37466  1.0000
  H   H396      1.0  0.10080  0.87849  0.39159  1.0000
  Fe  Fe47      1.0  0.35600  0.34494  0.66077  1.0000
  H   H397      1.0  0.15487  0.28533  0.84469  1.0000
  S   S92       1.0  0.38389  0.37158  0.72734  1.0000
  H   H398      1.0  0.03341  0.44276  0.65957  1.0000
  H   H399      1.0  0.09169  0.38268  0.68603  1.0000
  C   C240      1.0  0.26549  0.24584  0.62839  1.0000
  H   H400      1.0  0.95243  0.23591  0.68644  1.0000
  S   S93       1.0  0.96476  0.30155  0.84961  1.0000
  H   H401      1.0  0.26898  0.30758  0.75801  1.0000
  C   C241      1.0  0.01564  0.39764  0.66546  1.0000
  C   C242      1.0  0.12761  0.31320  0.81545  1.0000
  H   H402      1.0  0.16119  0.23239  0.71901  1.0000
  C   C243      1.0  0.19341  0.48006  0.68141  1.0000
  H   H403      1.0  0.10070  0.41790  0.75867  1.0000
  H   H404      1.0  0.05326  0.47139  0.86626  1.0000
  H   H405      1.0  0.96602  0.52571  0.74340  1.0000
  H   H406      1.0  0.14224  0.34111  0.77625  1.0000
  H   H407      1.0  0.17654  0.43755  0.71280  1.0000
  H   H408      1.0  0.25428  0.28526  0.82164  1.0000
  H   H409      1.0  0.20340  0.30083  0.76057  1.0000
  H   H410      1.0  0.04697  0.35364  0.78754  1.0000
  C   C244      1.0  0.95982  0.37275  0.65912  1.0000
  H   H411      1.0  0.18115  0.41520  0.86311  1.0000
  C   C245      1.0  0.17992  0.39117  0.84268  1.0000
  C   C246      1.0  0.08666  0.38298  0.79767  1.0000
  S   S94       1.0  0.26912  0.43177  0.70293  1.0000
  S   S95       1.0  0.32360  0.24975  0.67843  1.0000
  C   C247      1.0  0.23712  0.28061  0.78317  1.0000
  C   C248      1.0  0.06279  0.51879  0.84191  1.0000
  Fe  Fe48      1.0  0.33337  0.43421  0.67320  1.0000
  C   C249      1.0  0.24085  0.49069  0.66783  1.0000
  S   S96       1.0  0.14372  0.51042  0.81907  1.0000
  H   H412      1.0  0.08709  0.28284  0.80829  1.0000
  C   C250      1.0  0.94286  0.47790  0.75961  1.0000
  H   H413      1.0  0.18189  0.36115  0.63769  1.0000
  H   H414      1.0  0.07928  0.40517  0.81495  1.0000
  N   N25       1.0  0.12598  0.34950  0.83646  1.0000
  H   H415      1.0  0.19200  0.42499  0.80252  1.0000
  C   C251      1.0  0.02588  0.30542  0.68812  1.0000
  S   S97       1.0  0.06731  0.26333  0.70678  1.0000
  C   C252      1.0  0.04865  0.36366  0.68065  1.0000
  H   H416      1.0  0.13128  0.51560  0.66581  1.0000
  C   C253      1.0  0.16770  0.52422  0.65466  1.0000
  H   H417      1.0  0.21137  0.36798  0.86783  1.0000
  C   C254      1.0  0.97058  0.22962  0.81867  1.0000
  H   H418      1.0  0.96611  0.45413  0.80042  1.0000
  H   H419      1.0  0.97701  0.26859  0.78022  1.0000
  C   C255      1.0  0.96146  0.23299  0.85985  1.0000
  C   C256      1.0  0.96998  0.28125  0.67979  1.0000
  S   S98       1.0  0.40047  0.50903  0.63124  1.0000
  H   H420      1.0  0.00215  0.52698  0.86308  1.0000
  C   C257      1.0  0.93694  0.31473  0.66597  1.0000
  H   H421      1.0  0.22682  0.24013  0.71536  1.0000
  C   C258      1.0  0.19632  0.21450  0.74206  1.0000
  S   S99       1.0  0.91836  0.41429  0.64155  1.0000
  H   H422      1.0  0.94184  0.46143  0.73243  1.0000
  H   H423      1.0  0.29753  0.21846  0.79896  1.0000
  N   N26       1.0  0.21897  0.21810  0.79438  1.0000
  H   H424      1.0  0.14086  0.54013  0.95929  1.0000
  S   S100      1.0  0.97187  0.37818  0.92691  1.0000
  H   H425      1.0  0.35265  0.35565  0.03088  1.0000
  C   C259      1.0  0.15869  0.43366  0.00800  1.0000
  H   H426      1.0  0.25189  0.25222  0.11139  1.0000
  S   S101      1.0  0.24572  0.26725  0.92568  1.0000
  S   S102      1.0  0.93762  0.29516  0.04554  1.0000
  H   H427      1.0  0.98747  0.37782  0.10085  1.0000
  H   H428      1.0  0.22743  0.35670  0.09638  1.0000
  H   H429      1.0  0.07134  0.27530  0.88831  1.0000
  H   H430      1.0  0.39535  0.47674  0.06797  1.0000
  Fe  Fe49      1.0  0.32847  0.26172  0.94424  1.0000
  H   H431      1.0  0.18314  0.21563  0.09103  1.0000
  S   S103      1.0  0.01353  0.26041  0.01240  1.0000
  C   C260      1.0  0.13739  0.26417  0.11360  1.0000
  C   C261      1.0  0.23486  0.46778  0.08729  1.0000
  H   H432      1.0  0.12901  0.42171  0.97679  1.0000
  S   S104      1.0  0.39595  0.28522  0.00618  1.0000
  H   H433      1.0  0.33939  0.38060  0.06826  1.0000
  H   H434      1.0  0.05389  0.50316  0.98277  1.0000
  C   C262      1.0  0.35410  0.39564  0.03125  1.0000
  C   C263      1.0  0.21116  0.46869  0.99932  1.0000
  H   H435      1.0  0.22187  0.48289  0.96170  1.0000
  C   C264      1.0  0.14414  0.41718  0.05573  1.0000
  H   H436      1.0  0.14077  0.28835  0.92158  1.0000
  H   H437      1.0  0.10922  0.22288  0.11136  1.0000
  H   H438      1.0  0.32523  0.41694  0.99474  1.0000
  H   H439      1.0  0.13223  0.30157  0.07194  1.0000
  C   C265      1.0  0.24901  0.48663  0.03856  1.0000
  C   C266      1.0  0.10968  0.31041  0.89037  1.0000
  S   S105      1.0  0.07827  0.37987  0.06663  1.0000
  S   S106      1.0  0.29656  0.52360  0.89618  1.0000
  Fe  Fe50      1.0  0.01419  0.33937  0.01404  1.0000
  C   C267      1.0  0.21012  0.25600  0.09599  1.0000
  Fe  Fe51      1.0  0.96388  0.29517  0.92765  1.0000
  C   C268      1.0  0.18247  0.43300  0.09591  1.0000
  H   H440      1.0  0.20867  0.29451  0.05457  1.0000
  Fe  Fe52      1.0  0.93515  0.21773  0.04061  1.0000
  H   H441      1.0  0.28890  0.21899  0.04210  1.0000
  S   S107      1.0  0.31322  0.53431  0.02624  1.0000
  H   H442      1.0  0.39992  0.47705  0.94354  1.0000
  H   H443      1.0  0.38319  0.51381  0.99444  1.0000
  C   C269      1.0  0.40963  0.48938  0.03156  1.0000
  H   H444      1.0  0.10356  0.33568  0.90537  1.0000
  S   S108      1.0  0.37862  0.29934  0.88251  1.0000
  C   C270      1.0  0.00619  0.54213  0.09801  1.0000
  S   S109      1.0  0.95044  0.50413  0.06464  1.0000
  H   H445      1.0  0.13027  0.51252  0.05514  1.0000
  N   N27       1.0  0.40916  0.43688  0.03123  1.0000
  H   H446      1.0  0.26386  0.48138  0.11774  1.0000
  Fe  Fe53      1.0  0.39213  0.21020  0.92590  1.0000
  C   C271      1.0  0.21605  0.21087  0.98238  1.0000
  S   S110      1.0  0.26997  0.23379  0.30832  1.0000
  H   H447      1.0  0.94976  0.23948  0.35031  1.0000
  H   H448      1.0  0.12436  0.27075  0.14053  1.0000
  C   C272      1.0  0.22874  0.31770  0.13730  1.0000
  S   S111      1.0  0.29329  0.37653  0.23788  1.0000
  H   H449      1.0  0.17132  0.41944  0.13333  1.0000
  S   S112      1.0  0.14133  0.27479  0.24521  1.0000
  C   C273      1.0  0.01746  0.33787  0.23676  1.0000
  H   H450      1.0  0.15063  0.30995  0.32407  1.0000
  Fe  Fe54      1.0  0.33226  0.38025  0.31795  1.0000
  H   H451      1.0  0.93217  0.49547  0.21525  1.0000
  S   S113      1.0  0.37474  0.31899  0.20960  1.0000
  H   H452      1.0  0.95127  0.26755  0.15686  1.0000
  H   H453      1.0  0.37962  0.28259  0.13763  1.0000
  C   C274      1.0  0.36518  0.48403  0.36185  1.0000
  H   H454      1.0  0.27130  0.31746  0.15414  1.0000
  N   N28       1.0  0.98420  0.33249  0.18644  1.0000
  Fe  Fe55      1.0  0.22888  0.29966  0.28201  1.0000
  H   H455      1.0  0.99773  0.46984  0.17853  1.0000
  Fe  Fe56      1.0  0.33733  0.31122  0.26947  1.0000
  H   H456      1.0  0.21616  0.32465  0.16418  1.0000
  H   H457      1.0  0.00188  0.29939  0.27381  1.0000
  S   S114      1.0  0.38128  0.32027  0.34664  1.0000
  H   H458      1.0  0.05966  0.34020  0.24206  1.0000
  H   H459      1.0  0.96254  0.23721  0.22953  1.0000
  S   S115      1.0  0.37198  0.47017  0.31395  1.0000
  C   C275      1.0  0.10417  0.24388  0.29551  1.0000
  H   H460      1.0  0.05188  0.37956  0.14661  1.0000
  C   C276      1.0  0.36767  0.24361  0.17436  1.0000
  N   N29       1.0  0.19375  0.26227  0.13391  1.0000
  H   H461      1.0  0.01900  0.37875  0.23538  1.0000
  C   C277      1.0  0.11732  0.27014  0.32916  1.0000
  H   H462      1.0  0.01860  0.27210  0.19551  1.0000
  C   C278      1.0  0.36254  0.24899  0.21646  1.0000
  C   C279      1.0  0.92369  0.26523  0.34137  1.0000
  C   C280      1.0  0.97899  0.27481  0.19246  1.0000
  C   C281      1.0  0.93027  0.33676  0.17677  1.0000
  H   H463      1.0  0.93244  0.37983  0.17175  1.0000
  C   C282      1.0  0.02218  0.51327  0.15497  1.0000
  H   H464      1.0  0.94502  0.31310  0.32014  1.0000
  C   C283      1.0  0.01051  0.38071  0.13967  1.0000
  H   H465      1.0  0.36489  0.52333  0.14031  1.0000
  H   H466      1.0  0.08339  0.51726  0.22518  1.0000
  H   H467      1.0  0.36209  0.52494  0.19902  1.0000
  C   C284      1.0  0.07031  0.54031  0.18137  1.0000
  H   H468      1.0  0.18415  0.21333  0.21775  1.0000
  H   H469      1.0  0.01448  0.42477  0.13331  1.0000
  S   S116      1.0  0.26390  0.30872  0.35968  1.0000
  C   C285      1.0  0.08633  0.24594  0.36833  1.0000
  C   C286      1.0  0.38319  0.54308  0.35180  1.0000
  C   C287      1.0  0.19893  0.21160  0.18885  1.0000
  H   H470      1.0  0.24166  0.21131  0.20666  1.0000
  C   C288      1.0  0.21259  0.29689  0.54053  1.0000
  H   H471      1.0  0.10551  0.43687  0.46939  1.0000
  C   C289      1.0  0.10815  0.41968  0.56932  1.0000
  C   C290      1.0  0.16020  0.35459  0.60032  1.0000
  C   C291      1.0  0.34493  0.43935  0.40954  1.0000
  H   H472      1.0  0.08059  0.35918  0.51277  1.0000
  Fe  Fe57      1.0  0.30982  0.24804  0.38289  1.0000
  H   H473      1.0  0.14383  0.38744  0.49345  1.0000
  H   H474      1.0  0.09434  0.45857  0.53526  1.0000
  S   S117      1.0  0.30122  0.40238  0.61000  1.0000
  H   H475      1.0  0.36273  0.28434  0.46281  1.0000
  C   C292      1.0  0.96015  0.26405  0.42996  1.0000
  N   N30       1.0  0.14470  0.40776  0.55410  1.0000
  Fe  Fe58      1.0  0.37114  0.47215  0.57143  1.0000
  H   H476      1.0  0.32918  0.41958  0.48485  1.0000
  H   H477      1.0  0.07188  0.38098  0.58082  1.0000
  H   H478      1.0  0.33130  0.39358  0.41764  1.0000
  C   C293      1.0  0.11736  0.39756  0.50521  1.0000
  C   C294      1.0  0.34389  0.45401  0.44761  1.0000
  S   S118      1.0  0.00413  0.25764  0.57373  1.0000
  C   C295      1.0  0.26224  0.29467  0.57676  1.0000
  H   H479      1.0  0.98684  0.23737  0.44239  1.0000
  H   H480      1.0  0.21974  0.45400  0.52574  1.0000
  C   C296      1.0  0.16628  0.25011  0.55614  1.0000
  C   C297      1.0  0.19319  0.45929  0.54163  1.0000
  H   H481      1.0  0.21728  0.46556  0.57873  1.0000
  H   H482      1.0  0.12866  0.42926  0.60510  1.0000
  H   H483      1.0  0.98376  0.31136  0.41109  1.0000
  C   C298      1.0  0.37703  0.25179  0.50238  1.0000
  H   H484      1.0  0.09672  0.26610  0.39455  1.0000
  H   H485      1.0  0.95093  0.25413  0.46800  1.0000
  H   H486      1.0  0.29787  0.33144  0.56536  1.0000
  S   S119      1.0  0.36290  0.53586  0.48235  1.0000
  H   H487      1.0  0.20985  0.33572  0.50147  1.0000
  Fe  Fe59      1.0  0.96775  0.50904  0.61328  1.0000
  H   H488      1.0  0.18670  0.34317  0.59006  1.0000
  S   S120      1.0  0.10295  0.25744  0.51587  1.0000
  C   C299      1.0  0.36152  0.51337  0.43692  1.0000
  H   H489      1.0  0.18254  0.50093  0.51005  1.0000
  H   H490      1.0  0.12433  0.31524  0.61126  1.0000
  C   C300      1.0  0.97933  0.83237  0.75504  1.0000
  Fe  Fe60      1.0  0.22856  0.56154  0.83819  1.0000
  H   H491      1.0  0.32059  0.76822  0.70076  1.0000
  C   C301      1.0  0.05380  0.74521  0.64475  1.0000
  S   S121      1.0  0.01597  0.65489  0.80773  1.0000
  H   H492      1.0  0.10208  0.68971  0.75949  1.0000
  H   H493      1.0  0.96468  0.87048  0.73963  1.0000
  C   C302      1.0  0.11916  0.61052  0.78381  1.0000
  H   H494      1.0  0.03299  0.75270  0.82734  1.0000
  H   H495      1.0  0.95527  0.79317  0.78587  1.0000
  H   H496      1.0  0.21142  0.68718  0.66885  1.0000
  H   H497      1.0  0.31081  0.72120  0.67237  1.0000
  S   S122      1.0  0.28426  0.77746  0.77856  1.0000
  H   H498      1.0  0.17556  0.74068  0.63570  1.0000
  H   H499      1.0  0.39746  0.78837  0.81765  1.0000
  C   C303      1.0  0.09053  0.64192  0.78197  1.0000
  H   H500      1.0  0.15249  0.63408  0.76259  1.0000
  C   C304      1.0  0.31090  0.76568  0.66189  1.0000
  Fe  Fe61      1.0  0.34948  0.60687  0.84155  1.0000
  C   C305      1.0  0.23090  0.83211  0.78836  1.0000
  H   H501      1.0  0.12200  0.82360  0.62641  1.0000
  H   H502      1.0  0.02490  0.81350  0.85935  1.0000
  H   H503      1.0  0.27096  0.84129  0.65336  1.0000
  Fe  Fe62      1.0  0.29237  0.68574  0.82643  1.0000
  H   H504      1.0  0.22243  0.73338  0.69863  1.0000
  C   C306      1.0  0.03413  0.55023  0.84031  1.0000
  H   H505      1.0  0.34442  0.79844  0.63970  1.0000
  S   S123      1.0  0.28016  0.63937  0.77937  1.0000
  H   H506      1.0  0.22909  0.86065  0.74487  1.0000
  C   C307      1.0  0.00109  0.81637  0.63422  1.0000
  H   H507      1.0  0.04980  0.78659  0.76151  1.0000
  C   C308      1.0  0.21524  0.73270  0.65933  1.0000
  C   C309      1.0  0.10507  0.54892  0.81348  1.0000
  N   N31       1.0  0.03731  0.84480  0.77920  1.0000
  H   H508      1.0  0.97098  0.82354  0.72006  1.0000
  C   C310      1.0  0.04667  0.85366  0.82707  1.0000
  H   H509      1.0  0.07411  0.71763  0.64887  1.0000
  C   C311      1.0  0.25613  0.78766  0.81525  1.0000
  C   C312      1.0  0.05542  0.79419  0.79664  1.0000
  C   C313      1.0  0.00094  0.72089  0.65342  1.0000
  Fe  Fe63      1.0  0.95487  0.61701  0.85855  1.0000
  C   C314      1.0  0.04785  0.61190  0.80998  1.0000
  H   H510      1.0  0.09863  0.80119  0.81593  1.0000
  C   C315      1.0  0.97504  0.75618  0.64934  1.0000
  S   S124      1.0  0.03532  0.54945  0.66489  1.0000
  S   S125      1.0  0.96466  0.64786  0.66537  1.0000
  C   C316      1.0  0.20725  0.83915  0.81760  1.0000
  H   H511      1.0  0.93443  0.73728  0.65663  1.0000
  C   C317      1.0  0.08090  0.80486  0.63240  1.0000
  N   N32       1.0  0.25886  0.77726  0.62847  1.0000
  Fe  Fe64      1.0  0.99161  0.61718  0.62635  1.0000
  C   C318      1.0  0.26288  0.54616  0.62725  1.0000
  H   H512      1.0  0.98016  0.84420  0.62867  1.0000
  C   C319      1.0  0.05405  0.84061  0.62603  1.0000
  H   H513      1.0  0.09016  0.86340  0.84618  1.0000
  H   H514      1.0  0.18793  0.87358  0.79670  1.0000
  C   C320      1.0  0.25868  0.75122  0.87153  1.0000
  C   C321      1.0  0.11354  0.64699  0.95788  1.0000
  C   C322      1.0  0.05610  0.54906  0.97053  1.0000
  C   C323      1.0  0.97344  0.73253  0.97888  1.0000
  H   H515      1.0  0.03579  0.56822  0.92698  1.0000
  H   H516      1.0  0.18645  0.61047  0.95481  1.0000
  C   C324      1.0  0.13661  0.56063  0.03734  1.0000
  C   C325      1.0  0.95171  0.77480  0.93032  1.0000
  S   S126      1.0  0.98057  0.64673  0.92249  1.0000
  H   H517      1.0  0.10828  0.67088  0.07088  1.0000
  C   C326      1.0  0.08470  0.62662  0.09445  1.0000
  Fe  Fe65      1.0  0.31288  0.73441  0.07771  1.0000
  Fe  Fe66      1.0  0.93058  0.55690  0.97300  1.0000
  H   H518      1.0  0.33265  0.75076  0.97097  1.0000
  C   C327      1.0  0.00895  0.74761  0.02071  1.0000
  N   N33       1.0  0.11236  0.58557  0.97838  1.0000
  C   C328      1.0  0.37241  0.78131  0.97203  1.0000
  Fe  Fe67      1.0  0.21791  0.78027  0.99809  1.0000
  H   H519      1.0  0.18075  0.58187  0.04467  1.0000
  S   S127      1.0  0.22597  0.68886  0.05658  1.0000
  H   H520      1.0  0.11846  0.56618  0.06105  1.0000
  S   S128      1.0  0.38553  0.71676  0.08328  1.0000
  Fe  Fe68      1.0  0.21359  0.70207  0.11914  1.0000
  C   C329      1.0  0.38796  0.83054  0.92343  1.0000
  H   H521      1.0  0.27972  0.71816  0.89286  1.0000
  C   C330      1.0  0.23586  0.75899  0.90085  1.0000
  H   H522      1.0  0.02319  0.62329  0.02544  1.0000
  Fe  Fe69      1.0  0.28852  0.82747  0.08093  1.0000
  C   C331      1.0  0.40802  0.77201  0.02217  1.0000
  H   H523      1.0  0.23912  0.73162  0.94445  1.0000
  S   S129      1.0  0.36508  0.65809  0.88551  1.0000
  Fe  Fe70      1.0  0.30706  0.57711  0.93589  1.0000
  H   H524      1.0  0.96236  0.68804  0.98457  1.0000
  C   C332      1.0  0.20926  0.80221  0.87388  1.0000
  S   S130      1.0  0.17686  0.80892  0.90975  1.0000
  H   H525      1.0  0.15523  0.67570  0.96226  1.0000
  S   S131      1.0  0.30582  0.82464  0.01515  1.0000
  H   H526      1.0  0.09222  0.64972  0.98074  1.0000
  C   C333      1.0  0.00067  0.84691  0.96561  1.0000
  C   C334      1.0  0.14317  0.58569  0.94754  1.0000
  S   S132      1.0  0.19921  0.79064  0.05919  1.0000
  H   H527      1.0  0.09508  0.66691  0.91355  1.0000
  H   H528      1.0  0.12775  0.60715  0.90266  1.0000
  S   S133      1.0  0.06285  0.82328  0.06748  1.0000
  C   C335      1.0  0.03657  0.59960  0.06840  1.0000
  C   C336      1.0  0.96546  0.83191  0.92398  1.0000
  C   C337      1.0  0.02210  0.80475  0.01423  1.0000
  H   H529      1.0  0.36009  0.83772  0.88473  1.0000
  H   H530      1.0  0.02558  0.71482  0.05821  1.0000
  H   H531      1.0  0.03256  0.54565  0.99559  1.0000
  H   H532      1.0  0.40522  0.84240  0.09426  1.0000
  S   S134      1.0  0.23604  0.60995  0.88122  1.0000
  H   H533      1.0  0.94917  0.86489  0.88679  1.0000
  H   H534      1.0  0.11880  0.76511  0.17612  1.0000
  N   N34       1.0  0.06067  0.68200  0.21409  1.0000
  H   H535      1.0  0.08847  0.72966  0.26087  1.0000
  C   C338      1.0  0.10675  0.71790  0.18552  1.0000
  H   H536      1.0  0.00170  0.70597  0.13983  1.0000
  H   H537      1.0  0.09700  0.71663  0.14596  1.0000
  H   H538      1.0  0.99227  0.84816  0.26508  1.0000
  S   S135      1.0  0.16313  0.62998  0.18262  1.0000
  C   C339      1.0  0.04521  0.62039  0.22360  1.0000
  H   H539      1.0  0.39778  0.81090  0.18867  1.0000
  H   H540      1.0  0.92135  0.76990  0.31852  1.0000
  H   H541      1.0  0.01207  0.59115  0.24708  1.0000
  H   H542      1.0  0.02495  0.75301  0.17160  1.0000
  C   C340      1.0  0.01450  0.70625  0.18020  1.0000
  C   C341      1.0  0.37939  0.55134  0.16131  1.0000
  C   C342      1.0  0.00307  0.81497  0.30606  1.0000
  H   H543      1.0  0.11110  0.66544  0.29360  1.0000
  C   C343      1.0  0.96291  0.77060  0.33602  1.0000
  C   C344      1.0  0.10211  0.59657  0.15079  1.0000
  H   H544      1.0  0.03114  0.61801  0.18408  1.0000
  H   H545      1.0  0.39937  0.57767  0.31528  1.0000
  H   H546      1.0  0.97906  0.68038  0.20054  1.0000
  S   S136      1.0  0.30167  0.73988  0.14523  1.0000
  H   H547      1.0  0.36219  0.58928  0.13392  1.0000
  H   H548      1.0  0.04258  0.65715  0.28969  1.0000
  H   H549      1.0  0.07997  0.60174  0.24649  1.0000
  H   H550      1.0  0.14263  0.70160  0.21042  1.0000
  C   C345      1.0  0.05721  0.81743  0.32960  1.0000
  C   C346      1.0  0.07639  0.68350  0.26701  1.0000
  S   S137      1.0  0.10597  0.87623  0.29216  1.0000
  H   H551      1.0  0.91787  0.58812  0.19150  1.0000
  H   H552      1.0  0.25215  0.73141  0.58624  1.0000
  H   H553      1.0  0.04159  0.69575  0.45247  1.0000
  H   H554      1.0  0.91863  0.71997  0.50427  1.0000
  S   S138      1.0  0.92188  0.57258  0.58021  1.0000
  H   H555      1.0  0.20648  0.77451  0.55420  1.0000
  H   H556      1.0  0.02474  0.81037  0.50223  1.0000
  H   H557      1.0  0.38117  0.70887  0.53557  1.0000
  S   S139      1.0  0.34384  0.81548  0.47956  1.0000
  N   N35       1.0  0.40085  0.69069  0.48439  1.0000
  C   C347      1.0  0.34620  0.65084  0.47695  1.0000
  H   H558      1.0  0.29348  0.87203  0.59115  1.0000
  C   C348      1.0  0.19004  0.57997  0.61482  1.0000
  H   H559      1.0  0.37332  0.76817  0.43351  1.0000
  C   C349      1.0  0.38061  0.55778  0.38875  1.0000
  C   C350      1.0  0.26162  0.83707  0.61537  1.0000
  H   H560      1.0  0.00450  0.86048  0.43246  1.0000
  S   S140      1.0  0.03443  0.67786  0.55590  1.0000
  Fe  Fe71      1.0  0.96769  0.62782  0.51258  1.0000
  S   S141      1.0  0.22048  0.86833  0.42996  1.0000
  C   C351      1.0  0.24792  0.77334  0.57752  1.0000
  S   S142      1.0  0.92634  0.67514  0.42709  1.0000
  Fe  Fe72      1.0  0.07291  0.60660  0.58978  1.0000
  H   H561      1.0  0.39794  0.75019  0.39845  1.0000
  C   C352      1.0  0.40415  0.75043  0.43773  1.0000
  H   H562      1.0  0.41074  0.64933  0.57202  1.0000
  H   H563      1.0  0.27622  0.80993  0.55017  1.0000
  C   C353      1.0  0.97673  0.72806  0.38904  1.0000
  S   S143      1.0  0.00832  0.56055  0.54117  1.0000
  H   H564      1.0  0.34190  0.60568  0.51205  1.0000
  C   C354      1.0  0.38147  0.83782  0.53147  1.0000
  C   C355      1.0  0.03081  0.72941  0.41198  1.0000
  H   H565      1.0  0.31500  0.66750  0.47375  1.0000
  H   H566      1.0  0.11298  0.77600  0.40044  1.0000
  H   H567      1.0  0.33699  0.64634  0.43918  1.0000
  C   C356      1.0  0.41176  0.69345  0.53588  1.0000
  H   H568      1.0  0.17041  0.87102  0.50024  1.0000
  H   H569      1.0  0.12496  0.80853  0.48792  1.0000
  C   C357      1.0  0.03461  0.83590  0.46062  1.0000
  H   H570      1.0  0.22302  0.84741  0.59123  1.0000
  S   S144      1.0  0.15917  0.63639  0.58226  1.0000
  H   H571      1.0  0.25535  0.63426  0.57048  1.0000
  H   H572      1.0  0.39462  0.60364  0.38046  1.0000
  C   C358      1.0  0.12822  0.84162  0.49948  1.0000
  H   H573      1.0  0.12038  0.81710  0.54183  1.0000
  H   H574      1.0  0.02905  0.80376  0.44690  1.0000
  C   C359      1.0  0.07117  0.77457  0.38248  1.0000
  H   H575      1.0  0.29967  0.55483  0.61674  1.0000
  H   H576      1.0  0.92983  0.76710  0.53276  1.0000
  C   C360      1.0  0.23777  0.59100  0.60116  1.0000
  N   N36       1.0  0.09002  0.87635  0.46070  1.0000
