data_image0
_chemical_formula_structural       H3SHCHSFeSH2CH2CHFeH2SC2FeHCSFeH4C2SNFeHSHCH2C2HCH2NC2H3CSHFeH2C2HCHCHCHCFeH3C2HC2H6NH2SHFeCHCHSH2CHCSHCHCH4CHCHNC2HCFeCSHSCH5CSHFe2H2FeCSCHC2HCSH4CH2SHNHCHCH3CH3CHCHCS2H4NHC2HFeC2HCHCHSH3CHC4H2CHCH3SCH2CFe2CH2C3HC2SH3CNHCSHNH2FeCH4CH3C2HCHC2SH3CHC2SH2SHCHSHFeH5CNHC2SFeH2C2H2CH2SC3SFeHC3SH2CNSHSCH2CSH2CHCHCH8SH3FeHNSCHCS3HC4H4FeHSFeCHCHFeCNCHC2HCH3SC4HCH3CNH2CHCSC2HNCHC2SC2HC2H3CHC2H4SH2SC2H3FeC2SCSHC2H2NH2SCH4C2SHC2H3S2CH3CHNSCSH4NHFeH2CH2NHCHC2H5C4FeCSCHCFeHCH3CSCH5CFeSCHSFeSFeSH2FeHCHCHCNCSH2C2HCHCH2CHCH2CHNFeSCH3C2H2CFeSC2H4CSHCHCH6FeC3H3CH2CH2NCSHCH4SHC3SHSH4CHCHC2HCSHFeH2SNCSH3CH2CHSC2H2FeCHSHFeH2CSC2HFeSH2C2HC2SH3SHC3SHCHNC2HSHC2H4NCH6CSHC2H4CHC2H3C2H3C4H2CFeH2CHSCH2CSHSHC2HFeHNHFeHCHSC3NCHSCSHC2H4SHSH2FeC3HCH6CH2SCHCH3NFeH3SHCH2CSCH3CHCSC2H2CHCHC2NHCH2C2SH2FeH2C2HCS3CHFeHSHFeHSH2C2FeH2C2H3SH2SH2NCFeHFeHFeC2H2SH4NH2CHFeHSH2Fe2H5CH2FeHSHFeS2NCH2C2HSCSH2C2H2CS2FeH4NHC2S2HC3H3SH3FeHCHFeC2HNCSHC3H5CFeHCHCSC2H5CHSC3H5CHCHNHSH2FeSHFeH5SHC2H2SHFeC2HNS2H2CH2CHCFeHCS2HCHCHCHSH2SHSHCSHCS2H3FeCFeCSHFeHC2HSFe2C3H2SCHC2HFeCH5C3H2CNCH2CH2C2H2C2S2H2CH2CH3SFeH3SH3SC2H2CHCH4SFeC2NH2C2HCSCSH2NH7S2CHFeCHCH4C2HFeH2CHC2HCH3CSH2CH2CH2SHFeHNHCH2CHSC5HFeHSFeHSCH5CSC2HS2Fe2S2CHCHC3SH6FeCHCHSCH2SNSHCHCSCH4FeSHSC2SHCSH4CH3C2
_chemical_formula_sum              "H640 S160 C400 Fe80 N40"
_cell_length_a       22.5926
_cell_length_b       26.9577
_cell_length_c       31.0416
_cell_angle_alpha    82.6516
_cell_angle_beta     86.5341
_cell_angle_gamma    92.9831

_space_group_name_H-M_alt    "P 1"
_space_group_IT_number       1

loop_
  _space_group_symop_operation_xyz
  'x, y, z'

loop_
  _atom_site_type_symbol
  _atom_site_label
  _atom_site_symmetry_multiplicity
  _atom_site_fract_x
  _atom_site_fract_y
  _atom_site_fract_z
  _atom_site_occupancy
  H   H1        1.0  0.49865  0.43597  0.47549  1.0000
  H   H2        1.0  0.35743  0.32895  0.52949  1.0000
  H   H3        1.0  0.23405  0.40478  0.65341  1.0000
  S   S1        1.0  0.37049  0.50259  0.48262  1.0000
  H   H4        1.0  0.34917  0.49218  0.58878  1.0000
  C   C1        1.0  0.28037  0.39961  0.66237  1.0000
  H   H5        1.0  0.39373  0.43358  0.66869  1.0000
  S   S2        1.0  0.60566  0.30250  0.52472  1.0000
  Fe  Fe1       1.0  0.66889  0.27057  0.57244  1.0000
  S   S3        1.0  0.45406  0.31786  0.58500  1.0000
  H   H6        1.0  0.28600  0.41786  0.69215  1.0000
  H   H7        1.0  0.34739  0.40893  0.56066  1.0000
  C   C2        1.0  0.38492  0.41388  0.64011  1.0000
  H   H8        1.0  0.31971  0.35355  0.59625  1.0000
  H   H9        1.0  0.41892  0.42883  0.61345  1.0000
  C   C3        1.0  0.46513  0.24535  0.53104  1.0000
  H   H10       1.0  0.39260  0.37351  0.64894  1.0000
  Fe  Fe2       1.0  0.28080  0.53239  0.49266  1.0000
  H   H11       1.0  0.42640  0.55214  0.68622  1.0000
  H   H12       1.0  0.35578  0.24734  0.61402  1.0000
  S   S4        1.0  0.61219  0.28420  0.63086  1.0000
  C   C4        1.0  0.31600  0.47488  0.61514  1.0000
  C   C5        1.0  0.38357  0.29926  0.52012  1.0000
  Fe  Fe3       1.0  0.55345  0.32262  0.58309  1.0000
  H   H13       1.0  0.26942  0.39944  0.57672  1.0000
  C   C6        1.0  0.37150  0.27849  0.48239  1.0000
  S   S5        1.0  0.60056  0.39814  0.58132  1.0000
  Fe  Fe4       1.0  0.66414  0.35817  0.62437  1.0000
  H   H14       1.0  0.28432  0.35864  0.67129  1.0000
  H   H15       1.0  0.40635  0.38876  0.46144  1.0000
  H   H16       1.0  0.32147  0.49538  0.64376  1.0000
  H   H17       1.0  0.33610  0.29210  0.46322  1.0000
  C   C7        1.0  0.43178  0.28410  0.54359  1.0000
  C   C8        1.0  0.40625  0.24143  0.46872  1.0000
  S   S6        1.0  0.67439  0.43228  0.46549  1.0000
  N   N1        1.0  0.32399  0.42080  0.62648  1.0000
  Fe  Fe5       1.0  0.65582  0.37606  0.52534  1.0000
  H   H18       1.0  0.27099  0.48165  0.60366  1.0000
  S   S7        1.0  0.24259  0.24970  0.65995  1.0000
  H   H19       1.0  0.49883  0.34500  0.47817  1.0000
  C   C9        1.0  0.31470  0.39459  0.58825  1.0000
  H   H20       1.0  0.23568  0.23291  0.53334  1.0000
  H   H21       1.0  0.50166  0.23285  0.54969  1.0000
  C   C10       1.0  0.24660  0.41898  0.46382  1.0000
  C   C11       1.0  0.45206  0.22373  0.49364  1.0000
  H   H22       1.0  0.70429  0.45979  0.60777  1.0000
  C   C12       1.0  0.21147  0.33207  0.46540  1.0000
  H   H23       1.0  0.27536  0.45062  0.44917  1.0000
  H   H24       1.0  0.59566  0.55352  0.57959  1.0000
  N   N2        1.0  0.36979  0.29680  0.76918  1.0000
  C   C13       1.0  0.37802  0.46587  0.89994  1.0000
  C   C14       1.0  0.57766  0.33692  0.87847  1.0000
  H   H25       1.0  0.29711  0.24090  0.77522  1.0000
  H   H26       1.0  0.33872  0.43899  0.90213  1.0000
  H   H27       1.0  0.40842  0.37145  0.91848  1.0000
  C   C15       1.0  0.57529  0.33456  0.80074  1.0000
  S   S8        1.0  0.27285  0.35657  0.87027  1.0000
  H   H28       1.0  0.27990  0.29769  0.79625  1.0000
  Fe  Fe6       1.0  0.25712  0.51218  0.74468  1.0000
  H   H29       1.0  0.60433  0.45367  0.82240  1.0000
  H   H30       1.0  0.57235  0.31772  0.91122  1.0000
  C   C16       1.0  0.59124  0.38874  0.87099  1.0000
  C   C17       1.0  0.47252  0.48610  0.92767  1.0000
  H   H31       1.0  0.46640  0.40675  0.88380  1.0000
  C   C18       1.0  0.59475  0.41360  0.82846  1.0000
  H   H32       1.0  0.35591  0.29327  0.94175  1.0000
  C   C19       1.0  0.40153  0.27717  0.73249  1.0000
  H   H33       1.0  0.47880  0.38596  0.93938  1.0000
  C   C20       1.0  0.36383  0.54618  0.80469  1.0000
  H   H34       1.0  0.39669  0.47062  0.86573  1.0000
  C   C21       1.0  0.39342  0.27584  0.81060  1.0000
  Fe  Fe7       1.0  0.21293  0.38578  0.92052  1.0000
  H   H35       1.0  0.44973  0.28875  0.72987  1.0000
  H   H36       1.0  0.45683  0.52301  0.93436  1.0000
  H   H37       1.0  0.37126  0.29059  0.83892  1.0000
  C   C22       1.0  0.44495  0.40086  0.91749  1.0000
  C   C23       1.0  0.58660  0.38657  0.79343  1.0000
  H   H38       1.0  0.56048  0.26957  0.84911  1.0000
  C   C24       1.0  0.48608  0.53479  0.80372  1.0000
  C   C25       1.0  0.57031  0.30968  0.84331  1.0000
  H   H39       1.0  0.36067  0.36905  0.73315  1.0000
  H   H40       1.0  0.44211  0.28505  0.81059  1.0000
  H   H41       1.0  0.28640  0.29641  0.73881  1.0000
  H   H42       1.0  0.49633  0.49180  0.89483  1.0000
  H   H43       1.0  0.60343  0.53070  0.87807  1.0000
  H   H44       1.0  0.42682  0.36425  0.76243  1.0000
  N   N3        1.0  0.42269  0.44792  0.93007  1.0000
  H   H45       1.0  0.35563  0.36842  0.79058  1.0000
  H   H46       1.0  0.36149  0.50237  0.90709  1.0000
  S   S9        1.0  0.60333  0.42333  0.91421  1.0000
  H   H47       1.0  0.38601  0.23437  0.81650  1.0000
  Fe  Fe8       1.0  0.23801  0.28041  0.90172  1.0000
  C   C26       1.0  0.45059  0.50640  0.77928  1.0000
  H   H48       1.0  0.47063  0.48013  0.76003  1.0000
  C   C27       1.0  0.30565  0.28228  0.76992  1.0000
  H   H49       1.0  0.53336  0.53006  0.80346  1.0000
  S   S10       1.0  0.56622  0.30192  0.75613  1.0000
  H   H50       1.0  0.39766  0.23556  0.73629  1.0000
  H   H51       1.0  0.67026  0.52457  0.84554  1.0000
  C   C28       1.0  0.38954  0.51254  0.77927  1.0000
  H   H52       1.0  0.59031  0.40583  0.76045  1.0000
  C   C29       1.0  0.37879  0.35198  0.76362  1.0000
  S   S11       1.0  0.34603  0.47896  0.74673  1.0000
  H   H53       1.0  0.31643  0.54996  0.80603  1.0000
  C   C30       1.0  0.64399  0.55173  0.86158  1.0000
  H   H54       1.0  0.38366  0.29096  0.70082  1.0000
  C   C31       1.0  0.69786  0.53687  0.92631  1.0000
  H   H55       1.0  0.65901  0.51601  0.94546  1.0000
  H   H56       1.0  0.36395  0.33953  0.10401  1.0000
  H   H57       1.0  0.30370  0.42098  0.05221  1.0000
  H   H58       1.0  0.53737  0.46682  0.04299  1.0000
  C   C32       1.0  0.41802  0.25869  0.98500  1.0000
  H   H59       1.0  0.30333  0.31518  0.14172  1.0000
  C   C33       1.0  0.37140  0.25847  0.95690  1.0000
  H   H60       1.0  0.29089  0.33103  0.08520  1.0000
  N   N4        1.0  0.30320  0.39429  0.12046  1.0000
  C   C34       1.0  0.50609  0.48075  0.06563  1.0000
  C   C35       1.0  0.31581  0.34285  0.11243  1.0000
  H   H61       1.0  0.22113  0.47173  0.04886  1.0000
  C   C36       1.0  0.33392  0.40651  0.15873  1.0000
  Fe  Fe9       1.0  0.58421  0.37519  0.07633  1.0000
  C   C37       1.0  0.39511  0.43889  0.97494  1.0000
  S   S12       1.0  0.61073  0.29617  0.09120  1.0000
  H   H62       1.0  0.31704  0.38124  0.18852  1.0000
  S   S13       1.0  0.55244  0.41755  0.12978  1.0000
  C   C38       1.0  0.50584  0.46398  0.11025  1.0000
  H   H63       1.0  0.38264  0.40265  0.15422  1.0000
  H   H64       1.0  0.39253  0.52947  0.14630  1.0000
  H   H65       1.0  0.67747  0.43931  0.11831  1.0000
  H   H66       1.0  0.46561  0.46959  0.17396  1.0000
  H   H67       1.0  0.21338  0.38758  0.10131  1.0000
  C   C39       1.0  0.46595  0.48263  0.13949  1.0000
  S   S14       1.0  0.66246  0.39926  0.02918  1.0000
  H   H68       1.0  0.31494  0.46918  0.08642  1.0000
  Fe  Fe10      1.0  0.55579  0.28087  0.03599  1.0000
  Fe  Fe11      1.0  0.68480  0.31885  0.04009  1.0000
  H   H69       1.0  0.37386  0.42949  0.07578  1.0000
  H   H70       1.0  0.32651  0.44554  0.16511  1.0000
  Fe  Fe12      1.0  0.60476  0.37521  0.97852  1.0000
  C   C40       1.0  0.32488  0.42999  0.08196  1.0000
  S   S15       1.0  0.52412  0.35831  0.02478  1.0000
  C   C41       1.0  0.22437  0.22581  0.18538  1.0000
  H   H71       1.0  0.35868  0.40896  0.97815  1.0000
  C   C42       1.0  0.46628  0.51618  0.05037  1.0000
  C   C43       1.0  0.42496  0.51664  0.12401  1.0000
  H   H72       1.0  0.22114  0.37302  0.15886  1.0000
  C   C44       1.0  0.23853  0.39795  0.12891  1.0000
  S   S16       1.0  0.63273  0.29626  0.98606  1.0000
  H   H73       1.0  0.68741  0.39145  0.19057  1.0000
  H   H74       1.0  0.37553  0.47338  0.98443  1.0000
  H   H75       1.0  0.42813  0.42718  0.99878  1.0000
  H   H76       1.0  0.46617  0.52879  0.01598  1.0000
  C   C45       1.0  0.42555  0.53397  0.07962  1.0000
  H   H77       1.0  0.50579  0.47486  0.95150  1.0000
  H   H78       1.0  0.43837  0.29378  0.99146  1.0000
  S   S17       1.0  0.24025  0.44298  0.96334  1.0000
  H   H79       1.0  0.22772  0.43675  0.13410  1.0000
  N   N5        1.0  0.28819  0.28722  0.32028  1.0000
  H   H80       1.0  0.31544  0.33583  0.26156  1.0000
  C   C46       1.0  0.68256  0.33522  0.37585  1.0000
  H   H81       1.0  0.29187  0.51670  0.36664  1.0000
  C   C47       1.0  0.28306  0.23297  0.33622  1.0000
  H   H82       1.0  0.27945  0.27734  0.25338  1.0000
  H   H83       1.0  0.35453  0.27909  0.26943  1.0000
  H   H84       1.0  0.40206  0.42502  0.40937  1.0000
  C   C48       1.0  0.68179  0.35513  0.41556  1.0000
  H   H85       1.0  0.35980  0.42617  0.24587  1.0000
  H   H86       1.0  0.26633  0.22583  0.37111  1.0000
  H   H87       1.0  0.28293  0.36896  0.42188  1.0000
  C   C49       1.0  0.67665  0.43850  0.37718  1.0000
  H   H88       1.0  0.21127  0.30370  0.35880  1.0000
  C   C50       1.0  0.31057  0.29520  0.27407  1.0000
  H   H89       1.0  0.37540  0.29891  0.34261  1.0000
  C   C51       1.0  0.30711  0.49708  0.34062  1.0000
  S   S18       1.0  0.42010  0.52301  0.36045  1.0000
  S   S19       1.0  0.67372  0.34338  0.28717  1.0000
  H   H90       1.0  0.21882  0.48369  0.32059  1.0000
  H   H91       1.0  0.60819  0.53073  0.43457  1.0000
  H   H92       1.0  0.55524  0.40309  0.36826  1.0000
  H   H93       1.0  0.68357  0.33058  0.44560  1.0000
  N   N6        1.0  0.48737  0.39580  0.42061  1.0000
  H   H94       1.0  0.23152  0.34912  0.31257  1.0000
  C   C52       1.0  0.67601  0.41864  0.33765  1.0000
  C   C53       1.0  0.67864  0.36700  0.33693  1.0000
  H   H95       1.0  0.48837  0.36926  0.35812  1.0000
  Fe  Fe13      1.0  0.37754  0.55230  0.41884  1.0000
  C   C54       1.0  0.51142  0.35010  0.44264  1.0000
  C   C55       1.0  0.38663  0.46574  0.29815  1.0000
  H   H96       1.0  0.40316  0.35805  0.41351  1.0000
  C   C56       1.0  0.28432  0.45280  0.28011  1.0000
  H   H97       1.0  0.43355  0.46225  0.29083  1.0000
  C   C57       1.0  0.34481  0.44536  0.27260  1.0000
  H   H98       1.0  0.49037  0.43635  0.35617  1.0000
  S   S20       1.0  0.23238  0.43390  0.24507  1.0000
  H   H99       1.0  0.33269  0.35393  0.33702  1.0000
  H   H100      1.0  0.68463  0.29525  0.37545  1.0000
  H   H101      1.0  0.55955  0.44452  0.43500  1.0000
  C   C58       1.0  0.22933  0.30832  0.32444  1.0000
  H   H102      1.0  0.67330  0.44333  0.30755  1.0000
  C   C59       1.0  0.67832  0.40670  0.41625  1.0000
  C   C60       1.0  0.32996  0.31260  0.34639  1.0000
  C   C61       1.0  0.26554  0.47813  0.31443  1.0000
  C   C62       1.0  0.36776  0.49251  0.33177  1.0000
  H   H103      1.0  0.49493  0.31594  0.42928  1.0000
  H   H104      1.0  0.31580  0.30476  0.38168  1.0000
  C   C63       1.0  0.42183  0.39170  0.42645  1.0000
  H   H105      1.0  0.67508  0.47847  0.37750  1.0000
  C   C64       1.0  0.50603  0.40141  0.37370  1.0000
  H   H106      1.0  0.68457  0.55178  0.43335  1.0000
  H   H107      1.0  0.49211  0.47491  0.42471  1.0000
  H   H108      1.0  0.40282  0.54509  0.22146  1.0000
  S   S21       1.0  0.21726  0.27408  0.44637  1.0000
  C   C65       1.0  0.51038  0.43979  0.43977  1.0000
  H   H109      1.0  0.56072  0.35193  0.43873  1.0000
  H   H110      1.0  0.60997  0.55473  0.35440  1.0000
  C   C66       1.0  0.25047  0.37275  0.44803  1.0000
  Fe  Fe14      1.0  0.41651  0.83880  0.64073  1.0000
  Fe  Fe15      1.0  0.40504  0.56953  0.51089  1.0000
  C   C67       1.0  0.58907  0.58992  0.56192  1.0000
  H   H111      1.0  0.63108  0.57609  0.46876  1.0000
  H   H112      1.0  0.42519  0.63293  0.60947  1.0000
  C   C68       1.0  0.40852  0.64127  0.64208  1.0000
  C   C69       1.0  0.25879  0.70201  0.64524  1.0000
  C   C70       1.0  0.57246  0.68382  0.51610  1.0000
  H   H113      1.0  0.48761  0.56870  0.64651  1.0000
  C   C71       1.0  0.53269  0.60137  0.54870  1.0000
  C   C72       1.0  0.50747  0.66292  0.66187  1.0000
  S   S22       1.0  0.68992  0.71464  0.51143  1.0000
  H   H114      1.0  0.49878  0.70324  0.66094  1.0000
  H   H115      1.0  0.40628  0.81966  0.48956  1.0000
  H   H116      1.0  0.56599  0.71979  0.49794  1.0000
  C   C73       1.0  0.52419  0.64863  0.52640  1.0000
  N   N7        1.0  0.45270  0.63075  0.67481  1.0000
  H   H117      1.0  0.26373  0.84679  0.66108  1.0000
  C   C74       1.0  0.31539  0.76689  0.59571  1.0000
  S   S23       1.0  0.50930  0.81524  0.64736  1.0000
  H   H118      1.0  0.52659  0.65694  0.62916  1.0000
  N   N8        1.0  0.49672  0.84961  0.48762  1.0000
  H   H119      1.0  0.39763  0.68133  0.63856  1.0000
  H   H120      1.0  0.66982  0.81862  0.54980  1.0000
  Fe  Fe16      1.0  0.32662  0.63957  0.45892  1.0000
  C   C75       1.0  0.29803  0.74480  0.63818  1.0000
  H   H121      1.0  0.54209  0.65499  0.68543  1.0000
  H   H122      1.0  0.45963  0.78343  0.46444  1.0000
  H   H123      1.0  0.48041  0.65806  0.51704  1.0000
  H   H124      1.0  0.68523  0.84111  0.62328  1.0000
  C   C76       1.0  0.23749  0.68090  0.60987  1.0000
  H   H125      1.0  0.24038  0.86228  0.58434  1.0000
  H   H126      1.0  0.36618  0.61827  0.65127  1.0000
  H   H127      1.0  0.45330  0.78211  0.52275  1.0000
  C   C77       1.0  0.46694  0.57759  0.67778  1.0000
  C   C78       1.0  0.29341  0.74618  0.56047  1.0000
  H   H128      1.0  0.23988  0.68662  0.54000  1.0000
  C   C79       1.0  0.23142  0.87475  0.66881  1.0000
  H   H129      1.0  0.31381  0.76085  0.66567  1.0000
  C   C80       1.0  0.45228  0.80675  0.49118  1.0000
  C   C81       1.0  0.62934  0.67169  0.52778  1.0000
  S   S24       1.0  0.36401  0.82053  0.58540  1.0000
  H   H130      1.0  0.48469  0.85808  0.55544  1.0000
  H   H131      1.0  0.56020  0.80711  0.52299  1.0000
  H   H132      1.0  0.68100  0.61583  0.56131  1.0000
  C   C82       1.0  0.63749  0.62496  0.55119  1.0000
  H   H133      1.0  0.56851  0.80831  0.46483  1.0000
  C   C83       1.0  0.55684  0.83103  0.49132  1.0000
  C   C84       1.0  0.25501  0.70308  0.56753  1.0000
  S   S25       1.0  0.31489  0.59599  0.52598  1.0000
  H   H134      1.0  0.30663  0.76307  0.52754  1.0000
  H   H135      1.0  0.24413  0.68604  0.67801  1.0000
  S   S26       1.0  0.47332  0.55624  0.55953  1.0000
  H   H136      1.0  0.59109  0.86266  0.48911  1.0000
  C   C85       1.0  0.48376  0.88037  0.52284  1.0000
  H   H137      1.0  0.38755  0.61674  0.72893  1.0000
  S   S27       1.0  0.51073  0.73173  0.75969  1.0000
  H   H138      1.0  0.57847  0.64587  0.77988  1.0000
  Fe  Fe17      1.0  0.46015  0.64341  0.90994  1.0000
  H   H139      1.0  0.66674  0.62948  0.93796  1.0000
  H   H140      1.0  0.61141  0.74355  0.89055  1.0000
  H   H141      1.0  0.39447  0.78216  0.85936  1.0000
  H   H142      1.0  0.68720  0.80552  0.91163  1.0000
  H   H143      1.0  0.60198  0.59006  0.93216  1.0000
  C   C86       1.0  0.58491  0.72136  0.74677  1.0000
  N   N9        1.0  0.67887  0.57581  0.89285  1.0000
  H   H144      1.0  0.60415  0.88217  0.87456  1.0000
  C   C87       1.0  0.36798  0.81424  0.85509  1.0000
  C   C88       1.0  0.46047  0.56873  0.82882  1.0000
  S   S28       1.0  0.51212  0.87676  0.73231  1.0000
  Fe  Fe18      1.0  0.38131  0.72172  0.94253  1.0000
  H   H145      1.0  0.25072  0.86575  0.90246  1.0000
  H   H146      1.0  0.58322  0.82613  0.91080  1.0000
  C   C89       1.0  0.69375  0.82033  0.87635  1.0000
  C   C90       1.0  0.70342  0.70402  0.72508  1.0000
  H   H147      1.0  0.62548  0.63980  0.88990  1.0000
  H   H148      1.0  0.68352  0.63017  0.76007  1.0000
  C   C91       1.0  0.32227  0.82020  0.88586  1.0000
  H   H149      1.0  0.57705  0.75642  0.83990  1.0000
  H   H150      1.0  0.60684  0.83396  0.79044  1.0000
  S   S29       1.0  0.25975  0.59604  0.73297  1.0000
  C   C92       1.0  0.64184  0.61048  0.91414  1.0000
  C   C93       1.0  0.64805  0.83749  0.80804  1.0000
  C   C94       1.0  0.60721  0.67503  0.76081  1.0000
  S   S30       1.0  0.47192  0.72674  0.90736  1.0000
  Fe  Fe19      1.0  0.48414  0.79998  0.71879  1.0000
  H   H151      1.0  0.46055  0.63449  0.74310  1.0000
  C   C95       1.0  0.39934  0.57445  0.82934  1.0000
  C   C96       1.0  0.37880  0.84923  0.81782  1.0000
  C   C97       1.0  0.61916  0.76159  0.85623  1.0000
  S   S31       1.0  0.36667  0.63874  0.94011  1.0000
  H   H152      1.0  0.37934  0.60049  0.84881  1.0000
  H   H153      1.0  0.21893  0.70013  0.75701  1.0000
  C   C98       1.0  0.66636  0.66612  0.74952  1.0000
  N   N10       1.0  0.63809  0.81524  0.85412  1.0000
  S   S32       1.0  0.50565  0.60150  0.86076  1.0000
  H   H154      1.0  0.62911  0.57990  0.83568  1.0000
  S   S33       1.0  0.30935  0.77668  0.93288  1.0000
  C   C99       1.0  0.59130  0.84155  0.87577  1.0000
  H   H155      1.0  0.23680  0.64228  0.91823  1.0000
  H   H156      1.0  0.65314  0.74075  0.83975  1.0000
  C   C100      1.0  0.28652  0.86109  0.87893  1.0000
  S   S34       1.0  0.38921  0.81645  0.71099  1.0000
  H   H157      1.0  0.54835  0.83802  0.86028  1.0000
  H   H158      1.0  0.41481  0.84429  0.79473  1.0000
  C   C101      1.0  0.62169  0.75891  0.72169  1.0000
  H   H159      1.0  0.68296  0.81837  0.79080  1.0000
  C   C102      1.0  0.68102  0.75027  0.71105  1.0000
  H   H160      1.0  0.49890  0.56826  0.70308  1.0000
  C   C103      1.0  0.42803  0.64113  0.71769  1.0000
  H   H161      1.0  0.41583  0.68072  0.71675  1.0000
  H   H162      1.0  0.60461  0.79475  0.71072  1.0000
  H   H163      1.0  0.66236  0.87800  0.80508  1.0000
  H   H164      1.0  0.22821  0.83520  0.97899  1.0000
  H   H165      1.0  0.32698  0.81212  0.06990  1.0000
  H   H166      1.0  0.65235  0.82244  0.15389  1.0000
  H   H167      1.0  0.37709  0.62576  0.14802  1.0000
  H   H168      1.0  0.56257  0.66219  0.04753  1.0000
  S   S35       1.0  0.41729  0.71247  0.00878  1.0000
  H   H169      1.0  0.21443  0.85919  0.09402  1.0000
  H   H170      1.0  0.23887  0.68820  0.95539  1.0000
  H   H171      1.0  0.28791  0.88681  0.09421  1.0000
  Fe  Fe20      1.0  0.37651  0.82885  0.18809  1.0000
  H   H172      1.0  0.62386  0.59735  0.08328  1.0000
  N   N11       1.0  0.26818  0.85951  0.03426  1.0000
  S   S36       1.0  0.37246  0.57532  0.06129  1.0000
  C   C104      1.0  0.68074  0.81305  0.12586  1.0000
  H   H173      1.0  0.24763  0.62352  0.01691  1.0000
  C   C105      1.0  0.25589  0.76694  0.15824  1.0000
  S   S37       1.0  0.59389  0.74879  0.98391  1.0000
  S   S38       1.0  0.50011  0.62847  0.97399  1.0000
  S   S39       1.0  0.54297  0.71639  0.17325  1.0000
  H   H174      1.0  0.34337  0.74531  0.13950  1.0000
  C   C106      1.0  0.29613  0.73609  0.14040  1.0000
  C   C107      1.0  0.69837  0.82194  0.04772  1.0000
  C   C108      1.0  0.61012  0.66446  0.04011  1.0000
  C   C109      1.0  0.63701  0.70391  0.01056  1.0000
  H   H175      1.0  0.67892  0.83058  0.01566  1.0000
  H   H176      1.0  0.68305  0.77156  0.13008  1.0000
  H   H177      1.0  0.30542  0.66968  0.10864  1.0000
  H   H178      1.0  0.63281  0.64486  0.18896  1.0000
  Fe  Fe21      1.0  0.40830  0.63013  0.00411  1.0000
  H   H179      1.0  0.25406  0.78364  0.06513  1.0000
  S   S40       1.0  0.27954  0.82073  0.17982  1.0000
  Fe  Fe22      1.0  0.50636  0.71130  0.97327  1.0000
  C   C110      1.0  0.64486  0.62812  0.06077  1.0000
  H   H180      1.0  0.33119  0.87452  0.97872  1.0000
  C   C111      1.0  0.59868  0.80510  0.08061  1.0000
  H   H181      1.0  0.45064  0.61443  0.16396  1.0000
  Fe  Fe23      1.0  0.49741  0.78627  0.18288  1.0000
  C   C112      1.0  0.69868  0.70753  0.00222  1.0000
  N   N12       1.0  0.65680  0.83157  0.08388  1.0000
  C   C113      1.0  0.25007  0.88262  0.07331  1.0000
  H   H182      1.0  0.30750  0.79207  0.01961  1.0000
  C   C114      1.0  0.29014  0.80967  0.04787  1.0000
  C   C115      1.0  0.27479  0.69352  0.12292  1.0000
  H   H183      1.0  0.24497  0.57479  0.98231  1.0000
  C   C116      1.0  0.21720  0.59804  0.00166  1.0000
  H   H184      1.0  0.57853  0.81871  0.04975  1.0000
  H   H185      1.0  0.56698  0.81051  0.10807  1.0000
  H   H186      1.0  0.60277  0.76398  0.08147  1.0000
  S   S41       1.0  0.44419  0.82784  0.13304  1.0000
  C   C117      1.0  0.64930  0.88600  0.08126  1.0000
  C   C118      1.0  0.21648  0.85409  0.00789  1.0000
  C   C119      1.0  0.21367  0.68073  0.12547  1.0000
  C   C120      1.0  0.41070  0.63540  0.17087  1.0000
  H   H187      1.0  0.42407  0.67597  0.16245  1.0000
  C   C121      1.0  0.70647  0.63126  0.05183  1.0000
  H   H188      1.0  0.30125  0.83491  0.27175  1.0000
  H   H189      1.0  0.47408  0.61060  0.23952  1.0000
  H   H190      1.0  0.41950  0.62300  0.28079  1.0000
  C   C122      1.0  0.38766  0.73992  0.38167  1.0000
  N   N13       1.0  0.62890  0.60511  0.40096  1.0000
  H   H191      1.0  0.55842  0.65114  0.38012  1.0000
  H   H192      1.0  0.63235  0.61802  0.33111  1.0000
  C   C123      1.0  0.49409  0.88062  0.44507  1.0000
  H   H193      1.0  0.37965  0.88347  0.38126  1.0000
  C   C124      1.0  0.63849  0.56419  0.43590  1.0000
  S   S42       1.0  0.29654  0.71776  0.44504  1.0000
  C   C125      1.0  0.67015  0.64861  0.40425  1.0000
  C   C126      1.0  0.59469  0.73969  0.24563  1.0000
  H   H194      1.0  0.35140  0.69555  0.21832  1.0000
  N   N14       1.0  0.38739  0.62347  0.21682  1.0000
  C   C127      1.0  0.64010  0.73811  0.27425  1.0000
  H   H195      1.0  0.45159  0.67296  0.24076  1.0000
  C   C128      1.0  0.43511  0.63291  0.24585  1.0000
  C   C129      1.0  0.68251  0.70253  0.27255  1.0000
  S   S43       1.0  0.28504  0.57804  0.42692  1.0000
  C   C130      1.0  0.63427  0.67032  0.21323  1.0000
  C   C131      1.0  0.56709  0.61994  0.40569  1.0000
  H   H196      1.0  0.29356  0.79389  0.32239  1.0000
  C   C132      1.0  0.59346  0.70760  0.21369  1.0000
  C   C133      1.0  0.42443  0.82495  0.35389  1.0000
  H   H197      1.0  0.50438  0.85895  0.41759  1.0000
  H   H198      1.0  0.64246  0.76471  0.29750  1.0000
  H   H199      1.0  0.68639  0.57755  0.35282  1.0000
  C   C134      1.0  0.63968  0.58794  0.35796  1.0000
  H   H200      1.0  0.31003  0.82463  0.43058  1.0000
  C   C135      1.0  0.34569  0.75844  0.40956  1.0000
  C   C136      1.0  0.42690  0.77321  0.35368  1.0000
  H   H201      1.0  0.56132  0.76643  0.24800  1.0000
  H   H202      1.0  0.53478  0.58807  0.40289  1.0000
  H   H203      1.0  0.45971  0.75888  0.33240  1.0000
  H   H204      1.0  0.25999  0.77575  0.27515  1.0000
  S   S44       1.0  0.54418  0.85601  0.20025  1.0000
  H   H205      1.0  0.38945  0.70001  0.38128  1.0000
  H   H206      1.0  0.66198  0.68123  0.38001  1.0000
  S   S45       1.0  0.41974  0.61741  0.44626  1.0000
  C   C137      1.0  0.38214  0.84342  0.38151  1.0000
  C   C138      1.0  0.34258  0.81021  0.40912  1.0000
  H   H207      1.0  0.66594  0.66096  0.43704  1.0000
  H   H208      1.0  0.55748  0.63286  0.43788  1.0000
  H   H209      1.0  0.31932  0.64744  0.25978  1.0000
  Fe  Fe24      1.0  0.46893  0.85281  0.25138  1.0000
  C   C139      1.0  0.26990  0.80795  0.29328  1.0000
  C   C140      1.0  0.23056  0.87516  0.32831  1.0000
  S   S46       1.0  0.47490  0.86675  0.32060  1.0000
  C   C141      1.0  0.67826  0.66717  0.24338  1.0000
  S   S47       1.0  0.42555  0.78122  0.23637  1.0000
  H   H210      1.0  0.25119  0.86334  0.35932  1.0000
  C   C142      1.0  0.36595  0.57026  0.22548  1.0000
  C   C143      1.0  0.33751  0.65504  0.22528  1.0000
  H   H211      1.0  0.30040  0.64804  0.20445  1.0000
  H   H212      1.0  0.33129  0.56128  0.20315  1.0000
  N   N15       1.0  0.21503  0.83184  0.30556  1.0000
  H   H213      1.0  0.21345  0.87687  0.24318  1.0000
  H   H214      1.0  0.34553  0.56088  0.25921  1.0000
  S   S48       1.0  0.44544  0.10283  0.68960  1.0000
  C   C144      1.0  0.24207  0.10959  0.57171  1.0000
  H   H215      1.0  0.28686  0.20439  0.56919  1.0000
  H   H216      1.0  0.28711  0.11186  0.58430  1.0000
  H   H217      1.0  0.24663  0.89128  0.69767  1.0000
  H   H218      1.0  0.20910  0.20075  0.58566  1.0000
  C   C145      1.0  0.70178  0.04935  0.69440  1.0000
  C   C146      1.0  0.55908  0.05933  0.61444  1.0000
  S   S49       1.0  0.55226  0.00933  0.47433  1.0000
  H   H219      1.0  0.51671  0.91277  0.52153  1.0000
  C   C147      1.0  0.63804  0.97389  0.69632  1.0000
  C   C148      1.0  0.28581  0.94063  0.61987  1.0000
  H   H220      1.0  0.66663  0.09458  0.57696  1.0000
  H   H221      1.0  0.62613  0.06153  0.54012  1.0000
  H   H222      1.0  0.51594  0.07184  0.53705  1.0000
  S   S50       1.0  0.44007  0.91894  0.64773  1.0000
  S   S51       1.0  0.26282  0.00100  0.49938  1.0000
  C   C149      1.0  0.27795  0.15258  0.50135  1.0000
  H   H223      1.0  0.48150  0.11503  0.56877  1.0000
  H   H224      1.0  0.28390  0.97092  0.59211  1.0000
  H   H225      1.0  0.27271  0.18411  0.47527  1.0000
  C   C150      1.0  0.52386  0.10723  0.55126  1.0000
  H   H226      1.0  0.66594  0.97290  0.45440  1.0000
  N   N16       1.0  0.57264  0.10305  0.58080  1.0000
  S   S52       1.0  0.40768  0.08525  0.48382  1.0000
  C   C151      1.0  0.62876  0.09652  0.55567  1.0000
  S   S53       1.0  0.61521  0.93013  0.62364  1.0000
  H   H227      1.0  0.27353  0.11718  0.48657  1.0000
  H   H228      1.0  0.56025  0.02350  0.60024  1.0000
  H   H229      1.0  0.47921  0.19537  0.48269  1.0000
  H   H230      1.0  0.43592  0.18808  0.62462  1.0000
  N   N17       1.0  0.22716  0.91369  0.63118  1.0000
  H   H231      1.0  0.53777  0.15431  0.62215  1.0000
  Fe  Fe25      1.0  0.53153  0.89375  0.65990  1.0000
  H   H232      1.0  0.30234  0.95800  0.64793  1.0000
  H   H233      1.0  0.32396  0.15698  0.51171  1.0000
  C   C152      1.0  0.57870  0.14904  0.60181  1.0000
  H   H234      1.0  0.61637  0.14757  0.62340  1.0000
  H   H235      1.0  0.59100  0.05836  0.64034  1.0000
  N   N18       1.0  0.23373  0.15248  0.53840  1.0000
  H   H236      1.0  0.23606  0.07336  0.55843  1.0000
  C   C153      1.0  0.69806  0.00602  0.63060  1.0000
  H   H237      1.0  0.51408  0.06004  0.63066  1.0000
  C   C154      1.0  0.65416  0.97169  0.65251  1.0000
  C   C155      1.0  0.39197  0.14672  0.68293  1.0000
  H   H238      1.0  0.58766  0.18289  0.57731  1.0000
  H   H239      1.0  0.63982  0.12852  0.52950  1.0000
  H   H240      1.0  0.31946  0.91486  0.60991  1.0000
  H   H241      1.0  0.43893  0.89556  0.52080  1.0000
  H   H242      1.0  0.53432  0.13780  0.52390  1.0000
  C   C156      1.0  0.39768  0.18496  0.64770  1.0000
  C   C157      1.0  0.30307  0.21411  0.67104  1.0000
  C   C158      1.0  0.24164  0.19967  0.55748  1.0000
  C   C159      1.0  0.35297  0.21879  0.64186  1.0000
  Fe  Fe26      1.0  0.33869  0.03909  0.45518  1.0000
  C   C160      1.0  0.54790  0.98963  0.93401  1.0000
  S   S54       1.0  0.52138  0.08102  0.89377  1.0000
  C   C161      1.0  0.29658  0.89566  0.84100  1.0000
  H   H243      1.0  0.39971  0.00879  0.80960  1.0000
  C   C162      1.0  0.62562  0.03552  0.88540  1.0000
  Fe  Fe27      1.0  0.54860  0.12121  0.82773  1.0000
  H   H244      1.0  0.29356  0.07663  0.80706  1.0000
  C   C163      1.0  0.66243  0.01223  0.71737  1.0000
  H   H245      1.0  0.64096  0.06783  0.86237  1.0000
  H   H246      1.0  0.36325  0.13518  0.83526  1.0000
  H   H247      1.0  0.26338  0.05282  0.86065  1.0000
  C   C164      1.0  0.64588  0.95768  0.92871  1.0000
  S   S55       1.0  0.48635  0.17070  0.79161  1.0000
  C   C165      1.0  0.29867  0.17717  0.70716  1.0000
  H   H248      1.0  0.33831  0.11339  0.73978  1.0000
  H   H249      1.0  0.60551  0.94703  0.71381  1.0000
  H   H250      1.0  0.44979  0.05141  0.83084  1.0000
  H   H251      1.0  0.32918  0.02411  0.91838  1.0000
  H   H252      1.0  0.26030  0.17393  0.73015  1.0000
  C   C166      1.0  0.36578  0.10664  0.86417  1.0000
  Fe  Fe28      1.0  0.63948  0.12828  0.75115  1.0000
  S   S56       1.0  0.56233  0.07426  0.77412  1.0000
  C   C167      1.0  0.40471  0.04716  0.81906  1.0000
  H   H253      1.0  0.26792  0.92627  0.83503  1.0000
  S   S57       1.0  0.63049  0.17197  0.80805  1.0000
  Fe  Fe29      1.0  0.41843  0.89509  0.71918  1.0000
  S   S58       1.0  0.28970  0.21143  0.91095  1.0000
  Fe  Fe30      1.0  0.56868  0.21853  0.76815  1.0000
  S   S59       1.0  0.58515  0.17941  0.70970  1.0000
  H   H254      1.0  0.64987  0.01347  0.75128  1.0000
  H   H255      1.0  0.33049  0.11382  0.88882  1.0000
  Fe  Fe31      1.0  0.50786  0.12806  0.73609  1.0000
  H   H256      1.0  0.35634  0.97942  0.88448  1.0000
  C   C168      1.0  0.29942  0.04846  0.83568  1.0000
  H   H257      1.0  0.40296  0.07395  0.78889  1.0000
  C   C169      1.0  0.56769  0.03169  0.90450  1.0000
  H   H258      1.0  0.40909  0.11335  0.87821  1.0000
  C   C170      1.0  0.34298  0.14324  0.71295  1.0000
  N   N19       1.0  0.35837  0.05522  0.85272  1.0000
  C   C171      1.0  0.66487  0.99865  0.89778  1.0000
  S   S60       1.0  0.35567  0.93173  0.76237  1.0000
  H   H259      1.0  0.40737  0.02235  0.90514  1.0000
  H   H260      1.0  0.29258  0.01108  0.82470  1.0000
  C   C172      1.0  0.36284  0.01857  0.89194  1.0000
  C   C173      1.0  0.34299  0.88976  0.81044  1.0000
  H   H261      1.0  0.50266  0.98617  0.94803  1.0000
  C   C174      1.0  0.58696  0.95235  0.94597  1.0000
  H   H262      1.0  0.65539  0.10744  0.94730  1.0000
  C   C175      1.0  0.34529  0.21295  0.94804  1.0000
  H   H263      1.0  0.64939  0.17010  0.96020  1.0000
  H   H264      1.0  0.68293  0.06061  0.04044  1.0000
  C   C176      1.0  0.44900  0.98063  0.07765  1.0000
  H   H265      1.0  0.57224  0.92061  0.96989  1.0000
  C   C177      1.0  0.62918  0.14529  0.04658  1.0000
  H   H266      1.0  0.51602  0.06224  0.14328  1.0000
  H   H267      1.0  0.44761  0.03351  0.16828  1.0000
  C   C178      1.0  0.63693  0.06086  0.02933  1.0000
  H   H268      1.0  0.54703  0.14801  0.98497  1.0000
  N   N20       1.0  0.62144  0.11214  0.01269  1.0000
  Fe  Fe32      1.0  0.22875  0.13859  0.13114  1.0000
  S   S61       1.0  0.27771  0.20560  0.14993  1.0000
  C   C179      1.0  0.36463  0.16783  0.96818  1.0000
  H   H269      1.0  0.61858  0.18437  0.03498  1.0000
  H   H270      1.0  0.34398  0.13248  0.96221  1.0000
  H   H271      1.0  0.67547  0.14647  0.05658  1.0000
  C   C180      1.0  0.40995  0.16805  0.99700  1.0000
  C   C181      1.0  0.67160  0.07387  0.18661  1.0000
  H   H272      1.0  0.52795  0.10029  0.03022  1.0000
  H   H273      1.0  0.38864  0.95071  0.13198  1.0000
  C   C182      1.0  0.45366  0.00616  0.03534  1.0000
  Fe  Fe33      1.0  0.48443  0.89727  0.15504  1.0000
  S   S62       1.0  0.26634  0.06381  0.13560  1.0000
  C   C183      1.0  0.31600  0.89145  0.00811  1.0000
  C   C184      1.0  0.39312  0.97038  0.09959  1.0000
  H   H274      1.0  0.39298  0.08196  0.11362  1.0000
  H   H275      1.0  0.55075  0.08348  0.97822  1.0000
  H   H276      1.0  0.29948  0.97872  0.09768  1.0000
  H   H277      1.0  0.60633  0.04414  0.05752  1.0000
  C   C185      1.0  0.65063  0.04768  0.15403  1.0000
  S   S63       1.0  0.64603  0.13332  0.19235  1.0000
  H   H278      1.0  0.49679  0.01313  0.01814  1.0000
  C   C186      1.0  0.34675  0.01254  0.03803  1.0000
  H   H279      1.0  0.51428  0.15768  0.18736  1.0000
  C   C187      1.0  0.40244  0.02183  0.01524  1.0000
  H   H280      1.0  0.69216  0.90711  0.08441  1.0000
  H   H281      1.0  0.38051  0.15452  0.18361  1.0000
  H   H282      1.0  0.63410  0.03532  0.00391  1.0000
  H   H283      1.0  0.40148  0.14929  0.10516  1.0000
  H   H284      1.0  0.28050  0.97271  0.19472  1.0000
  H   H285      1.0  0.23335  0.92045  0.06437  1.0000
  Fe  Fe34      1.0  0.22806  0.05810  0.07119  1.0000
  C   C188      1.0  0.55906  0.11098  0.00110  1.0000
  C   C189      1.0  0.42508  0.11451  0.11409  1.0000
  C   C190      1.0  0.47934  0.06652  0.16780  1.0000
  H   H286      1.0  0.61758  0.89464  0.10775  1.0000
  H   H287      1.0  0.63214  0.90116  0.04962  1.0000
  H   H288      1.0  0.59995  0.13219  0.07630  1.0000
  C   C191      1.0  0.66906  0.99956  0.14994  1.0000
  H   H289      1.0  0.40629  0.04223  0.98274  1.0000
  H   H290      1.0  0.70774  0.13343  0.98117  1.0000
  C   C192      1.0  0.34234  0.98665  0.08006  1.0000
  H   H291      1.0  0.62039  0.06462  0.13180  1.0000
  H   H292      1.0  0.46027  0.11251  0.08799  1.0000
  N   N21       1.0  0.45036  0.11402  0.15693  1.0000
  C   C193      1.0  0.66033  0.13160  0.97357  1.0000
  S   S64       1.0  0.51263  0.96164  0.10331  1.0000
  H   H293      1.0  0.65239  0.97958  0.12472  1.0000
  C   C194      1.0  0.49466  0.15666  0.15540  1.0000
  H   H294      1.0  0.53208  0.15432  0.13097  1.0000
  H   H295      1.0  0.35538  0.89682  0.02735  1.0000
  H   H296      1.0  0.42402  0.13287  0.01259  1.0000
  H   H297      1.0  0.47463  0.19308  0.14623  1.0000
  S   S65       1.0  0.28209  0.03359  0.01532  1.0000
  H   H298      1.0  0.30082  0.92925  0.99684  1.0000
  C   C195      1.0  0.40228  0.11851  0.19039  1.0000
  C   C196      1.0  0.70831  0.97727  0.17870  1.0000
  C   C197      1.0  0.43728  0.21336  0.00518  1.0000
  S   S66       1.0  0.49480  0.21177  0.04110  1.0000
  H   H299      1.0  0.36705  0.08800  0.19151  1.0000
  S   S67       1.0  0.69751  0.91634  0.94886  1.0000
  H   H300      1.0  0.58068  0.11225  0.43753  1.0000
  H   H301      1.0  0.61610  0.06903  0.27757  1.0000
  H   H302      1.0  0.68173  0.99915  0.29619  1.0000
  H   H303      1.0  0.41926  0.11663  0.22344  1.0000
  C   C198      1.0  0.54620  0.97646  0.35030  1.0000
  H   H304      1.0  0.23484  0.16596  0.23698  1.0000
  C   C199      1.0  0.28865  0.01567  0.30885  1.0000
  H   H305      1.0  0.57371  0.93426  0.27774  1.0000
  C   C200      1.0  0.67019  0.11415  0.40907  1.0000
  C   C201      1.0  0.21049  0.19841  0.22648  1.0000
  H   H306      1.0  0.54008  0.06335  0.29863  1.0000
  C   C202      1.0  0.23320  0.00352  0.29346  1.0000
  S   S68       1.0  0.67043  0.19009  0.30041  1.0000
  H   H307      1.0  0.66248  0.99859  0.35274  1.0000
  Fe  Fe35      1.0  0.47358  0.04526  0.44646  1.0000
  H   H308      1.0  0.26308  0.90214  0.30793  1.0000
  H   H309      1.0  0.52438  0.98351  0.26633  1.0000
  S   S69       1.0  0.41331  0.90024  0.20793  1.0000
  N   N22       1.0  0.58791  0.99703  0.31307  1.0000
  C   C203      1.0  0.64869  0.98364  0.32296  1.0000
  S   S70       1.0  0.40990  0.03572  0.29751  1.0000
  H   H310      1.0  0.67172  0.15374  0.39715  1.0000
  H   H311      1.0  0.44905  0.89459  0.44110  1.0000
  H   H312      1.0  0.22941  0.04159  0.41421  1.0000
  C   C204      1.0  0.23028  0.98934  0.25175  1.0000
  H   H313      1.0  0.52611  0.91387  0.44168  1.0000
  H   H314      1.0  0.49937  0.98303  0.34310  1.0000
  C   C205      1.0  0.66724  0.01244  0.44229  1.0000
  H   H315      1.0  0.29079  0.02744  0.34065  1.0000
  S   S71       1.0  0.40483  0.99494  0.42242  1.0000
  C   C206      1.0  0.34070  0.01430  0.28222  1.0000
  C   C207      1.0  0.33747  0.99785  0.24160  1.0000
  H   H316      1.0  0.49831  0.06443  0.20022  1.0000
  H   H317      1.0  0.59879  0.06953  0.33463  1.0000
  Fe  Fe36      1.0  0.40701  0.13856  0.42217  1.0000
  C   C208      1.0  0.57094  0.97569  0.27366  1.0000
  H   H318      1.0  0.54908  0.93531  0.35800  1.0000
  S   S72       1.0  0.33321  0.09577  0.39610  1.0000
  H   H319      1.0  0.55563  0.99375  0.38001  1.0000
  Fe  Fe37      1.0  0.40455  0.05470  0.36549  1.0000
  H   H320      1.0  0.65222  0.94230  0.32810  1.0000
  H   H321      1.0  0.60043  0.99133  0.24459  1.0000
  C   C209      1.0  0.58562  0.05216  0.30569  1.0000
  S   S73       1.0  0.47857  0.10213  0.38674  1.0000
  C   C210      1.0  0.61875  0.09068  0.43196  1.0000
  C   C211      1.0  0.28251  0.98501  0.22647  1.0000
  H   H322      1.0  0.37752  0.99636  0.22129  1.0000
  Fe  Fe38      1.0  0.70331  0.17643  0.23353  1.0000
  S   S74       1.0  0.39509  0.22071  0.41864  1.0000
  H   H323      1.0  0.25218  0.21230  0.31731  1.0000
  H   H324      1.0  0.32693  0.21609  0.33403  1.0000
  C   C212      1.0  0.61726  0.03978  0.44827  1.0000
  C   C213      1.0  0.84480  0.50807  0.61537  1.0000
  H   H325      1.0  0.79250  0.49571  0.47221  1.0000
  C   C214      1.0  0.81543  0.47005  0.49582  1.0000
  C   C215      1.0  0.16878  0.33758  0.49861  1.0000
  S   S75       1.0  0.19354  0.50275  0.69313  1.0000
  H   H326      1.0  0.07489  0.46390  0.54860  1.0000
  H   H327      1.0  0.92787  0.22922  0.50901  1.0000
  H   H328      1.0  0.90306  0.48096  0.66445  1.0000
  S   S76       1.0  0.89848  0.55161  0.58700  1.0000
  H   H329      1.0  0.77999  0.44555  0.51572  1.0000
  C   C216      1.0  0.88080  0.40234  0.50537  1.0000
  C   C217      1.0  0.04712  0.49364  0.62711  1.0000
  C   C218      1.0  0.80782  0.28125  0.46475  1.0000
  S   S77       1.0  0.20258  0.48084  0.52014  1.0000
  H   H330      1.0  0.15835  0.33306  0.68257  1.0000
  C   C219      1.0  0.78811  0.50267  0.60037  1.0000
  H   H331      1.0  0.11812  0.42412  0.66027  1.0000
  N   N23       1.0  0.05009  0.44186  0.61655  1.0000
  C   C220      1.0  0.76330  0.25751  0.49459  1.0000
  C   C221      1.0  0.10952  0.42415  0.62526  1.0000
  H   H332      1.0  0.71749  0.26527  0.49053  1.0000
  S   S78       1.0  0.71370  0.38279  0.67911  1.0000
  H   H333      1.0  0.00696  0.36884  0.63702  1.0000
  C   C222      1.0  0.81829  0.43967  0.67330  1.0000
  C   C223      1.0  0.74758  0.46446  0.62030  1.0000
  H   H334      1.0  0.01097  0.40794  0.67901  1.0000
  H   H335      1.0  0.91651  0.38209  0.49025  1.0000
  H   H336      1.0  0.99625  0.45785  0.56241  1.0000
  H   H337      1.0  0.78917  0.39003  0.45617  1.0000
  N   N24       1.0  0.85761  0.44049  0.47320  1.0000
  C   C224      1.0  0.06977  0.29947  0.69733  1.0000
  H   H338      1.0  0.00232  0.50779  0.62249  1.0000
  H   H339      1.0  0.11375  0.38518  0.61781  1.0000
  H   H340      1.0  0.03746  0.40272  0.56137  1.0000
  H   H341      1.0  0.08021  0.51978  0.60631  1.0000
  H   H342      1.0  0.13885  0.30609  0.51229  1.0000
  H   H343      1.0  0.06885  0.28404  0.66702  1.0000
  C   C225      1.0  0.86717  0.27180  0.47032  1.0000
  S   S79       1.0  0.72366  0.34285  0.56802  1.0000
  H   H344      1.0  0.89925  0.41959  0.53275  1.0000
  C   C226      1.0  0.20500  0.42419  0.49792  1.0000
  C   C227      1.0  0.00462  0.40831  0.64370  1.0000
  H   H345      1.0  0.83832  0.49302  0.51779  1.0000
  H   H346      1.0  0.82367  0.23590  0.63483  1.0000
  H   H347      1.0  0.93199  0.49308  0.47493  1.0000
  H   H348      1.0  0.95906  0.41976  0.63779  1.0000
  C   C228      1.0  0.85962  0.47688  0.65226  1.0000
  H   H349      1.0  0.14525  0.44860  0.60570  1.0000
  C   C229      1.0  0.88188  0.23649  0.50459  1.0000
  C   C230      1.0  0.76269  0.43284  0.65666  1.0000
  H   H350      1.0  0.84525  0.37366  0.51947  1.0000
  H   H351      1.0  0.77529  0.52730  0.57307  1.0000
  H   H352      1.0  0.05711  0.49598  0.66137  1.0000
  C   C231      1.0  0.03920  0.44148  0.57012  1.0000
  C   C232      1.0  0.16618  0.38340  0.51522  1.0000
  H   H353      1.0  0.13473  0.38676  0.54185  1.0000
  H   H354      1.0  0.82230  0.31828  0.66308  1.0000
  H   H355      1.0  0.72954  0.26928  0.65827  1.0000
  C   C233      1.0  0.90728  0.47396  0.45120  1.0000
  C   C234      1.0  0.77783  0.22424  0.53002  1.0000
  C   C235      1.0  0.73424  0.24992  0.69160  1.0000
  C   C236      1.0  0.82609  0.29789  0.69623  1.0000
  H   H356      1.0  0.92754  0.54864  0.69816  1.0000
  H   H357      1.0  0.91519  0.37681  0.83159  1.0000
  C   C237      1.0  0.92242  0.47214  0.78139  1.0000
  Fe  Fe39      1.0  0.19186  0.35519  0.83172  1.0000
  H   H358      1.0  0.87406  0.29710  0.70238  1.0000
  H   H359      1.0  0.84345  0.30507  0.82699  1.0000
  C   C238      1.0  0.98332  0.47817  0.78652  1.0000
  H   H360      1.0  0.77947  0.24214  0.76979  1.0000
  S   S80       1.0  0.97238  0.23736  0.72484  1.0000
  C   C239      1.0  0.84130  0.29751  0.86316  1.0000
  H   H361      1.0  0.72366  0.50867  0.91132  1.0000
  H   H362      1.0  0.05041  0.50438  0.82612  1.0000
  C   C240      1.0  0.12031  0.32788  0.70588  1.0000
  S   S81       1.0  0.01795  0.28873  0.93949  1.0000
  H   H363      1.0  0.81041  0.41456  0.88382  1.0000
  S   S82       1.0  0.03371  0.46034  0.74729  1.0000
  H   H364      1.0  0.75918  0.36234  0.88041  1.0000
  C   C241      1.0  0.98177  0.24151  0.91528  1.0000
  C   C242      1.0  0.96214  0.51282  0.85377  1.0000
  H   H365      1.0  0.07641  0.35186  0.80735  1.0000
  Fe  Fe40      1.0  0.12222  0.50212  0.74676  1.0000
  H   H366      1.0  0.11896  0.45178  0.93989  1.0000
  N   N25       1.0  0.85081  0.34421  0.88277  1.0000
  H   H367      1.0  0.94617  0.34254  0.87707  1.0000
  Fe  Fe41      1.0  0.88301  0.54830  0.94792  1.0000
  H   H368      1.0  0.79737  0.27808  0.87447  1.0000
  C   C243      1.0  0.91032  0.36774  0.86766  1.0000
  H   H369      1.0  0.80459  0.32048  0.71969  1.0000
  S   S83       1.0  0.13470  0.39029  0.87924  1.0000
  C   C244      1.0  0.88144  0.48659  0.81235  1.0000
  C   C245      1.0  0.99876  0.23253  0.87299  1.0000
  C   C246      1.0  0.84691  0.33269  0.93076  1.0000
  N   N26       1.0  0.79746  0.24679  0.70056  1.0000
  C   C247      1.0  0.12359  0.34566  0.74601  1.0000
  H   H370      1.0  0.70982  0.27127  0.71478  1.0000
  S   S84       1.0  0.16128  0.27686  0.85980  1.0000
  C   C248      1.0  0.02387  0.30898  0.76792  1.0000
  S   S85       1.0  0.19104  0.37304  0.75947  1.0000
  H   H371      1.0  0.82993  0.41542  0.70164  1.0000
  C   C249      1.0  0.80467  0.37893  0.86951  1.0000
  C   C250      1.0  0.90121  0.50596  0.84903  1.0000
  H   H372      1.0  0.80636  0.38874  0.83350  1.0000
  H   H373      1.0  0.87593  0.27088  0.87181  1.0000
  H   H374      1.0  0.03528  0.25464  0.85462  1.0000
  H   H375      1.0  0.91926  0.40309  0.88178  1.0000
  S   S86       1.0  0.84853  0.51847  0.88933  1.0000
  H   H376      1.0  0.98768  0.30027  0.79256  1.0000
  S   S87       1.0  0.18594  0.50410  0.79942  1.0000
  H   H377      1.0  0.83434  0.48191  0.80824  1.0000
  H   H378      1.0  0.90695  0.45630  0.75347  1.0000
  Fe  Fe42      1.0  0.11001  0.31206  0.91042  1.0000
  C   C251      1.0  0.07461  0.33745  0.77656  1.0000
  C   C252      1.0  0.00327  0.49939  0.82224  1.0000
  C   C253      1.0  0.02268  0.28801  0.72908  1.0000
  H   H379      1.0  0.97780  0.52786  0.88185  1.0000
  C   C254      1.0  0.80221  0.22163  0.74533  1.0000
  H   H380      1.0  0.80285  0.31441  0.94343  1.0000
  H   H381      1.0  0.85311  0.36731  0.94647  1.0000
  H   H382      1.0  0.88152  0.30711  0.94208  1.0000
  H   H383      1.0  0.02740  0.46605  0.98250  1.0000
  H   H384      1.0  0.79175  0.39128  0.09327  1.0000
  H   H385      1.0  0.72802  0.35962  0.12411  1.0000
  C   C255      1.0  0.94877  0.27752  0.05714  1.0000
  H   H386      1.0  0.05358  0.37257  0.05636  1.0000
  H   H387      1.0  0.12927  0.48477  0.09224  1.0000
  S   S88       1.0  0.00729  0.48425  0.07134  1.0000
  C   C256      1.0  0.17890  0.46895  0.03476  1.0000
  H   H388      1.0  0.81115  0.48990  0.16582  1.0000
  C   C257      1.0  0.19107  0.26605  0.17082  1.0000
  H   H389      1.0  0.90004  0.27157  0.06494  1.0000
  H   H390      1.0  0.19940  0.28519  0.13807  1.0000
  H   H391      1.0  0.90530  0.33537  0.11284  1.0000
  N   N27       1.0  0.97031  0.32946  0.06051  1.0000
  Fe  Fe43      1.0  0.95038  0.53280  0.02970  1.0000
  H   H392      1.0  0.72628  0.55334  0.94959  1.0000
  H   H393      1.0  0.95558  0.35664  0.99417  1.0000
  H   H394      1.0  0.84059  0.46668  0.11797  1.0000
  S   S89       1.0  0.85932  0.50671  0.01457  1.0000
  H   H395      1.0  0.89349  0.36041  0.03254  1.0000
  C   C258      1.0  0.94281  0.36413  0.02783  1.0000
  H   H396      1.0  0.97031  0.25031  0.07992  1.0000
  H   H397      1.0  0.04960  0.32717  0.01895  1.0000
  C   C259      1.0  0.17600  0.45799  0.99216  1.0000
  S   S90       1.0  0.77965  0.29959  0.04407  1.0000
  C   C260      1.0  0.77047  0.38163  0.12681  1.0000
  H   H398      1.0  0.79957  0.35623  0.14581  1.0000
  H   H399      1.0  0.95704  0.40376  0.03001  1.0000
  H   H400      1.0  0.97655  0.31798  0.12980  1.0000
  C   C261      1.0  0.14489  0.27998  0.19786  1.0000
  H   H401      1.0  0.11879  0.31100  0.18650  1.0000
  C   C262      1.0  0.78294  0.23423  0.05304  1.0000
  S   S91       1.0  0.11233  0.50072  0.18046  1.0000
  C   C263      1.0  0.07217  0.47534  0.04060  1.0000
  C   C264      1.0  0.12688  0.47661  0.05926  1.0000
  H   H402      1.0  0.84815  0.43229  0.17066  1.0000
  H   H403      1.0  0.03186  0.24532  0.18034  1.0000
  C   C265      1.0  0.95396  0.34168  0.10460  1.0000
  H   H404      1.0  0.75462  0.22742  0.12121  1.0000
  C   C266      1.0  0.72103  0.45921  0.12142  1.0000
  H   H405      1.0  0.96697  0.38144  0.10763  1.0000
  C   C267      1.0  0.73119  0.41222  0.19177  1.0000
  C   C268      1.0  0.03567  0.33434  0.05250  1.0000
  N   N28       1.0  0.76015  0.42704  0.14769  1.0000
  H   H406      1.0  0.95859  0.26754  0.02398  1.0000
  C   C269      1.0  0.12131  0.45748  0.97336  1.0000
  H   H407      1.0  0.05753  0.30728  0.07566  1.0000
  H   H408      1.0  0.81183  0.22857  0.98653  1.0000
  C   C270      1.0  0.06944  0.46642  0.99740  1.0000
  C   C271      1.0  0.81750  0.45507  0.15071  1.0000
  S   S92       1.0  0.18436  0.30944  0.95499  1.0000
  H   H409      1.0  0.74136  0.47159  0.08795  1.0000
  H   H410      1.0  0.71158  0.49360  0.13640  1.0000
  Fe  Fe44      1.0  0.03819  0.52253  0.22439  1.0000
  H   H411      1.0  0.93933  0.45283  0.43311  1.0000
  H   H412      1.0  0.79615  0.30691  0.43732  1.0000
  C   C272      1.0  0.90134  0.52133  0.26853  1.0000
  C   C273      1.0  0.98722  0.37141  0.25812  1.0000
  H   H413      1.0  0.87276  0.34409  0.24999  1.0000
  C   C274      1.0  0.93838  0.31241  0.31585  1.0000
  S   S93       1.0  0.07839  0.30062  0.38557  1.0000
  S   S94       1.0  0.94072  0.50184  0.22384  1.0000
  S   S95       1.0  0.79939  0.25059  0.30593  1.0000
  C   C275      1.0  0.80930  0.51967  0.31296  1.0000
  H   H414      1.0  0.90229  0.30501  0.34230  1.0000
  Fe  Fe45      1.0  0.82254  0.23375  0.23847  1.0000
  H   H415      1.0  0.91112  0.39619  0.34996  1.0000
  S   S96       1.0  0.91201  0.26087  0.20719  1.0000
  H   H416      1.0  0.93276  0.28392  0.29323  1.0000
  Fe  Fe46      1.0  0.13013  0.24633  0.42586  1.0000
  H   H417      1.0  0.85678  0.39330  0.42244  1.0000
  S   S97       1.0  0.07174  0.26996  0.27115  1.0000
  H   H418      1.0  0.03147  0.36856  0.27184  1.0000
  H   H419      1.0  0.98726  0.40880  0.23849  1.0000
  C   C276      1.0  0.84088  0.50730  0.27610  1.0000
  C   C277      1.0  0.92988  0.54896  0.29746  1.0000
  Fe  Fe47      1.0  0.99840  0.26141  0.42291  1.0000
  H   H420      1.0  0.89090  0.50355  0.42724  1.0000
  H   H421      1.0  0.95130  0.43903  0.30776  1.0000
  C   C278      1.0  0.94807  0.39985  0.32422  1.0000
  C   C279      1.0  0.13114  0.25288  0.23901  1.0000
  H   H422      1.0  0.72269  0.44536  0.20873  1.0000
  H   H423      1.0  0.87970  0.40932  0.25572  1.0000
  H   H424      1.0  0.99006  0.39371  0.34062  1.0000
  S   S98       1.0  0.92230  0.30738  0.43614  1.0000
  H   H425      1.0  0.98101  0.30606  0.33081  1.0000
  H   H426      1.0  0.84335  0.36568  0.29892  1.0000
  S   S99       1.0  0.08777  0.50758  0.28477  1.0000
  H   H427      1.0  0.75883  0.38729  0.21252  1.0000
  H   H428      1.0  0.80750  0.44359  0.41622  1.0000
  N   N29       1.0  0.93861  0.36380  0.29286  1.0000
  C   C280      1.0  0.83770  0.54657  0.34227  1.0000
  Fe  Fe48      1.0  0.16487  0.49291  0.23959  1.0000
  H   H429      1.0  0.81847  0.48615  0.25388  1.0000
  Fe  Fe49      1.0  0.06949  0.24169  0.34175  1.0000
  H   H430      1.0  0.98347  0.34282  0.23536  1.0000
  Fe  Fe50      1.0  0.71075  0.26857  0.28154  1.0000
  C   C281      1.0  0.82657  0.41575  0.44048  1.0000
  C   C282      1.0  0.88098  0.37108  0.27355  1.0000
  H   H431      1.0  0.76268  0.50807  0.31892  1.0000
  H   H432      1.0  0.19643  0.28991  0.30548  1.0000
  S   S100      1.0  0.73637  0.25643  0.21291  1.0000
  H   H433      1.0  0.70912  0.77911  0.69136  1.0000
  H   H434      1.0  0.04513  0.60379  0.49301  1.0000
  H   H435      1.0  0.78741  0.77049  0.61861  1.0000
  H   H436      1.0  0.77691  0.75638  0.56452  1.0000
  N   N30       1.0  0.11574  0.66128  0.48159  1.0000
  H   H437      1.0  0.16393  0.86945  0.60075  1.0000
  H   H438      1.0  0.13536  0.70535  0.53261  1.0000
  C   C283      1.0  0.71479  0.83646  0.53941  1.0000
  H   H439      1.0  0.86624  0.61625  0.66516  1.0000
  Fe  Fe51      1.0  0.90428  0.69200  0.46715  1.0000
  H   H440      1.0  0.02271  0.66605  0.49755  1.0000
  S   S101      1.0  0.97598  0.75333  0.45171  1.0000
  H   H441      1.0  0.17470  0.72668  0.48100  1.0000
  H   H442      1.0  0.75924  0.85128  0.63968  1.0000
  Fe  Fe52      1.0  0.86267  0.87360  0.68200  1.0000
  Fe  Fe53      1.0  0.86346  0.60039  0.53079  1.0000
  H   H443      1.0  0.99278  0.57907  0.66793  1.0000
  H   H444      1.0  0.18768  0.85402  0.67845  1.0000
  H   H445      1.0  0.09720  0.73730  0.48906  1.0000
  H   H446      1.0  0.02176  0.66704  0.67514  1.0000
  H   H447      1.0  0.73205  0.81847  0.51122  1.0000
  C   C284      1.0  0.05878  0.64008  0.50402  1.0000
  H   H448      1.0  0.71398  0.75818  0.60204  1.0000
  H   H449      1.0  0.93226  0.64436  0.63476  1.0000
  Fe  Fe54      1.0  0.77385  0.67597  0.49780  1.0000
  H   H450      1.0  0.15269  0.58942  0.47992  1.0000
  S   S102      1.0  0.18917  0.62689  0.61793  1.0000
  H   H451      1.0  0.84540  0.85085  0.58633  1.0000
  Fe  Fe55      1.0  0.19104  0.58612  0.68547  1.0000
  S   S103      1.0  0.77637  0.59307  0.50034  1.0000
  S   S104      1.0  0.91685  0.60997  0.46669  1.0000
  N   N31       1.0  0.75478  0.83046  0.57541  1.0000
  C   C285      1.0  0.16249  0.62608  0.49172  1.0000
  H   H452      1.0  0.88884  0.68039  0.66823  1.0000
  H   H453      1.0  0.70974  0.87673  0.52776  1.0000
  C   C286      1.0  0.73108  0.85593  0.61153  1.0000
  C   C287      1.0  0.90559  0.64265  0.66632  1.0000
  H   H454      1.0  0.06194  0.63343  0.53994  1.0000
  S   S105      1.0  0.85691  0.68253  0.53333  1.0000
  C   C288      1.0  0.13146  0.70979  0.49674  1.0000
  S   S106      1.0  0.89655  0.80248  0.66258  1.0000
  H   H455      1.0  0.16742  0.61853  0.52739  1.0000
  H   H456      1.0  0.83455  0.83369  0.53339  1.0000
  C   C289      1.0  0.81450  0.85300  0.55977  1.0000
  C   C290      1.0  0.75853  0.77659  0.59089  1.0000
  H   H457      1.0  0.20629  0.64151  0.47619  1.0000
  H   H458      1.0  0.85607  0.77562  0.47358  1.0000
  C   C291      1.0  0.87750  0.80758  0.45310  1.0000
  S   S107      1.0  0.11610  0.58501  0.73559  1.0000
  S   S108      1.0  0.16907  0.63902  0.83390  1.0000
  Fe  Fe56      1.0  0.96057  0.80808  0.71444  1.0000
  H   H459      1.0  0.91092  0.69756  0.90133  1.0000
  H   H460      1.0  0.12020  0.76688  0.86162  1.0000
  H   H461      1.0  0.16539  0.56864  0.93310  1.0000
  H   H462      1.0  0.17397  0.76085  0.70371  1.0000
  N   N32       1.0  0.94099  0.62667  0.70362  1.0000
  H   H463      1.0  0.99132  0.56438  0.72607  1.0000
  C   C292      1.0  0.14818  0.74427  0.73299  1.0000
  C   C293      1.0  0.08911  0.75586  0.74015  1.0000
  S   S109      1.0  0.77817  0.69411  0.71327  1.0000
  S   S110      1.0  0.79438  0.83577  0.73223  1.0000
  H   H464      1.0  0.86419  0.59531  0.74432  1.0000
  C   C294      1.0  0.94256  0.75476  0.93825  1.0000
  C   C295      1.0  0.03339  0.82736  0.83696  1.0000
  C   C296      1.0  0.87876  0.76938  0.87840  1.0000
  H   H465      1.0  0.01775  0.65351  0.73336  1.0000
  H   H466      1.0  0.17887  0.68472  0.92020  1.0000
  H   H467      1.0  0.03742  0.82749  0.80105  1.0000
  S   S111      1.0  0.93174  0.88221  0.72970  1.0000
  H   H468      1.0  0.06748  0.80570  0.91871  1.0000
  H   H469      1.0  0.14232  0.80280  0.80972  1.0000
  H   H470      1.0  0.72992  0.80005  0.86174  1.0000
  Fe  Fe57      1.0  0.18474  0.58731  0.78438  1.0000
  H   H471      1.0  0.10738  0.61153  0.93154  1.0000
  C   C297      1.0  0.14028  0.68764  0.80067  1.0000
  H   H472      1.0  0.01628  0.78927  0.85225  1.0000
  Fe  Fe58      1.0  0.83290  0.76484  0.71642  1.0000
  C   C298      1.0  0.73151  0.60403  0.86936  1.0000
  C   C299      1.0  0.87999  0.82040  0.88282  1.0000
  H   H473      1.0  0.71850  0.63423  0.84443  1.0000
  N   N33       1.0  0.09080  0.84188  0.85363  1.0000
  C   C300      1.0  0.17363  0.70996  0.76312  1.0000
  S   S112      1.0  0.84894  0.86261  0.84403  1.0000
  H   H474      1.0  0.99891  0.85383  0.84395  1.0000
  C   C301      1.0  0.99107  0.66385  0.70495  1.0000
  C   C302      1.0  0.91020  0.73658  0.90597  1.0000
  C   C303      1.0  0.91053  0.83823  0.91613  1.0000
  H   H475      1.0  0.85357  0.75510  0.85372  1.0000
  H   H476      1.0  0.12441  0.85550  0.91466  1.0000
  H   H477      1.0  0.75982  0.62164  0.89204  1.0000
  H   H478      1.0  0.91168  0.87761  0.91976  1.0000
  H   H479      1.0  0.05493  0.68080  0.83640  1.0000
  C   C304      1.0  0.13487  0.80505  0.84515  1.0000
  Fe  Fe59      1.0  0.86576  0.83841  0.77852  1.0000
  H   H480      1.0  0.01048  0.74172  0.78358  1.0000
  C   C305      1.0  0.08132  0.69921  0.80798  1.0000
  H   H481      1.0  0.17870  0.81499  0.85724  1.0000
  C   C306      1.0  0.08253  0.84329  0.90104  1.0000
  S   S113      1.0  0.89935  0.76447  0.76683  1.0000
  C   C307      1.0  0.05586  0.73332  0.77771  1.0000
  C   C308      1.0  0.90316  0.62228  0.74467  1.0000
  H   H482      1.0  0.92828  0.60903  0.77335  1.0000
  H   H483      1.0  0.88552  0.65884  0.75007  1.0000
  H   H484      1.0  0.97526  0.70181  0.70759  1.0000
  H   H485      1.0  0.75970  0.57904  0.85219  1.0000
  H   H486      1.0  0.04816  0.86953  0.90885  1.0000
  C   C309      1.0  0.94208  0.80547  0.94368  1.0000
  H   H487      1.0  0.71026  0.86029  0.87437  1.0000
  S   S114      1.0  0.05784  0.79845  0.70180  1.0000
  C   C310      1.0  0.96429  0.57750  0.69859  1.0000
  C   C311      1.0  0.20902  0.66202  0.94069  1.0000
  C   C312      1.0  0.73341  0.67150  0.02318  1.0000
  H   H488      1.0  0.93315  0.71485  0.14723  1.0000
  H   H489      1.0  0.91386  0.74459  0.19441  1.0000
  H   H490      1.0  0.82828  0.68880  0.14289  1.0000
  H   H491      1.0  0.72608  0.83007  0.12844  1.0000
  H   H492      1.0  0.16407  0.68036  0.01919  1.0000
  C   C313      1.0  0.13717  0.65386  0.00242  1.0000
  H   H493      1.0  0.17918  0.83103  0.02708  1.0000
  C   C314      1.0  0.92583  0.70852  0.18333  1.0000
  H   H494      1.0  0.06987  0.76490  0.19664  1.0000
  N   N34       1.0  0.17538  0.62628  0.97456  1.0000
  H   H495      1.0  0.10485  0.67555  0.98320  1.0000
  S   S115      1.0  0.92131  0.60339  0.05287  1.0000
  H   H496      1.0  0.11116  0.62779  0.02838  1.0000
  H   H497      1.0  0.78114  0.67543  0.01770  1.0000
  Fe  Fe60      1.0  0.83197  0.58034  0.03268  1.0000
  S   S116      1.0  0.98591  0.71483  0.97041  1.0000
  H   H498      1.0  0.16446  0.78037  0.17106  1.0000
  Fe  Fe61      1.0  0.94016  0.63805  0.98360  1.0000
  H   H499      1.0  0.90505  0.62452  0.14719  1.0000
  H   H500      1.0  0.78827  0.64995  0.18733  1.0000
  H   H501      1.0  0.74073  0.84522  0.04644  1.0000
  H   H502      1.0  0.94048  0.60974  0.19695  1.0000
  H   H503      1.0  0.19311  0.57268  0.02890  1.0000
  S   S117      1.0  0.18709  0.62359  0.11103  1.0000
  H   H504      1.0  0.12656  0.70224  0.14477  1.0000
  C   C315      1.0  0.89813  0.62096  0.18327  1.0000
  C   C316      1.0  0.19503  0.75560  0.15827  1.0000
  H   H505      1.0  0.71973  0.73831  0.97975  1.0000
  H   H506      1.0  0.96913  0.69929  0.19674  1.0000
  S   S118      1.0  0.74942  0.58409  0.07543  1.0000
  H   H507      1.0  0.80524  0.71467  0.19154  1.0000
  Fe  Fe62      1.0  0.14416  0.58152  0.17292  1.0000
  C   C317      1.0  0.17383  0.71194  0.14291  1.0000
  C   C318      1.0  0.82292  0.68112  0.17907  1.0000
  H   H508      1.0  0.11054  0.56485  0.97805  1.0000
  N   N35       1.0  0.87951  0.66811  0.19795  1.0000
  S   S119      1.0  0.97689  0.56915  0.96167  1.0000
  S   S120      1.0  0.84804  0.62000  0.96481  1.0000
  H   H509      1.0  0.96660  0.81965  0.96889  1.0000
  H   H510      1.0  0.86439  0.58950  0.19373  1.0000
  C   C319      1.0  0.13798  0.59121  0.95343  1.0000
  H   H511      1.0  0.70934  0.78205  0.05113  1.0000
  H   H512      1.0  0.13253  0.81138  0.34355  1.0000
  C   C320      1.0  0.17523  0.79512  0.33466  1.0000
  H   H513      1.0  0.17249  0.81741  0.24779  1.0000
  C   C321      1.0  0.11015  0.66921  0.43400  1.0000
  Fe  Fe63      1.0  0.81647  0.88515  0.32241  1.0000
  H   H514      1.0  0.83644  0.63181  0.25854  1.0000
  C   C322      1.0  0.87144  0.66166  0.24603  1.0000
  S   S121      1.0  0.74286  0.70494  0.30475  1.0000
  S   S122      1.0  0.81741  0.81011  0.22568  1.0000
  H   H515      1.0  0.71714  0.63966  0.39785  1.0000
  C   C323      1.0  0.89795  0.56176  0.33438  1.0000
  H   H516      1.0  0.01165  0.84995  0.40254  1.0000
  C   C324      1.0  0.87020  0.88796  0.40970  1.0000
  H   H517      1.0  0.09765  0.63364  0.42120  1.0000
  C   C325      1.0  0.02063  0.77797  0.25482  1.0000
  H   H518      1.0  0.14303  0.86749  0.27379  1.0000
  S   S123      1.0  0.79635  0.55797  0.38916  1.0000
  H   H519      1.0  0.85803  0.69678  0.25826  1.0000
  H   H520      1.0  0.91331  0.65157  0.26125  1.0000
  S   S124      1.0  0.19993  0.57320  0.23029  1.0000
  H   H521      1.0  0.92003  0.58297  0.35676  1.0000
  S   S125      1.0  0.98547  0.82817  0.22726  1.0000
  H   H522      1.0  0.97649  0.56057  0.29153  1.0000
  C   C326      1.0  0.07673  0.69551  0.29563  1.0000
  S   S126      1.0  0.82082  0.69078  0.43136  1.0000
  H   H523      1.0  0.15273  0.68469  0.41616  1.0000
  C   C327      1.0  0.00863  0.76214  0.29940  1.0000
  S   S127      1.0  0.85965  0.81171  0.32403  1.0000
  S   S128      1.0  0.06555  0.60399  0.21145  1.0000
  H   H524      1.0  0.12219  0.69411  0.23296  1.0000
  H   H525      1.0  0.19624  0.78203  0.36529  1.0000
  H   H526      1.0  0.07555  0.69592  0.42509  1.0000
  Fe  Fe64      1.0  0.77662  0.88272  0.23171  1.0000
  C   C328      1.0  0.84370  0.84738  0.43794  1.0000
  Fe  Fe65      1.0  0.82946  0.60795  0.43626  1.0000
  C   C329      1.0  0.18465  0.84909  0.26594  1.0000
  S   S129      1.0  0.73175  0.85582  0.29765  1.0000
  H   H527      1.0  0.02648  0.70837  0.35410  1.0000
  Fe  Fe66      1.0  0.77902  0.78503  0.29346  1.0000
  H   H528      1.0  0.97820  0.78172  0.31834  1.0000
  C   C330      1.0  0.93775  0.80784  0.43963  1.0000
  C   C331      1.0  0.03673  0.72094  0.31983  1.0000
  H   H529      1.0  0.16418  0.76147  0.31868  1.0000
  S   S130      1.0  0.11009  0.64238  0.31993  1.0000
  Fe  Fe67      1.0  0.11849  0.58902  0.26990  1.0000
  Fe  Fe68      1.0  0.89543  0.84111  0.25654  1.0000
  C   C332      1.0  0.06149  0.75319  0.23114  1.0000
  C   C333      1.0  0.08988  0.71244  0.25148  1.0000
  C   C334      1.0  0.96522  0.84977  0.41336  1.0000
  H   H530      1.0  0.79620  0.84491  0.44538  1.0000
  H   H531      1.0  0.71027  0.63878  0.24297  1.0000
  S   S131      1.0  0.84055  0.93968  0.63610  1.0000
  C   C335      1.0  0.72177  0.04510  0.65152  1.0000
  H   H532      1.0  0.82692  0.13120  0.47086  1.0000
  C   C336      1.0  0.01980  0.02506  0.61231  1.0000
  C   C337      1.0  0.19396  0.01532  0.47937  1.0000
  H   H533      1.0  0.94687  0.05994  0.52282  1.0000
  Fe  Fe69      1.0  0.09196  0.10557  0.66048  1.0000
  C   C338      1.0  0.91370  0.02430  0.62962  1.0000
  H   H534      1.0  0.05261  0.95601  0.59533  1.0000
  H   H535      1.0  0.79557  0.99926  0.52081  1.0000
  H   H536      1.0  0.91244  0.01907  0.46189  1.0000
  H   H537      1.0  0.97455  0.08850  0.63048  1.0000
  H   H538      1.0  0.81293  0.89334  0.54690  1.0000
  C   C339      1.0  0.17330  0.14798  0.52305  1.0000
  C   C340      1.0  0.95828  0.94910  0.61140  1.0000
  C   C341      1.0  0.96981  0.04980  0.62465  1.0000
  H   H539      1.0  0.79787  0.11211  0.52617  1.0000
  H   H540      1.0  0.13867  0.14794  0.55014  1.0000
  C   C342      1.0  0.18324  0.94958  0.64241  1.0000
  N   N36       1.0  0.85828  0.06194  0.50105  1.0000
  C   C343      1.0  0.90837  0.97370  0.62382  1.0000
  H   H541      1.0  0.17919  0.97954  0.61471  1.0000
  H   H542      1.0  0.80592  0.17931  0.67114  1.0000
  C   C344      1.0  0.81158  0.09816  0.49508  1.0000
  H   H543      1.0  0.16599  0.17946  0.49754  1.0000
  H   H544      1.0  0.84840  0.18740  0.56246  1.0000
  C   C345      1.0  0.83533  0.01830  0.53240  1.0000
  C   C346      1.0  0.08825  0.02378  0.49265  1.0000
  H   H545      1.0  0.16562  0.11252  0.50887  1.0000
  H   H546      1.0  0.92952  0.11896  0.49447  1.0000
  C   C347      1.0  0.14226  0.00700  0.50710  1.0000
  C   C348      1.0  0.01391  0.97510  0.60482  1.0000
  S   S132      1.0  0.17802  0.11096  0.69103  1.0000
  S   S133      1.0  0.72220  0.20281  0.57061  1.0000
  H   H547      1.0  0.71130  0.00402  0.59684  1.0000
  H   H548      1.0  0.87500  0.04309  0.63967  1.0000
  C   C349      1.0  0.91072  0.08629  0.51779  1.0000
  H   H549      1.0  0.95418  0.90986  0.60717  1.0000
  H   H550      1.0  0.19604  0.96833  0.67071  1.0000
  C   C350      1.0  0.87557  0.04491  0.45891  1.0000
  H   H551      1.0  0.04878  0.01886  0.51461  1.0000
  H   H552      1.0  0.13823  0.93070  0.65081  1.0000
  H   H553      1.0  0.87479  0.21455  0.67455  1.0000
  S   S134      1.0  0.09016  0.05540  0.60886  1.0000
  Fe  Fe70      1.0  0.16779  0.19367  0.68431  1.0000
  H   H554      1.0  0.75303  0.07336  0.63382  1.0000
  H   H555      1.0  0.82229  0.02952  0.56477  1.0000
  H   H556      1.0  0.14412  0.98944  0.54022  1.0000
  S   S135      1.0  0.08626  0.18831  0.64780  1.0000
  H   H557      1.0  0.89947  0.09987  0.54945  1.0000
  H   H558      1.0  0.86949  0.99015  0.53738  1.0000
  H   H559      1.0  0.77118  0.08091  0.48301  1.0000
  S   S136      1.0  0.05056  0.21159  0.46777  1.0000
  C   C351      1.0  0.83702  0.21277  0.53471  1.0000
  C   C352      1.0  0.82694  0.21791  0.66889  1.0000
  H   H560      1.0  0.72961  0.89698  0.60148  1.0000
  H   H561      1.0  0.20551  0.91802  0.56431  1.0000
  C   C353      1.0  0.08628  0.04951  0.45076  1.0000
  H   H562      1.0  0.20898  0.10824  0.59983  1.0000
  C   C354      1.0  0.20829  0.88980  0.59353  1.0000
  H   H563      1.0  0.71150  0.21204  0.69368  1.0000
  H   H564      1.0  0.88351  0.09535  0.76825  1.0000
  H   H565      1.0  0.94735  0.99777  0.77261  1.0000
  H   H566      1.0  0.12592  0.11421  0.88075  1.0000
  S   S137      1.0  0.85843  0.97799  0.90673  1.0000
  Fe  Fe71      1.0  0.12377  0.10595  0.75423  1.0000
  C   C355      1.0  0.11676  0.02396  0.85056  1.0000
  C   C356      1.0  0.96776  0.19516  0.85406  1.0000
  N   N37       1.0  0.11685  0.13344  0.94579  1.0000
  H   H567      1.0  0.86597  0.15472  0.93706  1.0000
  H   H568      1.0  0.11898  0.89187  0.79553  1.0000
  C   C357      1.0  0.87250  0.06749  0.74594  1.0000
  C   C358      1.0  0.02046  0.00567  0.88941  1.0000
  H   H569      1.0  0.80441  0.99421  0.71961  1.0000
  C   C359      1.0  0.11225  0.89187  0.83137  1.0000
  S   S138      1.0  0.72153  0.10299  0.71805  1.0000
  C   C360      1.0  0.92029  0.16662  0.87782  1.0000
  S   S139      1.0  0.12095  0.18937  0.75003  1.0000
  H   H570      1.0  0.91149  0.06663  0.72252  1.0000
  H   H571      1.0  0.18921  0.98712  0.88069  1.0000
  N   N38       1.0  0.85638  0.01732  0.77020  1.0000
  H   H572      1.0  0.88049  0.97897  0.71603  1.0000
  H   H573      1.0  0.15510  0.06210  0.94556  1.0000
  H   H574      1.0  0.98101  0.18807  0.82139  1.0000
  H   H575      1.0  0.12638  0.94351  0.94368  1.0000
  H   H576      1.0  0.83581  0.08162  0.72669  1.0000
  H   H577      1.0  0.07984  0.92051  0.83698  1.0000
  H   H578      1.0  0.84940  0.21883  0.75331  1.0000
  S   S140      1.0  0.16288  0.05627  0.80774  1.0000
  S   S141      1.0  0.88245  0.11765  0.85700  1.0000
  C   C361      1.0  0.90330  0.17614  0.91964  1.0000
  H   H579      1.0  0.04798  0.07798  0.93836  1.0000
  Fe  Fe72      1.0  0.03851  0.18041  0.71396  1.0000
  C   C362      1.0  0.93389  0.21328  0.93852  1.0000
  H   H580      1.0  0.81220  0.04658  0.82395  1.0000
  C   C363      1.0  0.05591  0.03062  0.85376  1.0000
  H   H581      1.0  0.71030  0.00246  0.88408  1.0000
  H   H582      1.0  0.79192  0.98218  0.82010  1.0000
  H   H583      1.0  0.17694  0.16355  0.89126  1.0000
  H   H584      1.0  0.03634  0.05579  0.82929  1.0000
  C   C364      1.0  0.04562  0.97394  0.92179  1.0000
  C   C365      1.0  0.10659  0.96746  0.91852  1.0000
  H   H585      1.0  0.82899  0.94383  0.75656  1.0000
  Fe  Fe73      1.0  0.85471  0.05931  0.91422  1.0000
  H   H586      1.0  0.15544  0.90430  0.84305  1.0000
  H   H587      1.0  0.91928  0.02640  0.81820  1.0000
  C   C366      1.0  0.14211  0.99244  0.88300  1.0000
  H   H588      1.0  0.97401  0.01228  0.89221  1.0000
  C   C367      1.0  0.13062  0.14722  0.89849  1.0000
  C   C368      1.0  0.90726  0.00017  0.79472  1.0000
  H   H589      1.0  0.89699  0.96247  0.81361  1.0000
  C   C369      1.0  0.80397  0.01941  0.80068  1.0000
  H   H590      1.0  0.76454  0.03123  0.78312  1.0000
  H   H591      1.0  0.78150  0.18287  0.74971  1.0000
  H   H592      1.0  0.10011  0.17500  0.88432  1.0000
  C   C370      1.0  0.84194  0.98195  0.73927  1.0000
  S   S142      1.0  0.03678  0.09589  0.72406  1.0000
  H   H593      1.0  0.02301  0.13956  0.94069  1.0000
  H   H594      1.0  0.82118  0.13642  0.00015  1.0000
  C   C371      1.0  0.80720  0.15668  0.02619  1.0000
  H   H595      1.0  0.02053  0.95924  0.14528  1.0000
  H   H596      1.0  0.85845  0.92621  0.15892  1.0000
  C   C372      1.0  0.97656  0.93868  0.14491  1.0000
  H   H597      1.0  0.89080  0.03889  0.13689  1.0000
  H   H598      1.0  0.87848  0.91124  0.10552  1.0000
  S   S143      1.0  0.76989  0.04741  0.95660  1.0000
  H   H599      1.0  0.83980  0.96672  0.11217  1.0000
  Fe  Fe74      1.0  0.82696  0.03644  0.01304  1.0000
  H   H600      1.0  0.96667  0.03687  0.15055  1.0000
  N   N39       1.0  0.93229  0.97152  0.12522  1.0000
  H   H601      1.0  0.99755  0.01158  0.07842  1.0000
  C   C373      1.0  0.90473  0.18514  0.15633  1.0000
  H   H602      1.0  0.90033  0.12916  0.11265  1.0000
  H   H603      1.0  0.96238  0.92344  0.17922  1.0000
  C   C374      1.0  0.77549  0.15589  0.10192  1.0000
  H   H604      1.0  0.76555  0.13557  0.13414  1.0000
  S   S144      1.0  0.14123  0.02124  0.10120  1.0000
  C   C375      1.0  0.79483  0.13041  0.06764  1.0000
  C   C376      1.0  0.02782  0.18760  0.13838  1.0000
  C   C377      1.0  0.15768  0.09570  0.96285  1.0000
  C   C378      1.0  0.76922  0.20783  0.09456  1.0000
  C   C379      1.0  0.92915  0.15384  0.12801  1.0000
  H   H605      1.0  0.10998  0.17026  0.00320  1.0000
  Fe  Fe75      1.0  0.11256  0.09975  0.09982  1.0000
  H   H606      1.0  0.14670  0.08258  0.99798  1.0000
  S   S145      1.0  0.83220  0.95375  0.01268  1.0000
  Fe  Fe76      1.0  0.17678  0.03305  0.16524  1.0000
  H   H607      1.0  0.92223  0.01841  0.06518  1.0000
  S   S146      1.0  0.80277  0.06566  0.07588  1.0000
  C   C380      1.0  0.99066  0.15503  0.11900  1.0000
  H   H608      1.0  0.07526  0.18993  0.13065  1.0000
  H   H609      1.0  0.04254  0.10246  0.98933  1.0000
  H   H610      1.0  0.90874  0.00015  0.18498  1.0000
  H   H611      1.0  0.95708  0.96083  0.05907  1.0000
  H   H612      1.0  0.85712  0.18463  0.16271  1.0000
  C   C381      1.0  0.87486  0.94260  0.12539  1.0000
  S   S147      1.0  0.72875  0.91611  0.17475  1.0000
  C   C382      1.0  0.92443  0.01370  0.15069  1.0000
  C   C383      1.0  0.95317  0.99130  0.07995  1.0000
  H   H613      1.0  0.98325  0.90611  0.12682  1.0000
  S   S148      1.0  0.02070  0.11693  0.08262  1.0000
  S   S149      1.0  0.14198  0.10884  0.16587  1.0000
  Fe  Fe77      1.0  0.91163  0.97377  0.96554  1.0000
  Fe  Fe78      1.0  0.77902  0.96533  0.95406  1.0000
  S   S150      1.0  0.00166  0.94289  0.96668  1.0000
  S   S151      1.0  0.91117  0.05543  0.97119  1.0000
  C   C384      1.0  0.80158  0.20853  0.01875  1.0000
  H   H614      1.0  0.17112  0.19374  0.96479  1.0000
  C   C385      1.0  0.12406  0.17852  0.96792  1.0000
  H   H615      1.0  0.20478  0.11110  0.95911  1.0000
  C   C386      1.0  0.94182  0.21837  0.17492  1.0000
  C   C387      1.0  0.00330  0.21940  0.16611  1.0000
  C   C388      1.0  0.05491  0.11244  0.95388  1.0000
  S   S152      1.0  0.19648  0.13595  0.06488  1.0000
  H   H616      1.0  0.09638  0.20865  0.95395  1.0000
  H   H617      1.0  0.19970  0.89121  0.99625  1.0000
  H   H618      1.0  0.92063  0.21963  0.97130  1.0000
  H   H619      1.0  0.13566  0.07483  0.38969  1.0000
  H   H620      1.0  0.19068  0.89584  0.33602  1.0000
  H   H621      1.0  0.95149  0.92034  0.37507  1.0000
  Fe  Fe79      1.0  0.04467  0.15897  0.41741  1.0000
  C   C389      1.0  0.72946  0.00337  0.21127  1.0000
  H   H622      1.0  0.75550  0.01369  0.41206  1.0000
  C   C390      1.0  0.16384  0.21211  0.25345  1.0000
  H   H623      1.0  0.96091  0.09950  0.35073  1.0000
  S   S153      1.0  0.12833  0.19002  0.37871  1.0000
  C   C391      1.0  0.71100  0.05157  0.21523  1.0000
  H   H624      1.0  0.04518  0.14961  0.24532  1.0000
  H   H625      1.0  0.03909  0.15356  0.30263  1.0000
  S   S154      1.0  0.85842  0.91668  0.25667  1.0000
  N   N40       1.0  0.98071  0.09666  0.28239  1.0000
  S   S155      1.0  0.79255  0.15310  0.25352  1.0000
  H   H626      1.0  0.04815  0.06201  0.31990  1.0000
  C   C392      1.0  0.01325  0.14634  0.27449  1.0000
  H   H627      1.0  0.90558  0.12431  0.31615  1.0000
  C   C393      1.0  0.93792  0.09455  0.32071  1.0000
  S   S156      1.0  0.82446  0.92739  0.37956  1.0000
  C   C394      1.0  0.71824  0.03570  0.41883  1.0000
  H   H628      1.0  0.00037  0.01917  0.29638  1.0000
  H   H629      1.0  0.72563  0.07051  0.24146  1.0000
  H   H630      1.0  0.91170  0.05787  0.32718  1.0000
  H   H631      1.0  0.83823  0.02434  0.44608  1.0000
  Fe  Fe80      1.0  0.76198  0.17124  0.31923  1.0000
  S   S157      1.0  0.98559  0.20583  0.37639  1.0000
  H   H632      1.0  0.92270  0.05171  0.24856  1.0000
  S   S158      1.0  0.02155  0.07729  0.43499  1.0000
  C   C395      1.0  0.19084  0.03807  0.43660  1.0000
  C   C396      1.0  0.71993  0.08660  0.40243  1.0000
  S   S159      1.0  0.16221  0.98274  0.22867  1.0000
  H   H633      1.0  0.75939  0.98620  0.23380  1.0000
  C   C397      1.0  0.13737  0.05608  0.42250  1.0000
  S   S160      1.0  0.78487  0.11570  0.37488  1.0000
  H   H634      1.0  0.89056  0.07704  0.43373  1.0000
  H   H635      1.0  0.05679  0.05783  0.26254  1.0000
  H   H636      1.0  0.98249  0.17719  0.26869  1.0000
  H   H637      1.0  0.15222  0.19030  0.28474  1.0000
  C   C398      1.0  0.94830  0.08861  0.24369  1.0000
  H   H638      1.0  0.97927  0.09016  0.21417  1.0000
  H   H639      1.0  0.19276  0.00688  0.31314  1.0000
  H   H640      1.0  0.91616  0.11803  0.23657  1.0000
  C   C399      1.0  0.02336  0.05723  0.29058  1.0000
  C   C400      1.0  0.93124  0.88974  0.39807  1.0000
