data_image0
_chemical_formula_structural       FeS2FeS2FeHFeS3HCH4SCHFeS2CSFe2SHS2H3NFeCHCHCHC4SC4H3C2H2CHC6H4C6H5CH3SFeH6CH3CH4SHCHCHCHNSCH12CH5NCH5CHSCHC3HNHC2HCSH2CH3CNCHC2HCH2C2H2CFeS2FeS2FeSFeS3NH3FeS2FeS2FeCFeS3HFeS3FeSFeS3FeSHFeSH2SFeS2FeS2FeSFeS3NSH5C6H4CH3C7H5FeNC7H4C6H5CH3C2H4C3HC7H5C3H2CH2CH4CH3C2HC3H3CNH4CSH4C3H2SHCH6CH2CH3S2H2FeNC3H8C3HCNH2CHNHC3HNC4H12NC4H2C2H5NH2NC4H2CHFeCH6CHCH6CH3CH2CH6C3HCH3SH2CH3CHCHC2HCH2CH4CHNH5CH6CH4SCHFeSHFeS2FeHFeS3HFeS2FeS2FeSFeS3HCFeS2FeC2SH2FeS4HCH2FeS2FeS2FeSFeS3C2SH2C4H3C6H4CHC4HCH2C6H4C6H4SCSH2CH2SHSCH8C7H4C6H2NCHCHCH2CH2SH2SCHCFeH13FeCH3C2SCHNC4H12NC4H12NC4H14CNH2SH2FeCH3SC2HFeH6CNH3SFeN2C4H10SHCHNC2HCNH3C2HNH4CH4C3H6C3HSHFeS2FeS2FeSFeS3CFeS2FeS2FeSFeS3NH10SCH2NH3C2H2C2H2C7SHCH3C2HC2H2C2H2CHC2NH2C6H5C2HC2H3CH4CNSHCHCH3NC2H7FeCH3CHCH2CHCSHNC3H9CH2C2H7CHCH3CHFeHCHCH2S2C3H3C3HCHCHCHSFeSCFeSFeH4SFeHFeS2HFeHSFeS2HFeSFeS2FeS2FeS2Fe2S3FeS2FeS2Fe2S3HCHSHC2HCH3C6H4C6H4C6H4C6H4C6H4C6H5CHSHSHNCHC6H2CH2C2HCH5CNC4H15SC2HC2HSH4FeSN2C4H5SCNH3CH4CH2CHNC4H3SH2SC2H3SH2CSH2CHFeHNH4NSCH2CH4SHSH3SHCSH3CHC2H5C2H3C3HC3H4FeHCHNHSH3CHCH2SH2CHC2FeHSFeS2HSFeS3FeS2FeSC2SFeHFeS2FeHFeS3HCH5C6H4CHC2H2CS2CH2Fe2HC6H4SC4HC3HNH2CH3SCH2FeSH4CHCHC3HCHCHC2SCH3CNH7CH2CSNHCH2SH3CH3C2H5CH2CHCH2NHCSH2CNSHSNSFeS2FeS2Fe2S3FeSFeHS2H5C2HCHC4HCHC2H8CHC2H4SHNCH5FeCSH4C3HCH3C6H4C6H8CHSHSC6H6CH3SCH5C2HCH3CNSC2NC4SCSH2C2H2CH3NH4FeH4C2HFeCHCHCH4FeH4CNH5CHC2H2C2HCFeH2CHFeH3C2SH3CHCHSFeS2HSFeSFeSCS2CSFeSFeCHFeNH2CHFeS2NC6HC7HCH2C6H5CS2C7H8SHSH2CH4SCHNH3SH2SH5CNC6HSH4CHCHCHSHSCHCSCSHNH2SH2S2CFe2HCHCHCFeSH3CFe2H2CFeCSC2H3CHCHCFeNCHCFeH4SCH6C4HCH2CH2CH2SH2C2H4NH3CH4NS2HFeH3CH6NCH2CHCSH5CHFe2CH2C2FeC2H3SHCH4CHSCH3SHFeS2FeSFe2S4FeS2FeS2FeSFeS3CSH3SH3SHFeS2FeCSFeS2FeS2FeSFeS3NHCH2SC7H4C6H4C6H3CHNHCH7SH2CH5CH4FeH2C3H2C6H4C6H4C6HSCHC6H12CHCNH3NC4H12C2H9CHSH2FeCHCFeSCSHSCS2HC2HCHCHNC4H12NC4H14CHNSCH2C2HC2HCSHNC4H12CH6SCHCHFeNC4FeCSC5HCH7FeH2SC2H2NHCHNC2HNHFeH2CH3C2H3FeH5FeH2CFeS2FeSHFeSFeS3FeS2H3FeH7SHC2H2CHNH2CSH5C4H5C2H2C2HC2NC2HCHSCH3C6H5C2H2CH3CH4CHCFeH3SCHCNCH2SHC2H2C2NH4SC2SH3CH8SCH2FeS2FeSHFeS4HNCHCH5CFeS2HFeHFeSC2SCH2NH3C4HSNCH4SHFeH3SH2C2HCH2FeC6H10CH3C3H3C3SC3SH2CHC4FeH4C2H8NH2CH2C2H3FeSHFeSFeS5HFeS2FeS2FeSFeS3CSHSCSFeSCFeS2FeSHFeSFeS3FeS2FeS2FeSFeS3HC6H3NFeHC7H4C6H4C6H4C6H4C6H2CHCHC5H4CH4NC2H3C6H4CHCH5C2SNC4H11NC3H9SH2CH4CH5FeH2CH2CHCFeH5NC4H12NC4H14CHCHNCH2CH5CH5CNC2H6CHSH2SHCHFeCH4CH2CH2CH4FeHSCH2SC2H2C5HCHS2HFeS2FeS2FeSFeS3H2CH2N2H3CHCH2CFeS2FeS2FeHFeS3H3C3H2CH2FeC2HSH7NH2CSC6H4C2HCHCHCH3C4H3CFeC6H3CFeH5FeHC2SCH4C2H4CHC3HSH3CH3NH2CSHCH7CHCSH5CHC2HCNCNC3SHCH2C2H3CHCHC2H2C2H2C2H5CFeSH2SHFeSFeSH2FeSHFeS2FeSFeS3FeS2FeS2CSFeS3FeSCFeS2FeSFeCS2FeS2FeS2FeCFeS4HCNS2HCH2C3HC2NCHC6H10FeHC7H4C6H2FeHC6H4CHCHC6H4C2HCH2FeHCH2C6H5SNCFe2HSC2H3C3NC4H13Fe2HCHCH10SH3CH3CHCNC4H7SCH4S2HC2H2CHC2H3NC4H12NC2H9FeCH2CH2NCH3SCHC3H3CH2S2HSH3CH2C2HCHC2H7NCHC2H3SCH2C2H2CHCH5SHCSCFeSFe2HFeS2HSC2SFeSCS2FeS2FeS2FeSFeS3FeS2FeC2FeSH2SHFeS2FeS2FeHFeS3H4SC6H4CHCHC2HCH2C6H4C6H4FeC2SH2C6H4C6H6CH3FeHCHC3HCSC2H2CH4SH2C6H4C2H7NC4H15FeHCH3CH5CHCS2NCHC2HCHS2HNHCH3CHCSCH2CH3NHCHC3SHCHCH4C2SHCFeCNH3NCHFeNH9CHCHSHC3HSHSCSCHSHSHCHCHNCHFeCH7Fe2HNH7CH3NC2H3NH2SHFeSFeS2FeSFeS2HC3FeSHFeS2FeCFeHS2CH2FeS2FeS2FeSFeS3HC3H4CHC6H10CHCHC2H3SCH4CHCSCHSHCHNH3C2SHC3HNHC6H3CNH2CH3CHC2H3C3HC5HCH3CH3CHCNC3H13C2H4CH3CHSCH3NC2H2C2H7C2SH2CNCH3CHCH2CHNCH2CSHSHSCH11CNHC2H3C2H6FeSFeS2FeSFeHS2H2CS2H2C2SCHFeC2H2CH3SH4FeNHCHNC3HCSH3C3FeCHSH6CHC2HC3H2C6H4FeHNHCFeHS2H3SCH4CH2C3H3CH6FeCHFeCSH2FeS3FeSH2SFeS2FeS2FeSFeS3FeS2HSHFeHFeS3HSFeS2FeS2FeSFeS5CFeHC3SC6H4C2HC3HNH2C6HCH2C6H4C6H4C6H4C6H4C6H4CH2C3HNHCS2HC2SCH2SH4CHSH2CH6FeCHCSH3CHCHNH2CH2CHCHNC4H19CNH2FeH2C2H3NC2H2CH4CH2C2H3SNH5CNHNHCNCH10CHCH3FeHCH2C2H5CH2SNH4FeHCH2CH4SHC2H8CH3FeCHNH2CH6CH3SHNHC2FeSFeS2FeSFeS3H3FeS2FeS2FeSFeS3FeS2FeS2H2CSC2HSCFeS2FeS2FeSFeS3H6C4HCHC6H4C2H3FeH3C3HC3H4C6H4C6H4CH4SC7H5C2SH3CHC6H2C6H4NC3H12C2H2SCH2NFeH4SH2CH2NCFeHCHSC3H4C2H13CNCH2NHCSH3NHCH9CH10CHCHCHC3HNC4H12C2HCHCFeH3C2H2SH2N2H4C2HC3FeCH4SHC2HCNCSCHSHS2HC2HC4HNHFeH2CNHC3H6C4H3CHCH2CH2C2H2CH2C2HFeS2FeSHFeHFeHS2HCSH2CH3CFeHNH2FeS2H2CS3H2SC3H4CH3C2NH2C2SHCSH3C2H3CHCHFeH2CH2SH2NH3CH2C7FeH3SC2H5NH2CHSH2NCH2C2HCHCFeS2CFeHCSFeS2FeS2FeSH2S4FeHSFeHSCFeSCSFeS2FeS2FeSFeS3FeS2FeS2FeSFeS3H3CH4CH2C8H4C6H4C2H3C6H4NH3C6H4C6H4C6H4CH3C8FeH7FeHNH2C2HCH7SH3NC3H8C2FeC3H4NCHCHCHCH2SH2SHSFeH2NFeHSCH2CSHCH4CH2NC4H16NC3H2SCH2CH4C3SH9FeHC3HSCH2C3H3CH2NCHCHN2CH3CHS2H3CNH3C3H4FeH2SH2SNH2SH4CHSHC2H4SFeS2FeSFeS3H2CSCFeS2FeS2FeHFeHS2FeS2FeS2FeSFeS3H5C3H6CH6C6H4CHCH2C3H2C2HCHCH4CH2C3NH3CH3C2HC2HC6H7CH3NH2CHCH2C2SH6NHCH3C5SNCHC3HC2HCH2NCNCHCHCSHCH4C3HC2HCHN2HC2H2CH3C2HCH2CFeH3CHCH5SHC3H3SH5CH3CHC2H4SFeH3CH6C2NCS2CHNSH2CHNH2SH3FeS2FeS2FeSFeCS2FeS2FeS2FeSFeS3CHCH2CH4C2H2C6H4CH3Fe2CH3C7H3SHC2H2CHCH6NH4FeH4CHC6H6S2C2H3SHCH3NH2C2HCHC2HC3H2CHFeH2CH2CH2C3H5C2NH2CH2CH6CH5CFeS2FeNHSHCH2FeS2FeS2FeSFeS3FeS2HSCFeSFeS3FeS2FeS2FeSFeS2FeS2FeS2H2FeS4H5CH3C6H4CHC2HCH4C2HCHFeSH2C6H4C6H4C6H4CH2C6H7CHC7H4SH2FeH2NC4H10NH3CH2SCHFeHNC3SHC2HSCH3CH2CSCHSC2FeCFeSH3CNS2HCH4SCHCHC2NC4H12CFeHC2H5C3HCH2NC4H12NC4H11CSCHCH2SHCH5CH6C2FeSCFeS2FeSFeS3FeS2FeS2FeSFeS3HFeS2FeS2FeSFeHS2H2Fe2SH2SCS2FeSH6CH6C6H4CH2NH3C3H2C6H4C6H6C2HC6H5C5H4CSCH2CH2CH5CH2NHCH3C2H2CH5CH2CH4CFeNH5C2H12CNCHCHCNH2CH5CH2SC2HSH3FeCHSCH5CH2CNC2SC2H2C2H3SH2FeHCSHCSCH4C2HSCSCH2CHSHC2NH4CH2CNHNH2C3H2CH3CHFeCHC2NC2HCHCSH6C3H4CH2CHCHCH2CHCHCNFeHCH3CFeS2FeS2FeSFeS3HCHSNCH3SFeS2FeSHFeSFeCS2C6H3NH3CH2C2H3CH2CHCHC7H4C2H7CH8CH2CH2CH2SHSCHNHC4H5C2HCH2CHC2HCH2C2H3C2HN2H8CHC2HNCH2NFeS2FeS2Fe2S3FeS2HSFe2S3HSCH6SH2C2HC7H2C7H4C6H3SCHNC4H8CHCH3SH3C2H9C2HC3H2C2H2SH4SH2CH2FeC2NHFeH2CNC3H4CH5C3H2CH7C2H3SHC2HFeS2FeS2FeSFeS3FeS2FeS2FeSFeS3FeS2FeSFeS3HSFeS2FeSFeNS2FeS2FeS2FeSFeS3HCH3CHC6H4CHCNC2H2C6H4CH2NSC6H4C6H5C2NH2C2HC6H6C3HFeH3CHCHC2H2CHCS2HC3HSFeH2FeH2NC4H12NC4H14C2HC2HCHC5H2NC4H11NC4H12NC4H12NCHC3HNH6CHC3NH3CHC3NHCHCH3CS2HC2H2C2H6SHCH2C3H6C3H6CHCH6CHCH2CH6SH10CH2FeC3H2CFeCHCHFeS2CH2CSNFeS2FeS2FeSCS2FeS3H3C2HFeH3CH2CHFeH2CHC2H3CHCHFeCHCFeS2FeNSNH3FeH3CSCH8C3SC6H4C6H4C6H5SHCHCH2NCH4NCH3CHCHCH3SCH2SHCH3CH5SC2H2CH2SH2CH5CHCH2CNHCH3SH2CNCHNC2SH2CFeSH3FeS2FeCH2CSFeH4S2CSFeHSFeS2FeSHS5FeSFeSFe2H4C4H3C6H2CHFeHCH3SC6H4CHC4FeHC3H2CH2CH3CHFeH3CSC2H3CHCHCHSHCHCH4C2H2N2H9C2HSH2CH3C2H5C2HCHCHCSHCSHFeS2CFeC3HCH3SCFeSCHSNH2CHFeH2C2H2C2H2CHC3H2C3SHCHFeHCHSNHNCHSCFeSNS2HCHCHCH2CHCH2C2FeH2NHC2SCH4CH2CH2CSHFeHSH3C2NH6C2HCH3CH6CH2SCHFeSCFeSHCSH4NH4CS2H2SFe2SFeS2FeSFeS2FeSFeS3FeSFeS2FeSFeS3C2HSH3C6H4C6H4C6H4C6H4C6H4CSH2C7H3CHCFeH2S2HSH3C2HFeH2CSNC4HSH4CH4FeNCNC4H15SCSH2FeHNC4H12CHFeH2C3FeH3FeC3HNC4H11CH3CHNHSH2CHCSCHCSH5CFeH2S2H3CFeSCHSHCH2C2H2CH2CHC2H4FeHCHS2NH3CH7CHCS3NCHFeS2FeHSFeC3S2FeS2FeS2FeS2HFeS2FeS2Fe2S3C3H2C10H4C4H4C8H4SH3C2H2CHSH10NH4CH3CH2CHCHFeC2H2C2H4C2H4NH2SCHCNC4H12CHCSNH2CFeH2CH2SHCH3C2NH
_chemical_formula_sum              "Fe512 S1024 H4096 C2560 N256"
_cell_length_a       79.1785
_cell_length_b       79.9635
_cell_length_c       112.007
_cell_angle_alpha    74.349
_cell_angle_beta     74.266
_cell_angle_gamma    74.2933

_space_group_name_H-M_alt    "P 1"
_space_group_IT_number       1

loop_
  _space_group_symop_operation_xyz
  'x, y, z'

loop_
  _atom_site_type_symbol
  _atom_site_label
  _atom_site_symmetry_multiplicity
  _atom_site_fract_x
  _atom_site_fract_y
  _atom_site_fract_z
  _atom_site_occupancy
  Fe  Fe1       1.0  0.45331  0.10802  0.01982  1.0000
  S   S1        1.0  0.43189  0.13114  0.01393  1.0000
  S   S2        1.0  0.48123  0.11242  0.01514  1.0000
  Fe  Fe2       1.0  0.42800  0.08255  0.02918  1.0000
  S   S3        1.0  0.40464  0.10361  0.02344  1.0000
  S   S4        1.0  0.42595  0.05521  0.04074  1.0000
  Fe  Fe3       1.0  0.42479  0.11189  0.00573  1.0000
  H   H1        1.0  0.46470  0.00506  0.03457  1.0000
  Fe  Fe4       1.0  0.41433  0.12052  0.03226  1.0000
  S   S5        1.0  0.39480  0.13787  0.04525  1.0000
  S   S6        1.0  0.44730  0.08923  0.01075  1.0000
  S   S7        1.0  0.43665  0.09895  0.03888  1.0000
  H   H2        1.0  0.46067  0.15323  0.10806  1.0000
  C   C1        1.0  0.45994  0.20996  0.12746  1.0000
  H   H3        1.0  0.38272  0.16467  0.18521  1.0000
  H   H4        1.0  0.41518  0.18765  0.04422  1.0000
  H   H5        1.0  0.42103  0.18595  0.02783  1.0000
  H   H6        1.0  0.28748  0.18425  0.21787  1.0000
  S   S8        1.0  0.40269  0.00440  0.01650  1.0000
  C   C2        1.0  0.47432  0.13580  0.04438  1.0000
  H   H7        1.0  0.49729  0.12748  0.10284  1.0000
  Fe  Fe5       1.0  0.42034  0.18509  0.09144  1.0000
  S   S9        1.0  0.42145  0.17342  0.11187  1.0000
  S   S10       1.0  0.43024  0.16462  0.07910  1.0000
  C   C3        1.0  0.48142  0.13289  0.08336  1.0000
  S   S11       1.0  0.41514  0.21388  0.11606  1.0000
  Fe  Fe6       1.0  0.43845  0.19272  0.10973  1.0000
  Fe  Fe7       1.0  0.39805  0.19567  0.11607  1.0000
  S   S12       1.0  0.37529  0.19054  0.13264  1.0000
  H   H8        1.0  0.26680  0.23358  0.21583  1.0000
  S   S13       1.0  0.39543  0.20613  0.09575  1.0000
  S   S14       1.0  0.43901  0.20309  0.08903  1.0000
  H   H9        1.0  0.46525  0.16734  0.07932  1.0000
  H   H10       1.0  0.39343  0.01959  0.99248  1.0000
  H   H11       1.0  0.34905  0.18647  0.19963  1.0000
  N   N1        1.0  0.35927  0.18353  0.18026  1.0000
  Fe  Fe8       1.0  0.31244  0.23424  0.18852  1.0000
  C   C4        1.0  0.33116  0.22437  0.14674  1.0000
  H   H12       1.0  0.40613  0.09105  0.99618  1.0000
  C   C5        1.0  0.30073  0.20545  0.21580  1.0000
  H   H13       1.0  0.43556  0.21179  0.02195  1.0000
  C   C6        1.0  0.34148  0.18335  0.17851  1.0000
  H   H14       1.0  0.46414  0.13023  0.10780  1.0000
  C   C7        1.0  0.46597  0.22100  0.13255  1.0000
  C   C8        1.0  0.30391  0.21691  0.22201  1.0000
  C   C9        1.0  0.48803  0.14526  0.04028  1.0000
  C   C10       1.0  0.47542  0.23825  0.08148  1.0000
  S   S15       1.0  0.46563  0.18312  0.11470  1.0000
  C   C11       1.0  0.35814  0.20956  0.13401  1.0000
  C   C12       1.0  0.34401  0.20894  0.14467  1.0000
  C   C13       1.0  0.36895  0.10189  0.05596  1.0000
  C   C14       1.0  0.47173  0.12624  0.03646  1.0000
  H   H15       1.0  0.42970  0.21367  0.03827  1.0000
  H   H16       1.0  0.31273  0.22591  0.21700  1.0000
  H   H17       1.0  0.34313  0.19653  0.15138  1.0000
  C   C15       1.0  0.37906  0.07188  0.05240  1.0000
  C   C16       1.0  0.42596  0.18187  0.03681  1.0000
  H   H18       1.0  0.45739  0.12078  0.99154  1.0000
  H   H19       1.0  0.45063  0.16722  0.05099  1.0000
  C   C17       1.0  0.48325  0.12569  0.02458  1.0000
  H   H20       1.0  0.46126  0.11878  0.03978  1.0000
  C   C18       1.0  0.42032  0.04121  0.03342  1.0000
  C   C19       1.0  0.41159  0.04822  0.02326  1.0000
  C   C20       1.0  0.40617  0.03683  0.01812  1.0000
  C   C21       1.0  0.40989  0.01840  0.02288  1.0000
  C   C22       1.0  0.41899  0.01139  0.03282  1.0000
  C   C23       1.0  0.42396  0.02280  0.03820  1.0000
  H   H21       1.0  0.40874  0.06241  0.01952  1.0000
  H   H22       1.0  0.39912  0.04231  0.01042  1.0000
  H   H23       1.0  0.47512  0.17364  0.08967  1.0000
  H   H24       1.0  0.43073  0.01734  0.04604  1.0000
  C   C24       1.0  0.40373  0.14468  0.05557  1.0000
  C   C25       1.0  0.39422  0.15943  0.06096  1.0000
  C   C26       1.0  0.40175  0.16554  0.06863  1.0000
  C   C27       1.0  0.41869  0.15667  0.07109  1.0000
  C   C28       1.0  0.42772  0.14152  0.06617  1.0000
  C   C29       1.0  0.42044  0.13568  0.05832  1.0000
  H   H25       1.0  0.38120  0.16640  0.05895  1.0000
  H   H26       1.0  0.39462  0.17721  0.07245  1.0000
  H   H27       1.0  0.44049  0.13426  0.06842  1.0000
  H   H28       1.0  0.42780  0.12418  0.05445  1.0000
  H   H29       1.0  0.46615  0.13540  0.05382  1.0000
  C   C30       1.0  0.36925  0.16505  0.18376  1.0000
  H   H30       1.0  0.42774  0.16716  0.03981  1.0000
  H   H31       1.0  0.45847  0.16440  0.02792  1.0000
  H   H32       1.0  0.38287  0.19330  0.16930  1.0000
  S   S16       1.0  0.30985  0.20660  0.19950  1.0000
  Fe  Fe9       1.0  0.41441  0.22294  0.09540  1.0000
  H   H33       1.0  0.43864  0.18812  0.05489  1.0000
  H   H34       1.0  0.43509  0.24067  0.10419  1.0000
  H   H35       1.0  0.42185  0.99720  0.03657  1.0000
  H   H36       1.0  0.45643  0.23143  0.13679  1.0000
  H   H37       1.0  0.37134  0.15760  0.17620  1.0000
  H   H38       1.0  0.45270  0.21158  0.02979  1.0000
  C   C31       1.0  0.46296  0.14386  0.10176  1.0000
  H   H39       1.0  0.49335  0.15045  0.10359  1.0000
  H   H40       1.0  0.36949  0.22597  0.11656  1.0000
  H   H41       1.0  0.47994  0.08513  0.03903  1.0000
  C   C32       1.0  0.48713  0.07186  0.03695  1.0000
  H   H42       1.0  0.42267  0.02521  0.99226  1.0000
  H   H43       1.0  0.47024  0.18189  0.02469  1.0000
  H   H44       1.0  0.46173  0.18540  0.04655  1.0000
  H   H45       1.0  0.32053  0.22390  0.15518  1.0000
  S   S17       1.0  0.49248  0.15556  0.05068  1.0000
  H   H46       1.0  0.35501  0.07646  0.07404  1.0000
  C   C33       1.0  0.35688  0.19294  0.19050  1.0000
  H   H47       1.0  0.37598  0.06312  0.07766  1.0000
  C   C34       1.0  0.45688  0.17910  0.02550  1.0000
  H   H48       1.0  0.45071  0.14685  0.09785  1.0000
  C   C35       1.0  0.44873  0.18185  0.04741  1.0000
  H   H49       1.0  0.44579  0.21185  0.12783  1.0000
  N   N2        1.0  0.44292  0.18745  0.03519  1.0000
  S   S18       1.0  0.49205  0.23376  0.13703  1.0000
  C   C36       1.0  0.34538  0.24078  0.12673  1.0000
  H   H50       1.0  0.48287  0.11892  0.08884  1.0000
  H   H51       1.0  0.33371  0.19709  0.17557  1.0000
  H   H52       1.0  0.47044  0.23502  0.10629  1.0000
  H   H53       1.0  0.34270  0.17590  0.17113  1.0000
  H   H54       1.0  0.38649  0.05808  0.05562  1.0000
  H   H55       1.0  0.40441  0.08874  0.05119  1.0000
  H   H56       1.0  0.37169  0.18580  0.16040  1.0000
  H   H57       1.0  0.36536  0.07123  0.05205  1.0000
  H   H58       1.0  0.36848  0.08539  0.08033  1.0000
  H   H59       1.0  0.35488  0.10230  0.05575  1.0000
  H   H60       1.0  0.39723  0.09292  0.06688  1.0000
  H   H61       1.0  0.40472  0.07039  0.06441  1.0000
  C   C37       1.0  0.39700  0.08392  0.06090  1.0000
  H   H62       1.0  0.36998  0.19338  0.19213  1.0000
  H   H63       1.0  0.36860  0.11118  0.06191  1.0000
  H   H64       1.0  0.34929  0.20688  0.18823  1.0000
  H   H65       1.0  0.38618  0.07655  0.04249  1.0000
  H   H66       1.0  0.37574  0.10745  0.04615  1.0000
  N   N3        1.0  0.37849  0.08364  0.06076  1.0000
  C   C38       1.0  0.36905  0.07685  0.07378  1.0000
  H   H67       1.0  0.49355  0.13359  0.07558  1.0000
  H   H68       1.0  0.48676  0.07231  0.02700  1.0000
  H   H69       1.0  0.47147  0.13547  0.99054  1.0000
  H   H70       1.0  0.45345  0.18384  0.01599  1.0000
  H   H71       1.0  0.33317  0.17707  0.18747  1.0000
  C   C39       1.0  0.36946  0.19270  0.16830  1.0000
  H   H72       1.0  0.36185  0.15773  0.19271  1.0000
  S   S19       1.0  0.49862  0.00880  0.03730  1.0000
  C   C40       1.0  0.49693  0.13522  0.02044  1.0000
  H   H73       1.0  0.36216  0.20658  0.16523  1.0000
  C   C41       1.0  0.44009  0.20700  0.03110  1.0000
  C   C42       1.0  0.47232  0.19653  0.12190  1.0000
  C   C43       1.0  0.28991  0.19323  0.22261  1.0000
  H   H74       1.0  0.48171  0.23419  0.07225  1.0000
  N   N4        1.0  0.47912  0.14546  0.09152  1.0000
  H   H75       1.0  0.46974  0.13600  0.07878  1.0000
  C   C44       1.0  0.35874  0.22546  0.12493  1.0000
  C   C45       1.0  0.48439  0.21891  0.13177  1.0000
  H   H76       1.0  0.48354  0.09610  0.99002  1.0000
  C   C46       1.0  0.47704  0.16378  0.08380  1.0000
  S   S20       1.0  0.33485  0.23939  0.17175  1.0000
  H   H77       1.0  0.48902  0.16536  0.07596  1.0000
  H   H78       1.0  0.47935  0.06187  0.04324  1.0000
  C   C47       1.0  0.33196  0.24036  0.13785  1.0000
  H   H79       1.0  0.23343  0.23713  0.22182  1.0000
  H   H80       1.0  0.46627  0.22914  0.08712  1.0000
  H   H81       1.0  0.42036  0.99462  0.99310  1.0000
  C   C48       1.0  0.49061  0.19405  0.12159  1.0000
  N   N5        1.0  0.48914  0.23770  0.08837  1.0000
  C   C49       1.0  0.49500  0.14134  0.09717  1.0000
  H   H82       1.0  0.38996  0.23855  0.14247  1.0000
  C   C50       1.0  0.29590  0.21657  0.23484  1.0000
  C   C51       1.0  0.28181  0.19291  0.23549  1.0000
  H   H83       1.0  0.49825  0.05785  0.05891  1.0000
  C   C52       1.0  0.49665  0.20540  0.12630  1.0000
  H   H84       1.0  0.49121  0.20976  0.09638  1.0000
  H   H85       1.0  0.49801  0.11057  0.98877  1.0000
  C   C53       1.0  0.49988  0.21937  0.09101  1.0000
  C   C54       1.0  0.49916  0.14521  0.02822  1.0000
  H   H86       1.0  0.49911  0.08106  0.05406  1.0000
  H   H87       1.0  0.50022  0.18360  0.11740  1.0000
  C   C55       1.0  0.47299  0.99194  0.03689  1.0000
  Fe  Fe10      1.0  0.42600  0.06594  0.43967  1.0000
  S   S21       1.0  0.45380  0.05715  0.42877  1.0000
  S   S22       1.0  0.41847  0.06088  0.46101  1.0000
  Fe  Fe11      1.0  0.40993  0.07951  0.41593  1.0000
  S   S23       1.0  0.43670  0.07253  0.40290  1.0000
  S   S24       1.0  0.38244  0.08993  0.41088  1.0000
  Fe  Fe12      1.0  0.44072  0.04727  0.41750  1.0000
  S   S25       1.0  0.45089  0.02033  0.41277  1.0000
  Fe  Fe13      1.0  0.44766  0.08321  0.41519  1.0000
  S   S26       1.0  0.47006  0.09791  0.40619  1.0000
  S   S27       1.0  0.41335  0.05333  0.42977  1.0000
  S   S28       1.0  0.42051  0.09287  0.42692  1.0000
  N   N6        1.0  0.20862  0.02602  0.35302  1.0000
  H   H88       1.0  0.16049  0.01527  0.30971  1.0000
  H   H89       1.0  0.12762  0.17267  0.28373  1.0000
  H   H90       1.0  0.27678  0.10686  0.27821  1.0000
  Fe  Fe14      1.0  0.33931  0.06196  0.36287  1.0000
  S   S29       1.0  0.34958  0.05528  0.34359  1.0000
  S   S30       1.0  0.36468  0.06408  0.36757  1.0000
  Fe  Fe15      1.0  0.30102  0.06005  0.36265  1.0000
  S   S31       1.0  0.30917  0.05366  0.34332  1.0000
  S   S32       1.0  0.27201  0.05925  0.37203  1.0000
  Fe  Fe16      1.0  0.33266  0.03510  0.35054  1.0000
  C   C56       1.0  0.28506  0.01043  0.38529  1.0000
  Fe  Fe17      1.0  0.32512  0.07476  0.33853  1.0000
  S   S33       1.0  0.32841  0.09538  0.32038  1.0000
  S   S34       1.0  0.32386  0.04010  0.37021  1.0000
  S   S35       1.0  0.31545  0.08271  0.35735  1.0000
  H   H91       1.0  0.16301  0.01773  0.29299  1.0000
  Fe  Fe18      1.0  0.24563  0.15162  0.27093  1.0000
  S   S36       1.0  0.22805  0.15329  0.29009  1.0000
  S   S37       1.0  0.24881  0.12805  0.26260  1.0000
  S   S38       1.0  0.24045  0.19008  0.28727  1.0000
  Fe  Fe19      1.0  0.25075  0.16100  0.29406  1.0000
  S   S39       1.0  0.25518  0.14950  0.31391  1.0000
  Fe  Fe20      1.0  0.21933  0.18204  0.28161  1.0000
  S   S40       1.0  0.19003  0.19453  0.28705  1.0000
  S   S41       1.0  0.26933  0.15695  0.27554  1.0000
  S   S42       1.0  0.03350  0.21299  0.34094  1.0000
  Fe  Fe21      1.0  0.03709  0.22831  0.30455  1.0000
  S   S43       1.0  0.06155  0.21900  0.31284  1.0000
  H   H92       1.0  0.08090  0.01486  0.32083  1.0000
  Fe  Fe22      1.0  0.04797  0.19748  0.32564  1.0000
  S   S44       1.0  0.06233  0.16855  0.32875  1.0000
  H   H93       1.0  0.44799  0.15265  0.47619  1.0000
  H   H94       1.0  0.16219  0.05404  0.30818  1.0000
  S   S45       1.0  0.02461  0.20541  0.31598  1.0000
  Fe  Fe23      1.0  0.17961  0.09122  0.30924  1.0000
  S   S46       1.0  0.18659  0.11319  0.31435  1.0000
  S   S47       1.0  0.18681  0.08645  0.28951  1.0000
  Fe  Fe24      1.0  0.16529  0.07536  0.33642  1.0000
  S   S48       1.0  0.17100  0.09625  0.34408  1.0000
  S   S49       1.0  0.15736  0.04978  0.34806  1.0000
  Fe  Fe25      1.0  0.15978  0.11538  0.32778  1.0000
  S   S50       1.0  0.14604  0.14427  0.32755  1.0000
  Fe  Fe26      1.0  0.19729  0.09269  0.33005  1.0000
  S   S51       1.0  0.22486  0.09509  0.33047  1.0000
  S   S52       1.0  0.15184  0.09477  0.32133  1.0000
  S   S53       1.0  0.19259  0.07044  0.32371  1.0000
  N   N7        1.0  0.44433  0.00523  0.46012  1.0000
  S   S54       1.0  0.38025  0.00824  0.40451  1.0000
  H   H95       1.0  0.28444  0.09393  0.31116  1.0000
  H   H96       1.0  0.07549  0.00749  0.35576  1.0000
  H   H97       1.0  0.47069  0.12781  0.45057  1.0000
  H   H98       1.0  0.29577  0.08069  0.29951  1.0000
  H   H99       1.0  0.16649  0.05683  0.28529  1.0000
  C   C57       1.0  0.08568  0.16223  0.32816  1.0000
  C   C58       1.0  0.09426  0.14428  0.32871  1.0000
  C   C59       1.0  0.11276  0.13865  0.32849  1.0000
  C   C60       1.0  0.12279  0.15093  0.32783  1.0000
  C   C61       1.0  0.11427  0.16892  0.32720  1.0000
  C   C62       1.0  0.09578  0.17458  0.32731  1.0000
  H   H100      1.0  0.08651  0.13467  0.32941  1.0000
  H   H101      1.0  0.11914  0.12476  0.32903  1.0000
  H   H102      1.0  0.12193  0.17846  0.32679  1.0000
  H   H103      1.0  0.08923  0.18839  0.32702  1.0000
  C   C63       1.0  0.18514  0.21616  0.27792  1.0000
  H   H104      1.0  0.49292  0.12175  0.46976  1.0000
  H   H105      1.0  0.20718  0.14053  0.34649  1.0000
  H   H106      1.0  0.43671  0.12931  0.47174  1.0000
  C   C64       1.0  0.45549  0.07271  0.48123  1.0000
  C   C65       1.0  0.23061  0.11743  0.26871  1.0000
  C   C66       1.0  0.21464  0.12555  0.27588  1.0000
  C   C67       1.0  0.20095  0.11619  0.28194  1.0000
  C   C68       1.0  0.20304  0.09879  0.28066  1.0000
  C   C69       1.0  0.21858  0.09098  0.27289  1.0000
  C   C70       1.0  0.23240  0.10028  0.26696  1.0000
  H   H107      1.0  0.21284  0.13906  0.27671  1.0000
  H   H108      1.0  0.18873  0.12242  0.28758  1.0000
  H   H109      1.0  0.22021  0.07757  0.27180  1.0000
  H   H110      1.0  0.24465  0.09405  0.26125  1.0000
  H   H111      1.0  0.20548  0.04602  0.36346  1.0000
  Fe  Fe27      1.0  0.01138  0.22284  0.32996  1.0000
  N   N8        1.0  0.17717  0.03340  0.29808  1.0000
  C   C71       1.0  0.48304  0.09942  0.43847  1.0000
  C   C72       1.0  0.30849  0.11123  0.31869  1.0000
  C   C73       1.0  0.29386  0.11221  0.32896  1.0000
  C   C74       1.0  0.27769  0.12431  0.32744  1.0000
  C   C75       1.0  0.27601  0.13536  0.31560  1.0000
  C   C76       1.0  0.29076  0.13469  0.30535  1.0000
  C   C77       1.0  0.30706  0.12273  0.30693  1.0000
  H   H112      1.0  0.29496  0.10363  0.33809  1.0000
  H   H113      1.0  0.26635  0.12486  0.33542  1.0000
  H   H114      1.0  0.28966  0.14343  0.29624  1.0000
  H   H115      1.0  0.31843  0.12214  0.29898  1.0000
  C   C78       1.0  0.25807  0.06974  0.36104  1.0000
  C   C79       1.0  0.24012  0.06806  0.36376  1.0000
  C   C80       1.0  0.22944  0.07606  0.35461  1.0000
  C   C81       1.0  0.23681  0.08556  0.34273  1.0000
  C   C82       1.0  0.25452  0.08758  0.34026  1.0000
  C   C83       1.0  0.26505  0.07974  0.34933  1.0000
  H   H116      1.0  0.23449  0.06066  0.37292  1.0000
  H   H117      1.0  0.21554  0.07513  0.35681  1.0000
  H   H118      1.0  0.26020  0.09530  0.33128  1.0000
  H   H119      1.0  0.27860  0.08157  0.34730  1.0000
  H   H120      1.0  0.13374  0.06466  0.33035  1.0000
  C   C84       1.0  0.48118  0.10061  0.41697  1.0000
  H   H121      1.0  0.21624  0.03236  0.33264  1.0000
  H   H122      1.0  0.41889  0.00126  0.45924  1.0000
  H   H123      1.0  0.12479  0.22000  0.29890  1.0000
  C   C85       1.0  0.45308  0.00201  0.44726  1.0000
  C   C86       1.0  0.47394  0.09723  0.43003  1.0000
  H   H124      1.0  0.15311  0.18875  0.29142  1.0000
  H   H125      1.0  0.28500  0.00252  0.39513  1.0000
  H   H126      1.0  0.41226  0.06919  0.48539  1.0000
  H   H127      1.0  0.46117  0.09322  0.43360  1.0000
  C   C87       1.0  0.43274  0.01655  0.40853  1.0000
  C   C88       1.0  0.41992  0.03099  0.40395  1.0000
  C   C89       1.0  0.17862  0.04583  0.28558  1.0000
  H   H128      1.0  0.42179  0.04437  0.40220  1.0000
  C   C90       1.0  0.15130  0.14581  0.29437  1.0000
  C   C91       1.0  0.37746  0.08303  0.39873  1.0000
  C   C92       1.0  0.39113  0.07549  0.38966  1.0000
  C   C93       1.0  0.38685  0.06988  0.38018  1.0000
  C   C94       1.0  0.36890  0.07150  0.37977  1.0000
  C   C95       1.0  0.35515  0.07919  0.38877  1.0000
  C   C96       1.0  0.35945  0.08507  0.39816  1.0000
  H   H129      1.0  0.40502  0.07399  0.38992  1.0000
  H   H130      1.0  0.39758  0.06401  0.37323  1.0000
  H   H131      1.0  0.34127  0.08063  0.38849  1.0000
  H   H132      1.0  0.34880  0.09105  0.40510  1.0000
  H   H133      1.0  0.41120  0.00015  0.36697  1.0000
  C   C97       1.0  0.43263  0.06629  0.46841  1.0000
  C   C98       1.0  0.45054  0.06661  0.46245  1.0000
  C   C99       1.0  0.14097  0.01324  0.33730  1.0000
  H   H134      1.0  0.45571  0.06419  0.45296  1.0000
  H   H135      1.0  0.28154  0.08295  0.28165  1.0000
  C   C100      1.0  0.22725  0.01801  0.35462  1.0000
  H   H136      1.0  0.22514  0.15021  0.33594  1.0000
  H   H137      1.0  0.22028  0.17121  0.31582  1.0000
  C   C101      1.0  0.46758  0.13760  0.45667  1.0000
  H   H138      1.0  0.23703  0.02508  0.34725  1.0000
  H   H139      1.0  0.19035  0.05216  0.28339  1.0000
  H   H140      1.0  0.36409  0.02112  0.37967  1.0000
  H   H141      1.0  0.10166  0.22583  0.29759  1.0000
  C   C102      1.0  0.38312  0.01736  0.35638  1.0000
  H   H142      1.0  0.42132  0.02403  0.45431  1.0000
  H   H143      1.0  0.45025  0.01420  0.43982  1.0000
  H   H144      1.0  0.14882  0.03507  0.30079  1.0000
  C   C103      1.0  0.10399  0.23062  0.31995  1.0000
  C   C104      1.0  0.17306  0.16216  0.28005  1.0000
  H   H145      1.0  0.36685  0.05233  0.44753  1.0000
  C   C105      1.0  0.31530  0.00533  0.32444  1.0000
  C   C106      1.0  0.42612  0.06942  0.48074  1.0000
  C   C107      1.0  0.44940  0.11979  0.47346  1.0000
  H   H146      1.0  0.32532  0.02507  0.32874  1.0000
  H   H147      1.0  0.34937  0.06477  0.43914  1.0000
  H   H148      1.0  0.45216  0.10965  0.46765  1.0000
  C   C108      1.0  0.08158  0.00721  0.34561  1.0000
  N   N9        1.0  0.46451  0.12888  0.47028  1.0000
  H   H149      1.0  0.22890  0.01842  0.36407  1.0000
  H   H150      1.0  0.10028  0.23837  0.32754  1.0000
  H   H151      1.0  0.19308  0.03090  0.33894  1.0000
  H   H152      1.0  0.33556  0.03810  0.44575  1.0000
  C   C109      1.0  0.49954  0.10470  0.43395  1.0000
  S   S55       1.0  0.34315  0.00644  0.34954  1.0000
  H   H153      1.0  0.29833  0.22559  0.23956  1.0000
  H   H154      1.0  0.15381  0.13661  0.28788  1.0000
  H   H155      1.0  0.29267  0.02097  0.38367  1.0000
  H   H156      1.0  0.25366  0.11160  0.31098  1.0000
  C   C110      1.0  0.43022  0.99927  0.41062  1.0000
  C   C111      1.0  0.19381  0.01946  0.29822  1.0000
  C   C112      1.0  0.20701  0.02509  0.34038  1.0000
  H   H157      1.0  0.38170  0.03076  0.35820  1.0000
  H   H158      1.0  0.19618  0.01170  0.29081  1.0000
  S   S56       1.0  0.12002  0.01420  0.32093  1.0000
  H   H159      1.0  0.39408  0.03942  0.39890  1.0000
  C   C113      1.0  0.32445  0.01126  0.33107  1.0000
  H   H160      1.0  0.24757  0.08037  0.30385  1.0000
  H   H161      1.0  0.21147  0.21461  0.26569  1.0000
  H   H162      1.0  0.24318  0.11287  0.29833  1.0000
  H   H163      1.0  0.20577  0.02531  0.29643  1.0000
  H   H164      1.0  0.39011  0.03400  0.42567  1.0000
  H   H165      1.0  0.30900  0.01459  0.31707  1.0000
  C   C114      1.0  0.16800  0.22689  0.28071  1.0000
  H   H166      1.0  0.25934  0.07840  0.31590  1.0000
  H   H167      1.0  0.26982  0.06659  0.30334  1.0000
  C   C115      1.0  0.19814  0.22272  0.26781  1.0000
  H   H168      1.0  0.25894  0.09538  0.28171  1.0000
  H   H169      1.0  0.14378  0.18490  0.27308  1.0000
  H   H170      1.0  0.44698  0.11272  0.48361  1.0000
  S   S57       1.0  0.23510  0.17993  0.26192  1.0000
  S   S58       1.0  0.27366  0.20594  0.25728  1.0000
  H   H171      1.0  0.26192  0.12318  0.29529  1.0000
  H   H172      1.0  0.29269  0.10444  0.29509  1.0000
  Fe  Fe28      1.0  0.25724  0.18557  0.26824  1.0000
  N   N10       1.0  0.20081  0.15719  0.32902  1.0000
  C   C116      1.0  0.18118  0.16051  0.33409  1.0000
  C   C117      1.0  0.20558  0.17325  0.31986  1.0000
  C   C118      1.0  0.20617  0.14212  0.32257  1.0000
  H   H173      1.0  0.17661  0.17163  0.33920  1.0000
  H   H174      1.0  0.17700  0.14853  0.34082  1.0000
  H   H175      1.0  0.17369  0.16400  0.32634  1.0000
  H   H176      1.0  0.20174  0.18491  0.32439  1.0000
  H   H177      1.0  0.19879  0.17686  0.31174  1.0000
  H   H178      1.0  0.19973  0.14514  0.31434  1.0000
  H   H179      1.0  0.20227  0.12996  0.32915  1.0000
  H   H180      1.0  0.18598  0.04980  0.30652  1.0000
  C   C119      1.0  0.15089  0.17520  0.29640  1.0000
  C   C120      1.0  0.45144  0.01912  0.46239  1.0000
  C   C121      1.0  0.46021  0.14239  0.47804  1.0000
  H   H181      1.0  0.39692  0.01602  0.37618  1.0000
  C   C122      1.0  0.17456  0.04329  0.30808  1.0000
  N   N11       1.0  0.29300  0.99908  0.37585  1.0000
  H   H182      1.0  0.18274  0.15692  0.28645  1.0000
  H   H183      1.0  0.18023  0.03896  0.27779  1.0000
  C   C123      1.0  0.07881  0.00141  0.32624  1.0000
  H   H184      1.0  0.05378  0.02760  0.33547  1.0000
  N   N12       1.0  0.38292  0.00359  0.36823  1.0000
  H   H185      1.0  0.44442  0.02266  0.47170  1.0000
  C   C124      1.0  0.14909  0.02132  0.34332  1.0000
  C   C125      1.0  0.13012  0.02376  0.32887  1.0000
  C   C126      1.0  0.12758  0.04230  0.32640  1.0000
  H   H186      1.0  0.19007  0.05122  0.35322  1.0000
  N   N13       1.0  0.35325  0.11623  0.34149  1.0000
  C   C127      1.0  0.36605  0.12817  0.33609  1.0000
  C   C128      1.0  0.33601  0.12500  0.33756  1.0000
  C   C129      1.0  0.35028  0.11206  0.35550  1.0000
  C   C130      1.0  0.36072  0.09960  0.33677  1.0000
  H   H187      1.0  0.37923  0.12186  0.33882  1.0000
  H   H188      1.0  0.36087  0.14085  0.33948  1.0000
  H   H189      1.0  0.36857  0.13156  0.32552  1.0000
  H   H190      1.0  0.32602  0.11637  0.34147  1.0000
  H   H191      1.0  0.32997  0.13771  0.34082  1.0000
  H   H192      1.0  0.33774  0.12794  0.32703  1.0000
  H   H193      1.0  0.34093  0.10282  0.35989  1.0000
  H   H194      1.0  0.34452  0.12424  0.35946  1.0000
  H   H195      1.0  0.36304  0.10537  0.35877  1.0000
  H   H196      1.0  0.35116  0.09060  0.34046  1.0000
  H   H197      1.0  0.37346  0.09223  0.33985  1.0000
  H   H198      1.0  0.36331  0.10213  0.32622  1.0000
  N   N14       1.0  0.36221  0.03914  0.43466  1.0000
  C   C131      1.0  0.38031  0.02746  0.43335  1.0000
  C   C132      1.0  0.36269  0.05542  0.43830  1.0000
  C   C133      1.0  0.34937  0.02969  0.44455  1.0000
  C   C134      1.0  0.35659  0.04398  0.42240  1.0000
  H   H199      1.0  0.38040  0.01479  0.43093  1.0000
  H   H200      1.0  0.38542  0.02422  0.44221  1.0000
  C   C135      1.0  0.20414  0.04480  0.35411  1.0000
  C   C136      1.0  0.39812  0.00309  0.37368  1.0000
  H   H201      1.0  0.37243  0.06271  0.43109  1.0000
  H   H202      1.0  0.46792  0.99773  0.44612  1.0000
  H   H203      1.0  0.41761  0.01354  0.47080  1.0000
  H   H204      1.0  0.35326  0.02584  0.45392  1.0000
  H   H205      1.0  0.16034  0.13967  0.30115  1.0000
  N   N15       1.0  0.15429  0.16363  0.28733  1.0000
  H   H206      1.0  0.46613  0.01483  0.46212  1.0000
  H   H207      1.0  0.14299  0.99892  0.33926  1.0000
  N   N16       1.0  0.26883  0.09472  0.29793  1.0000
  C   C137      1.0  0.25634  0.11131  0.30075  1.0000
  C   C138      1.0  0.26107  0.07930  0.30557  1.0000
  C   C139      1.0  0.28619  0.09336  0.30106  1.0000
  C   C140      1.0  0.27169  0.09494  0.28429  1.0000
  H   H208      1.0  0.34878  0.01726  0.44211  1.0000
  H   H209      1.0  0.47951  0.10973  0.48328  1.0000
  C   C141      1.0  0.21029  0.15276  0.33953  1.0000
  H   H210      1.0  0.20658  0.16377  0.34468  1.0000
  Fe  Fe29      1.0  0.04549  0.23524  0.32736  1.0000
  C   C142      1.0  0.40428  0.02823  0.40197  1.0000
  H   H211      1.0  0.15732  0.01314  0.34993  1.0000
  H   H212      1.0  0.25112  0.22761  0.23841  1.0000
  H   H213      1.0  0.11531  0.21932  0.32205  1.0000
  H   H214      1.0  0.17567  0.17535  0.27440  1.0000
  H   H215      1.0  0.35563  0.03204  0.41952  1.0000
  H   H216      1.0  0.32006  0.99999  0.37548  1.0000
  C   C143      1.0  0.46199  0.06959  0.46891  1.0000
  H   H217      1.0  0.22099  0.13873  0.31903  1.0000
  C   C144      1.0  0.13593  0.05034  0.33223  1.0000
  H   H218      1.0  0.36641  0.05051  0.41465  1.0000
  H   H219      1.0  0.16006  0.16972  0.30317  1.0000
  H   H220      1.0  0.47147  0.14930  0.47599  1.0000
  H   H221      1.0  0.47724  0.09705  0.44852  1.0000
  H   H222      1.0  0.39856  0.99274  0.38256  1.0000
  H   H223      1.0  0.45559  0.14778  0.45429  1.0000
  C   C145      1.0  0.48090  0.11570  0.47297  1.0000
  H   H224      1.0  0.15799  0.22195  0.28860  1.0000
  H   H225      1.0  0.21309  0.05265  0.34656  1.0000
  H   H226      1.0  0.14416  0.16301  0.27153  1.0000
  C   C146      1.0  0.14668  0.03989  0.34073  1.0000
  H   H227      1.0  0.47598  0.06929  0.46438  1.0000
  H   H228      1.0  0.35415  0.00827  0.37354  1.0000
  C   C147      1.0  0.11325  0.23133  0.29744  1.0000
  H   H229      1.0  0.08391  0.02074  0.34060  1.0000
  H   H230      1.0  0.21034  0.01111  0.33923  1.0000
  H   H231      1.0  0.09509  0.99820  0.34516  1.0000
  H   H232      1.0  0.17328  0.03441  0.31768  1.0000
  H   H233      1.0  0.13690  0.17650  0.30214  1.0000
  H   H234      1.0  0.19685  0.01668  0.37264  1.0000
  C   C148      1.0  0.49780  0.10563  0.41245  1.0000
  C   C149      1.0  0.36585  0.00794  0.37737  1.0000
  C   C150      1.0  0.41452  0.99654  0.40860  1.0000
  H   H235      1.0  0.11916  0.05051  0.31991  1.0000
  C   C151      1.0  0.40127  0.01109  0.40474  1.0000
  H   H236      1.0  0.47923  0.14417  0.45384  1.0000
  H   H237      1.0  0.34330  0.05334  0.42280  1.0000
  H   H238      1.0  0.17634  0.15315  0.27332  1.0000
  S   S59       1.0  0.03625  0.23683  0.28399  1.0000
  H   H239      1.0  0.09226  0.99239  0.32541  1.0000
  H   H240      1.0  0.48152  0.05321  0.40293  1.0000
  C   C152      1.0  0.16172  0.02503  0.30047  1.0000
  H   H241      1.0  0.19315  0.00989  0.30756  1.0000
  H   H242      1.0  0.44938  0.03159  0.45505  1.0000
  H   H243      1.0  0.30193  0.01969  0.36053  1.0000
  C   C153      1.0  0.14190  0.17140  0.27853  1.0000
  H   H244      1.0  0.48855  0.03139  0.41207  1.0000
  C   C154      1.0  0.19607  0.01626  0.36296  1.0000
  H   H245      1.0  0.27319  0.18370  0.24065  1.0000
  C   C155      1.0  0.28473  0.20471  0.24158  1.0000
  C   C156      1.0  0.49336  0.04206  0.40417  1.0000
  H   H246      1.0  0.13729  0.14644  0.30007  1.0000
  C   C157      1.0  0.42471  0.01126  0.46113  1.0000
  H   H247      1.0  0.27098  0.01739  0.38472  1.0000
  H   H248      1.0  0.23115  0.00383  0.35381  1.0000
  C   C158      1.0  0.33270  0.99923  0.34051  1.0000
  H   H249      1.0  0.04549  0.01413  0.35051  1.0000
  H   H250      1.0  0.18190  0.02197  0.36198  1.0000
  H   H251      1.0  0.48378  0.10457  0.46800  1.0000
  H   H252      1.0  0.19902  0.00202  0.36241  1.0000
  C   C159      1.0  0.29294  0.01019  0.36295  1.0000
  H   H253      1.0  0.37191  0.01814  0.35194  1.0000
  N   N17       1.0  0.07015  0.00142  0.33970  1.0000
  H   H254      1.0  0.11692  0.23956  0.28775  1.0000
  H   H255      1.0  0.37878  0.99775  0.45478  1.0000
  H   H256      1.0  0.04352  0.00983  0.33604  1.0000
  H   H257      1.0  0.27928  0.01813  0.36203  1.0000
  H   H258      1.0  0.39581  0.01455  0.34926  1.0000
  C   C160      1.0  0.05243  0.01379  0.34047  1.0000
  H   H259      1.0  0.48893  0.06519  0.41837  1.0000
  H   H260      1.0  0.29769  0.00193  0.35563  1.0000
  H   H261      1.0  0.00959  0.21238  0.29076  1.0000
  H   H262      1.0  0.09218  0.22501  0.32083  1.0000
  H   H263      1.0  0.36533  0.99787  0.38647  1.0000
  H   H264      1.0  0.13624  0.23863  0.30822  1.0000
  C   C161      1.0  0.19391  0.23985  0.26037  1.0000
  H   H265      1.0  0.00328  0.23175  0.27912  1.0000
  H   H266      1.0  0.49760  0.04372  0.42703  1.0000
  H   H267      1.0  0.49796  0.03676  0.39534  1.0000
  H   H268      1.0  0.07082  0.99681  0.32146  1.0000
  S   S60       1.0  0.38571  0.99213  0.47916  1.0000
  C   C162      1.0  0.24986  0.24187  0.23830  1.0000
  H   H269      1.0  0.00124  0.21048  0.27788  1.0000
  Fe  Fe30      1.0  0.47338  0.09056  0.52830  1.0000
  S   S61       1.0  0.45887  0.10677  0.51286  1.0000
  H   H270      1.0  0.20981  0.03625  0.59386  1.0000
  Fe  Fe31      1.0  0.44857  0.06446  0.53702  1.0000
  S   S62       1.0  0.43288  0.07842  0.52195  1.0000
  S   S63       1.0  0.44071  0.03981  0.55032  1.0000
  Fe  Fe32      1.0  0.45952  0.08060  0.50901  1.0000
  H   H271      1.0  0.41204  0.99852  0.54165  1.0000
  Fe  Fe33      1.0  0.43379  0.10300  0.52748  1.0000
  S   S64       1.0  0.40779  0.12308  0.53003  1.0000
  S   S65       1.0  0.47544  0.06448  0.52356  1.0000
  S   S66       1.0  0.44803  0.08899  0.54338  1.0000
  H   H272      1.0  0.37193  0.00530  0.55996  1.0000
  Fe  Fe34      1.0  0.17043  0.12493  0.65528  1.0000
  S   S67       1.0  0.18644  0.09780  0.66252  1.0000
  S   S68       1.0  0.14193  0.13377  0.66574  1.0000
  Fe  Fe35      1.0  0.20085  0.13384  0.63307  1.0000
  S   S69       1.0  0.21891  0.10739  0.63816  1.0000
  S   S70       1.0  0.20876  0.15606  0.61698  1.0000
  Fe  Fe36      1.0  0.19463  0.09587  0.64203  1.0000
  S   S71       1.0  0.19562  0.07279  0.63358  1.0000
  Fe  Fe37      1.0  0.20921  0.11190  0.65803  1.0000
  S   S72       1.0  0.23131  0.10747  0.66844  1.0000
  S   S73       1.0  0.17724  0.12214  0.63504  1.0000
  S   S74       1.0  0.19246  0.13910  0.65269  1.0000
  H   H273      1.0  0.49867  0.07393  0.54985  1.0000
  C   C163      1.0  0.47360  0.01324  0.50999  1.0000
  Fe  Fe38      1.0  0.06882  0.21325  0.64572  1.0000
  S   S75       1.0  0.05550  0.21017  0.66643  1.0000
  S   S76       1.0  0.09118  0.19549  0.63469  1.0000
  Fe  Fe39      1.0  0.03022  0.22566  0.65948  1.0000
  C   C164      1.0  0.09999  0.22851  0.59504  1.0000
  C   C165      1.0  0.32513  0.02728  0.60388  1.0000
  S   S77       1.0  0.04314  0.22626  0.63902  1.0000
  H   H274      1.0  0.44907  0.03427  0.52380  1.0000
  H   H275      1.0  0.25034  0.23016  0.72393  1.0000
  Fe  Fe40      1.0  0.28521  0.18453  0.67796  1.0000
  S   S78       1.0  0.30464  0.18073  0.65954  1.0000
  S   S79       1.0  0.25732  0.19852  0.67578  1.0000
  S   S80       1.0  0.28815  0.20351  0.68851  1.0000
  S   S81       1.0  0.49779  0.10121  0.52632  1.0000
  H   H276      1.0  0.07305  0.22070  0.61487  1.0000
  C   C166      1.0  0.24335  0.14107  0.68482  1.0000
  H   H277      1.0  0.34985  0.02835  0.54950  1.0000
  H   H278      1.0  0.10685  0.22176  0.66179  1.0000
  Fe  Fe41      1.0  0.31945  0.11009  0.62102  1.0000
  S   S82       1.0  0.32324  0.13402  0.60547  1.0000
  S   S83       1.0  0.30728  0.11115  0.64157  1.0000
  Fe  Fe42      1.0  0.33000  0.08513  0.60258  1.0000
  S   S84       1.0  0.33380  0.10717  0.58556  1.0000
  S   S85       1.0  0.33829  0.05723  0.59928  1.0000
  Fe  Fe43      1.0  0.34791  0.11607  0.59673  1.0000
  S   S86       1.0  0.37455  0.12389  0.58805  1.0000
  Fe  Fe44      1.0  0.30880  0.12307  0.59571  1.0000
  S   S87       1.0  0.28883  0.14314  0.58533  1.0000
  S   S88       1.0  0.34567  0.09301  0.61331  1.0000
  S   S89       1.0  0.30346  0.10006  0.61173  1.0000
  C   C167      1.0  0.30306  0.05398  0.60764  1.0000
  C   C168      1.0  0.32096  0.04545  0.60392  1.0000
  S   S90       1.0  0.47045  0.07547  0.48926  1.0000
  H   H279      1.0  0.29971  0.06805  0.60734  1.0000
  H   H280      1.0  0.46058  0.01535  0.48972  1.0000
  C   C169      1.0  0.31298  0.19839  0.71641  1.0000
  C   C170      1.0  0.32537  0.20655  0.71842  1.0000
  C   C171      1.0  0.22544  0.00907  0.61943  1.0000
  C   C172      1.0  0.44873  0.03777  0.51355  1.0000
  H   H281      1.0  0.31299  0.19767  0.70691  1.0000
  H   H282      1.0  0.33485  0.21218  0.71041  1.0000
  H   H283      1.0  0.45718  0.04774  0.50885  1.0000
  C   C173      1.0  0.30547  0.16123  0.65471  1.0000
  C   C174      1.0  0.31580  0.15850  0.64280  1.0000
  C   C175      1.0  0.31655  0.14311  0.63871  1.0000
  C   C176      1.0  0.30707  0.13033  0.64656  1.0000
  C   C177      1.0  0.29668  0.13309  0.65846  1.0000
  C   C178      1.0  0.29580  0.14855  0.66251  1.0000
  H   H284      1.0  0.32338  0.16821  0.63676  1.0000
  H   H285      1.0  0.32476  0.14101  0.62960  1.0000
  H   H286      1.0  0.28930  0.12326  0.66459  1.0000
  H   H287      1.0  0.28778  0.15053  0.67170  1.0000
  C   C179      1.0  0.18699  0.05406  0.64269  1.0000
  H   H288      1.0  0.33896  0.02061  0.60107  1.0000
  C   C180      1.0  0.31615  0.22247  0.65492  1.0000
  C   C181      1.0  0.17769  0.03440  0.66280  1.0000
  C   C182      1.0  0.18438  0.04966  0.65593  1.0000
  C   C183      1.0  0.33801  0.01284  0.57384  1.0000
  H   H289      1.0  0.18777  0.05783  0.66083  1.0000
  C   C184      1.0  0.21268  0.13557  0.67977  1.0000
  H   H290      1.0  0.19840  0.15784  0.68848  1.0000
  H   H291      1.0  0.20075  0.13341  0.67802  1.0000
  C   C185      1.0  0.26671  0.14655  0.59437  1.0000
  C   C186      1.0  0.25358  0.16039  0.58954  1.0000
  C   C187      1.0  0.23585  0.16327  0.59657  1.0000
  C   C188      1.0  0.23106  0.15211  0.60835  1.0000
  C   C189      1.0  0.24421  0.13837  0.61323  1.0000
  C   C190      1.0  0.26203  0.13571  0.60632  1.0000
  H   H292      1.0  0.25709  0.16885  0.58032  1.0000
  H   H293      1.0  0.22574  0.17397  0.59276  1.0000
  H   H294      1.0  0.24071  0.12990  0.62237  1.0000
  H   H295      1.0  0.27203  0.12513  0.61019  1.0000
  C   C191      1.0  0.12788  0.15081  0.65700  1.0000
  C   C192      1.0  0.13408  0.15794  0.64418  1.0000
  C   C193      1.0  0.12264  0.17153  0.63740  1.0000
  C   C194      1.0  0.10510  0.17836  0.64346  1.0000
  C   C195      1.0  0.09897  0.17142  0.65633  1.0000
  C   C196      1.0  0.11027  0.15751  0.66304  1.0000
  H   H296      1.0  0.14767  0.15301  0.63946  1.0000
  H   H297      1.0  0.12747  0.17686  0.62745  1.0000
  H   H298      1.0  0.08539  0.17650  0.66104  1.0000
  H   H299      1.0  0.10537  0.15200  0.67294  1.0000
  S   S91       1.0  0.22432  0.16978  0.69565  1.0000
  C   C197      1.0  0.34188  0.01813  0.55105  1.0000
  S   S92       1.0  0.28515  0.18029  0.72483  1.0000
  H   H300      1.0  0.25452  0.10053  0.64451  1.0000
  H   H301      1.0  0.11180  0.17701  0.68289  1.0000
  C   C198      1.0  0.21135  0.14936  0.68574  1.0000
  H   H302      1.0  0.32824  0.22745  0.65434  1.0000
  H   H303      1.0  0.21407  0.01397  0.62689  1.0000
  S   S93       1.0  0.41012  0.99549  0.50288  1.0000
  H   H304      1.0  0.11560  0.20098  0.65667  1.0000
  S   S94       1.0  0.27670  0.16464  0.69567  1.0000
  C   C199      1.0  0.06992  0.23331  0.60781  1.0000
  H   H305      1.0  0.42893  0.01604  0.51355  1.0000
  H   H306      1.0  0.23010  0.04928  0.60031  1.0000
  H   H307      1.0  0.43227  0.07541  0.49653  1.0000
  H   H308      1.0  0.17322  0.01960  0.63828  1.0000
  H   H309      1.0  0.20739  0.01390  0.60106  1.0000
  H   H310      1.0  0.18450  0.04679  0.62622  1.0000
  H   H311      1.0  0.27466  0.05476  0.63907  1.0000
  H   H312      1.0  0.30189  0.07563  0.63879  1.0000
  C   C200      1.0  0.18291  0.04317  0.63641  1.0000
  C   C201      1.0  0.39862  0.12333  0.54612  1.0000
  C   C202      1.0  0.38024  0.12391  0.55092  1.0000
  C   C203      1.0  0.37285  0.12364  0.56385  1.0000
  C   C204      1.0  0.38365  0.12343  0.57194  1.0000
  C   C205      1.0  0.40196  0.12316  0.56708  1.0000
  C   C206      1.0  0.40949  0.12286  0.55423  1.0000
  H   H313      1.0  0.37182  0.12423  0.54467  1.0000
  H   H314      1.0  0.35876  0.12398  0.56745  1.0000
  H   H315      1.0  0.41039  0.12311  0.57326  1.0000
  H   H316      1.0  0.42364  0.12270  0.55054  1.0000
  C   C207      1.0  0.39811  0.02573  0.53664  1.0000
  C   C208      1.0  0.39707  0.04336  0.53690  1.0000
  C   C209      1.0  0.40981  0.04763  0.54148  1.0000
  C   C210      1.0  0.42349  0.03426  0.54602  1.0000
  C   C211      1.0  0.42396  0.01648  0.54642  1.0000
  C   C212      1.0  0.41136  0.01221  0.54161  1.0000
  H   H317      1.0  0.38669  0.05382  0.53320  1.0000
  H   H318      1.0  0.40894  0.06132  0.54149  1.0000
  N   N18       1.0  0.34417  0.00444  0.56270  1.0000
  C   C213      1.0  0.29331  0.07038  0.64799  1.0000
  H   H319      1.0  0.26677  0.05411  0.66241  1.0000
  C   C214      1.0  0.22932  0.12439  0.67638  1.0000
  H   H320      1.0  0.13544  0.07583  0.68058  1.0000
  C   C215      1.0  0.27072  0.06953  0.63749  1.0000
  H   H321      1.0  0.34577  0.02298  0.57297  1.0000
  H   H322      1.0  0.27854  0.07493  0.62801  1.0000
  C   C216      1.0  0.22666  0.15224  0.68821  1.0000
  H   H323      1.0  0.32355  0.01952  0.57504  1.0000
  H   H324      1.0  0.25752  0.11835  0.67653  1.0000
  S   S95       1.0  0.38266  0.02113  0.52999  1.0000
  H   H325      1.0  0.11235  0.23385  0.59053  1.0000
  H   H326      1.0  0.15684  0.07392  0.66970  1.0000
  S   S96       1.0  0.24825  0.19906  0.70600  1.0000
  C   C217      1.0  0.29363  0.02610  0.61166  1.0000
  H   H327      1.0  0.25627  0.07352  0.63699  1.0000
  C   C218      1.0  0.45576  0.02713  0.49417  1.0000
  Fe  Fe45      1.0  0.24879  0.18015  0.69414  1.0000
  H   H328      1.0  0.31483  0.00353  0.60783  1.0000
  H   H329      1.0  0.34657  0.01215  0.54249  1.0000
  H   H330      1.0  0.27254  0.24047  0.65302  1.0000
  H   H331      1.0  0.25519  0.14306  0.68683  1.0000
  H   H332      1.0  0.14487  0.09514  0.67320  1.0000
  H   H333      1.0  0.09662  0.23191  0.61878  1.0000
  H   H334      1.0  0.33964  0.00278  0.58277  1.0000
  H   H335      1.0  0.24856  0.07297  0.65997  1.0000
  H   H336      1.0  0.22338  0.99640  0.61830  1.0000
  H   H337      1.0  0.01279  0.20160  0.64794  1.0000
  H   H338      1.0  0.29632  0.07539  0.65539  1.0000
  H   H339      1.0  0.17571  0.03098  0.67304  1.0000
  H   H340      1.0  0.12106  0.20491  0.69275  1.0000
  Fe  Fe46      1.0  0.06128  0.23703  0.66441  1.0000
  C   C219      1.0  0.24173  0.01526  0.59770  1.0000
  H   H341      1.0  0.13319  0.17665  0.68574  1.0000
  H   H342      1.0  0.47372  0.00880  0.52031  1.0000
  H   H343      1.0  0.31953  0.21430  0.64762  1.0000
  C   C220      1.0  0.11280  0.20945  0.68541  1.0000
  C   C221      1.0  0.12464  0.18158  0.67857  1.0000
  S   S97       1.0  0.27645  0.01416  0.61676  1.0000
  C   C222      1.0  0.26318  0.06889  0.65998  1.0000
  H   H344      1.0  0.26606  0.24089  0.71146  1.0000
  N   N19       1.0  0.33077  0.16947  0.56573  1.0000
  C   C223      1.0  0.31515  0.17564  0.57544  1.0000
  C   C224      1.0  0.33280  0.18395  0.55435  1.0000
  C   C225      1.0  0.32792  0.15406  0.56220  1.0000
  C   C226      1.0  0.34719  0.16418  0.57092  1.0000
  H   H345      1.0  0.31655  0.18753  0.57813  1.0000
  H   H346      1.0  0.31356  0.16511  0.58425  1.0000
  H   H347      1.0  0.30239  0.17904  0.57206  1.0000
  H   H348      1.0  0.32061  0.18827  0.55022  1.0000
  H   H349      1.0  0.33509  0.19576  0.55663  1.0000
  H   H350      1.0  0.34445  0.17962  0.54683  1.0000
  H   H351      1.0  0.33940  0.14902  0.55486  1.0000
  H   H352      1.0  0.31546  0.15746  0.55845  1.0000
  H   H353      1.0  0.32632  0.14292  0.57057  1.0000
  H   H354      1.0  0.34955  0.17531  0.57400  1.0000
  H   H355      1.0  0.35935  0.15979  0.56378  1.0000
  H   H356      1.0  0.34632  0.15294  0.57933  1.0000
  N   N20       1.0  0.39502  0.06570  0.57749  1.0000
  C   C227      1.0  0.40417  0.07703  0.56620  1.0000
  C   C228      1.0  0.38394  0.05675  0.57360  1.0000
  C   C229      1.0  0.38334  0.07682  0.58645  1.0000
  C   C230      1.0  0.40862  0.05218  0.58371  1.0000
  H   H357      1.0  0.41210  0.08449  0.56885  1.0000
  H   H358      1.0  0.39441  0.08692  0.56092  1.0000
  H   H359      1.0  0.41368  0.06899  0.55949  1.0000
  H   H360      1.0  0.37375  0.06656  0.56865  1.0000
  H   H361      1.0  0.39237  0.04791  0.56707  1.0000
  H   H362      1.0  0.37650  0.04844  0.58196  1.0000
  H   H363      1.0  0.37602  0.06875  0.59503  1.0000
  H   H364      1.0  0.37306  0.08724  0.58197  1.0000
  H   H365      1.0  0.39118  0.08379  0.58966  1.0000
  H   H366      1.0  0.41770  0.04361  0.57715  1.0000
  H   H367      1.0  0.40221  0.04335  0.59227  1.0000
  H   H368      1.0  0.41723  0.05850  0.58675  1.0000
  N   N21       1.0  0.24969  0.16115  0.64166  1.0000
  C   C231      1.0  0.26007  0.14268  0.64218  1.0000
  C   C232      1.0  0.25436  0.16892  0.65060  1.0000
  C   C233      1.0  0.23029  0.16119  0.64521  1.0000
  C   C234      1.0  0.25407  0.17173  0.62863  1.0000
  H   H369      1.0  0.25756  0.13445  0.65198  1.0000
  H   H370      1.0  0.27474  0.14218  0.63912  1.0000
  H   H371      1.0  0.25648  0.13621  0.63588  1.0000
  H   H372      1.0  0.24661  0.18278  0.65065  1.0000
  H   H373      1.0  0.25142  0.16113  0.66050  1.0000
  H   H374      1.0  0.26892  0.16915  0.64816  1.0000
  H   H375      1.0  0.22197  0.17487  0.64508  1.0000
  H   H376      1.0  0.22658  0.15313  0.65493  1.0000
  H   H377      1.0  0.22629  0.15554  0.63858  1.0000
  H   H378      1.0  0.24648  0.18575  0.62789  1.0000
  H   H379      1.0  0.25061  0.16625  0.62166  1.0000
  H   H380      1.0  0.26866  0.17179  0.62559  1.0000
  H   H381      1.0  0.25471  0.01225  0.60072  1.0000
  H   H382      1.0  0.14804  0.20225  0.67492  1.0000
  C   C235      1.0  0.26892  0.09571  0.64497  1.0000
  N   N22       1.0  0.08594  0.24109  0.60188  1.0000
  H   H383      1.0  0.10385  0.21558  0.60163  1.0000
  H   H384      1.0  0.44218  0.03392  0.49230  1.0000
  S   S98       1.0  0.07528  0.24136  0.67809  1.0000
  H   H385      1.0  0.13683  0.22121  0.66494  1.0000
  H   H386      1.0  0.19776  0.03084  0.61000  1.0000
  Fe  Fe47      1.0  0.25946  0.21597  0.68767  1.0000
  C   C236      1.0  0.44314  0.00945  0.51401  1.0000
  H   H387      1.0  0.14566  0.20046  0.65982  1.0000
  H   H388      1.0  0.46500  0.03636  0.48925  1.0000
  H   H389      1.0  0.48298  0.02248  0.50575  1.0000
  S   S99       1.0  0.07617  0.23889  0.64427  1.0000
  C   C237      1.0  0.31149  0.01761  0.60772  1.0000
  C   C238      1.0  0.24463  0.12705  0.67902  1.0000
  H   H390      1.0  0.31356  0.21320  0.66430  1.0000
  Fe  Fe48      1.0  0.39164  0.99660  0.52184  1.0000
  H   H391      1.0  0.29465  0.23373  0.72708  1.0000
  H   H392      1.0  0.26509  0.07393  0.66777  1.0000
  H   H393      1.0  0.27108  0.10105  0.65253  1.0000
  H   H394      1.0  0.27698  0.10171  0.63581  1.0000
  H   H395      1.0  0.24296  0.02488  0.58841  1.0000
  H   H396      1.0  0.11072  0.22421  0.68259  1.0000
  C   C239      1.0  0.17643  0.02784  0.64324  1.0000
  N   N23       1.0  0.27404  0.07610  0.64760  1.0000
  H   H397      1.0  0.29311  0.23889  0.67289  1.0000
  H   H398      1.0  0.29771  0.05564  0.65003  1.0000
  H   H399      1.0  0.43464  0.04428  0.51271  1.0000
  S   S100      1.0  0.34095  0.21804  0.73303  1.0000
  Fe  Fe49      1.0  0.27700  0.18519  0.70607  1.0000
  N   N24       1.0  0.45531  0.02189  0.50792  1.0000
  N   N25       1.0  0.13420  0.08609  0.66092  1.0000
  C   C240      1.0  0.11622  0.09765  0.66384  1.0000
  C   C241      1.0  0.14497  0.09514  0.64923  1.0000
  C   C242      1.0  0.13244  0.06909  0.65902  1.0000
  C   C243      1.0  0.14322  0.08257  0.67157  1.0000
  H   H400      1.0  0.10766  0.09126  0.67259  1.0000
  H   H401      1.0  0.10909  0.10081  0.65594  1.0000
  H   H402      1.0  0.11719  0.11055  0.66538  1.0000
  H   H403      1.0  0.14604  0.10826  0.65023  1.0000
  H   H404      1.0  0.15886  0.08712  0.64693  1.0000
  H   H405      1.0  0.13889  0.09759  0.64089  1.0000
  H   H406      1.0  0.14582  0.06025  0.65653  1.0000
  H   H407      1.0  0.12546  0.07125  0.65116  1.0000
  H   H408      1.0  0.12473  0.06166  0.66774  1.0000
  H   H409      1.0  0.27559  0.05095  0.61439  1.0000
  S   S101      1.0  0.16544  0.00438  0.66522  1.0000
  H   H410      1.0  0.09931  0.20634  0.68994  1.0000
  C   C244      1.0  0.28942  0.04431  0.61155  1.0000
  H   H411      1.0  0.13164  0.17488  0.67049  1.0000
  N   N26       1.0  0.12145  0.20114  0.67434  1.0000
  C   C245      1.0  0.10959  0.20704  0.66514  1.0000
  C   C246      1.0  0.22923  0.03893  0.60924  1.0000
  H   H412      1.0  0.09632  0.20335  0.66947  1.0000
  C   C247      1.0  0.13878  0.20650  0.66823  1.0000
  N   N27       1.0  0.30040  0.23719  0.65323  1.0000
  H   H413      1.0  0.28146  0.22097  0.66351  1.0000
  H   H414      1.0  0.43448  0.00606  0.55000  1.0000
  H   H415      1.0  0.47913  0.00139  0.50566  1.0000
  C   C248      1.0  0.20964  0.02604  0.60286  1.0000
  C   C249      1.0  0.17378  0.02342  0.65646  1.0000
  H   H416      1.0  0.27377  0.22024  0.72164  1.0000
  N   N28       1.0  0.22651  0.02234  0.60731  1.0000
  H   H417      1.0  0.22354  0.22623  0.69116  1.0000
  H   H418      1.0  0.31906  0.99745  0.56442  1.0000
  H   H419      1.0  0.19058  0.23586  0.69422  1.0000
  H   H420      1.0  0.23802  0.00600  0.62299  1.0000
  C   C250      1.0  0.26395  0.23318  0.72144  1.0000
  H   H421      1.0  0.24188  0.03658  0.61257  1.0000
  H   H422      1.0  0.24013  0.00271  0.59605  1.0000
  H   H423      1.0  0.21803  0.04461  0.61649  1.0000
  H   H424      1.0  0.32759  0.02508  0.55147  1.0000
  C   C251      1.0  0.30098  0.19069  0.72676  1.0000
  C   C252      1.0  0.32540  0.20763  0.73072  1.0000
  C   C253      1.0  0.28479  0.22982  0.65411  1.0000
  H   H425      1.0  0.09527  0.22563  0.58745  1.0000
  H   H426      1.0  0.45762  0.13627  0.48837  1.0000
  H   H427      1.0  0.44361  0.00410  0.52418  1.0000
  H   H428      1.0  0.44682  0.99795  0.50934  1.0000
  H   H429      1.0  0.06452  0.23026  0.60063  1.0000
  H   H430      1.0  0.28749  0.22170  0.64687  1.0000
  C   C254      1.0  0.21752  0.24023  0.68893  1.0000
  C   C255      1.0  0.36335  0.99558  0.56162  1.0000
  C   C256      1.0  0.43746  0.07289  0.48708  1.0000
  H   H431      1.0  0.20317  0.99347  0.58099  1.0000
  S   S102      1.0  0.00120  0.22331  0.66724  1.0000
  H   H432      1.0  0.30756  0.24166  0.63289  1.0000
  Fe  Fe50      1.0  0.44596  0.07058  0.91876  1.0000
  S   S103      1.0  0.41846  0.08799  0.92182  1.0000
  S   S104      1.0  0.47085  0.08046  0.90794  1.0000
  Fe  Fe51      1.0  0.43194  0.03624  0.92899  1.0000
  S   S105      1.0  0.40334  0.05070  0.93233  1.0000
  S   S106      1.0  0.44080  0.00669  0.93452  1.0000
  Fe  Fe52      1.0  0.41141  0.06875  0.91354  1.0000
  S   S107      1.0  0.40022  0.07614  0.89601  1.0000
  Fe  Fe53      1.0  0.41345  0.06817  0.94036  1.0000
  S   S108      1.0  0.39983  0.07079  0.96041  1.0000
  S   S109      1.0  0.43928  0.05246  0.90955  1.0000
  S   S110      1.0  0.44184  0.05257  0.93795  1.0000
  C   C257      1.0  0.36363  0.20419  0.89012  1.0000
  Fe  Fe54      1.0  0.38796  0.17391  0.86259  1.0000
  S   S111      1.0  0.41081  0.16452  0.84733  1.0000
  S   S112      1.0  0.37293  0.15923  0.88064  1.0000
  Fe  Fe55      1.0  0.39002  0.21268  0.85245  1.0000
  S   S113      1.0  0.41325  0.20703  0.83637  1.0000
  S   S114      1.0  0.32388  0.21884  0.79554  1.0000
  Fe  Fe56      1.0  0.39801  0.18842  0.83416  1.0000
  S   S115      1.0  0.39732  0.18901  0.81403  1.0000
  Fe  Fe57      1.0  0.42420  0.18375  0.85070  1.0000
  S   S116      1.0  0.45230  0.17461  0.85416  1.0000
  S   S117      1.0  0.37387  0.19596  0.84916  1.0000
  S   S118      1.0  0.40239  0.19124  0.86691  1.0000
  N   N29       1.0  0.44467  0.00953  0.89072  1.0000
  H   H433      1.0  0.45460  0.02585  0.87285  1.0000
  H   H434      1.0  0.41627  0.03432  0.95921  1.0000
  H   H435      1.0  0.46320  0.10393  0.97481  1.0000
  H   H436      1.0  0.33152  0.20382  0.82024  1.0000
  H   H437      1.0  0.35901  0.15973  0.78038  1.0000
  H   H438      1.0  0.29215  0.18541  0.74710  1.0000
  H   H439      1.0  0.42150  0.14094  0.87190  1.0000
  H   H440      1.0  0.37061  0.21375  0.88250  1.0000
  H   H441      1.0  0.34241  0.18051  0.89857  1.0000
  H   H442      1.0  0.37075  0.19058  0.88876  1.0000
  S   S119      1.0  0.34782  0.23769  0.76014  1.0000
  C   C258      1.0  0.39722  0.02191  0.98193  1.0000
  H   H443      1.0  0.36926  0.22601  0.82503  1.0000
  H   H444      1.0  0.38163  0.16114  0.77202  1.0000
  N   N30       1.0  0.41687  0.01675  0.97741  1.0000
  H   H445      1.0  0.38704  0.18617  0.75360  1.0000
  H   H446      1.0  0.36881  0.17663  0.78187  1.0000
  H   H447      1.0  0.46300  0.12406  0.96293  1.0000
  C   C259      1.0  0.36795  0.16913  0.77505  1.0000
  C   C260      1.0  0.45076  0.01271  0.87677  1.0000
  H   H448      1.0  0.49776  0.13808  0.97251  1.0000
  H   H449      1.0  0.48214  0.10599  0.96166  1.0000
  C   C261      1.0  0.40387  0.08177  0.98038  1.0000
  C   C262      1.0  0.37333  0.19352  0.75730  1.0000
  H   H450      1.0  0.45086  0.09793  0.92861  1.0000
  H   H451      1.0  0.33755  0.20097  0.76053  1.0000
  C   C263      1.0  0.42537  0.14256  0.88029  1.0000
  C   C264      1.0  0.37681  0.19729  0.80907  1.0000
  C   C265      1.0  0.37701  0.20397  0.79611  1.0000
  C   C266      1.0  0.36085  0.21095  0.79187  1.0000
  C   C267      1.0  0.34440  0.21085  0.80055  1.0000
  C   C268      1.0  0.34422  0.20403  0.81349  1.0000
  C   C269      1.0  0.36037  0.19742  0.81777  1.0000
  S   S120      1.0  0.30732  0.23014  0.76379  1.0000
  H   H452      1.0  0.26453  0.23915  0.75028  1.0000
  C   C270      1.0  0.46887  0.11185  0.93138  1.0000
  H   H453      1.0  0.36009  0.19205  0.82775  1.0000
  H   H454      1.0  0.43801  0.99329  0.97922  1.0000
  H   H455      1.0  0.48754  0.04328  0.90267  1.0000
  C   C271      1.0  0.46575  0.12988  0.98480  1.0000
  C   C272      1.0  0.49785  0.18321  0.90511  1.0000
  H   H456      1.0  0.48855  0.17604  0.85357  1.0000
  C   C273      1.0  0.42787  0.99282  0.93313  1.0000
  C   C274      1.0  0.41835  0.10586  0.97831  1.0000
  H   H457      1.0  0.33334  0.18292  0.77370  1.0000
  H   H458      1.0  0.42124  0.04192  0.97796  1.0000
  C   C275      1.0  0.33556  0.22570  0.89176  1.0000
  C   C276      1.0  0.40776  0.08387  0.96714  1.0000
  H   H459      1.0  0.47509  0.04100  0.91874  1.0000
  H   H460      1.0  0.49010  0.02553  0.93637  1.0000
  C   C277      1.0  0.35991  0.17095  0.75528  1.0000
  H   H461      1.0  0.44062  0.02395  0.97848  1.0000
  C   C278      1.0  0.33589  0.19432  0.89993  1.0000
  C   C279      1.0  0.49147  0.10557  0.98318  1.0000
  N   N31       1.0  0.36108  0.18129  0.76406  1.0000
  H   H462      1.0  0.32140  0.19638  0.89998  1.0000
  H   H463      1.0  0.42043  0.09834  0.94929  1.0000
  C   C280      1.0  0.39239  0.09917  0.89168  1.0000
  C   C281      1.0  0.39437  0.10764  0.87882  1.0000
  C   C282      1.0  0.38882  0.12618  0.87530  1.0000
  C   C283      1.0  0.38069  0.13616  0.88466  1.0000
  C   C284      1.0  0.37858  0.12766  0.89749  1.0000
  C   C285      1.0  0.38467  0.10923  0.90101  1.0000
  H   H464      1.0  0.40035  0.09987  0.87159  1.0000
  H   H465      1.0  0.39036  0.13269  0.86537  1.0000
  H   H466      1.0  0.37226  0.13534  0.90475  1.0000
  H   H467      1.0  0.38301  0.10274  0.91094  1.0000
  H   H468      1.0  0.40797  0.01362  0.92488  1.0000
  C   C286      1.0  0.47655  0.09384  0.91561  1.0000
  C   C287      1.0  0.46413  0.10086  0.92551  1.0000
  H   H469      1.0  0.39641  0.07191  0.98633  1.0000
  C   C288      1.0  0.41741  0.09664  0.95950  1.0000
  C   C289      1.0  0.46118  0.22436  0.84625  1.0000
  H   H470      1.0  0.45536  0.00699  0.90704  1.0000
  H   H471      1.0  0.48727  0.19157  0.89992  1.0000
  H   H472      1.0  0.27267  0.21920  0.74420  1.0000
  C   C290      1.0  0.42891  0.02363  0.89415  1.0000
  H   H473      1.0  0.37463  0.20148  0.76363  1.0000
  H   H474      1.0  0.45654  0.14090  0.97972  1.0000
  H   H475      1.0  0.34189  0.23585  0.88420  1.0000
  H   H476      1.0  0.42942  0.15561  0.87765  1.0000
  C   C291      1.0  0.42325  0.99764  0.98256  1.0000
  N   N32       1.0  0.34444  0.20754  0.88980  1.0000
  S   S121      1.0  0.37427  0.23803  0.85849  1.0000
  H   H477      1.0  0.35476  0.17989  0.74689  1.0000
  C   C292      1.0  0.42577  0.02741  0.98170  1.0000
  H   H478      1.0  0.35061  0.16172  0.76000  1.0000
  C   C293      1.0  0.47946  0.22137  0.84621  1.0000
  H   H479      1.0  0.47157  0.99948  0.89393  1.0000
  H   H480      1.0  0.44000  0.01253  0.87216  1.0000
  H   H481      1.0  0.39208  0.03631  0.97821  1.0000
  N   N33       1.0  0.48000  0.12036  0.97592  1.0000
  C   C294      1.0  0.48086  0.18952  0.85162  1.0000
  C   C295      1.0  0.49367  0.09769  0.91164  1.0000
  H   H482      1.0  0.34935  0.19245  0.87551  1.0000
  H   H483      1.0  0.48278  0.14418  0.96166  1.0000
  H   H484      1.0  0.38971  0.20400  0.78935  1.0000
  H   H485      1.0  0.32846  0.20838  0.87678  1.0000
  H   H486      1.0  0.38999  0.01422  0.97886  1.0000
  H   H487      1.0  0.34912  0.21566  0.86947  1.0000
  H   H488      1.0  0.43595  0.01671  0.95960  1.0000
  Fe  Fe58      1.0  0.33085  0.23482  0.74789  1.0000
  C   C296      1.0  0.48675  0.03442  0.91227  1.0000
  H   H489      1.0  0.48478  0.16404  0.89461  1.0000
  H   H490      1.0  0.32107  0.22877  0.89151  1.0000
  H   H491      1.0  0.41309  0.14333  0.88803  1.0000
  C   C297      1.0  0.41287  0.99944  0.92756  1.0000
  H   H492      1.0  0.42945  0.11802  0.95912  1.0000
  C   C298      1.0  0.45934  0.00977  0.89647  1.0000
  H   H493      1.0  0.45925  0.11734  0.93901  1.0000
  H   H494      1.0  0.43869  0.21253  0.84886  1.0000
  C   C299      1.0  0.34275  0.20595  0.87735  1.0000
  H   H495      1.0  0.36539  0.20545  0.89934  1.0000
  C   C300      1.0  0.34302  0.19165  0.76859  1.0000
  S   S122      1.0  0.42394  0.12066  0.98499  1.0000
  H   H496      1.0  0.31322  0.20067  0.75056  1.0000
  N   N34       1.0  0.44004  0.12778  0.88415  1.0000
  C   C301      1.0  0.45613  0.12767  0.87370  1.0000
  C   C302      1.0  0.43433  0.11072  0.88707  1.0000
  C   C303      1.0  0.44433  0.13016  0.89556  1.0000
  H   H497      1.0  0.46737  0.11648  0.87619  1.0000
  H   H498      1.0  0.45322  0.12639  0.86484  1.0000
  H   H499      1.0  0.46097  0.14027  0.87139  1.0000
  H   H500      1.0  0.43110  0.10837  0.87867  1.0000
  H   H501      1.0  0.42209  0.11048  0.89481  1.0000
  H   H502      1.0  0.44497  0.09927  0.89022  1.0000
  H   H503      1.0  0.45554  0.11936  0.89859  1.0000
  H   H504      1.0  0.43258  0.12990  0.90372  1.0000
  H   H505      1.0  0.44840  0.14304  0.89376  1.0000
  C   C304      1.0  0.42249  0.10778  0.96508  1.0000
  H   H506      1.0  0.24923  0.22939  0.74645  1.0000
  H   H507      1.0  0.46322  0.02290  0.89332  1.0000
  C   C305      1.0  0.45280  0.21004  0.84884  1.0000
  C   C306      1.0  0.46265  0.19259  0.85136  1.0000
  H   H508      1.0  0.36839  0.20304  0.74904  1.0000
  H   H509      1.0  0.43183  0.03715  0.89012  1.0000
  H   H510      1.0  0.48381  0.02175  0.91185  1.0000
  H   H511      1.0  0.36117  0.21638  0.78193  1.0000
  H   H512      1.0  0.41495  0.01208  0.95982  1.0000
  H   H513      1.0  0.34327  0.19963  0.77527  1.0000
  H   H514      1.0  0.37327  0.16293  0.75163  1.0000
  C   C307      1.0  0.40935  0.09260  0.98598  1.0000
  H   H515      1.0  0.33699  0.19502  0.90947  1.0000
  C   C308      1.0  0.47176  0.11324  0.96851  1.0000
  H   H516      1.0  0.41718  0.02325  0.89063  1.0000
  H   H517      1.0  0.49123  0.17899  0.91524  1.0000
  H   H518      1.0  0.42463  0.02227  0.90460  1.0000
  C   C309      1.0  0.48617  0.11533  0.92759  1.0000
  H   H519      1.0  0.33656  0.22743  0.90106  1.0000
  Fe  Fe59      1.0  0.32333  0.23524  0.77575  1.0000
  H   H520      1.0  0.39338  0.22721  0.80566  1.0000
  C   C310      1.0  0.48926  0.20390  0.84906  1.0000
  H   H521      1.0  0.46269  0.00234  0.87384  1.0000
  C   C311      1.0  0.42121  0.02011  0.96340  1.0000
  H   H522      1.0  0.45339  0.23771  0.84423  1.0000
  H   H523      1.0  0.48840  0.15187  0.91008  1.0000
  S   S123      1.0  0.49218  0.12879  0.93504  1.0000
  S   S124      1.0  0.48986  0.23957  0.84251  1.0000
  C   C312      1.0  0.26295  0.23221  0.74338  1.0000
  C   C313      1.0  0.49102  0.13279  0.96724  1.0000
  C   C314      1.0  0.36969  0.23979  0.82509  1.0000
  H   H524      1.0  0.36134  0.23745  0.80405  1.0000
  H   H525      1.0  0.37929  0.23871  0.83101  1.0000
  H   H526      1.0  0.49580  0.05504  0.92405  1.0000
  C   C315      1.0  0.49530  0.15656  0.90010  1.0000
  C   C316      1.0  0.31324  0.20014  0.74103  1.0000
  C   C317      1.0  0.30131  0.19145  0.73906  1.0000
  H   H527      1.0  0.49927  0.00640  0.92938  1.0000
  C   C318      1.0  0.49856  0.10823  0.91774  1.0000
  H   H528      1.0  0.40338  0.24004  0.81161  1.0000
  C   C319      1.0  0.39318  0.24096  0.80618  1.0000
  H   H529      1.0  0.39349  0.99268  0.92024  1.0000
  C   C320      1.0  0.43968  0.99200  0.89547  1.0000
  H   H530      1.0  0.30912  0.46071  0.06134  1.0000
  S   S125      1.0  0.09014  0.47120  0.01204  1.0000
  Fe  Fe60      1.0  0.03909  0.47314  0.02545  1.0000
  S   S126      1.0  0.05944  0.44743  0.02769  1.0000
  C   C321      1.0  0.39289  0.27218  0.14007  1.0000
  Fe  Fe61      1.0  0.07582  0.46322  0.03229  1.0000
  S   S127      1.0  0.08704  0.45611  0.05008  1.0000
  Fe  Fe62      1.0  0.07185  0.45804  0.00729  1.0000
  H   H531      1.0  0.48992  0.24233  0.10626  1.0000
  H   H532      1.0  0.02166  0.43490  0.99511  1.0000
  H   H533      1.0  0.11606  0.42809  0.07323  1.0000
  H   H534      1.0  0.16655  0.29843  0.23034  1.0000
  S   S128      1.0  0.41147  0.25216  0.08656  1.0000
  Fe  Fe63      1.0  0.16400  0.47294  0.07154  1.0000
  H   H535      1.0  0.24450  0.28099  0.21680  1.0000
  Fe  Fe64      1.0  0.14969  0.46336  0.09982  1.0000
  S   S129      1.0  0.12759  0.45151  0.11363  1.0000
  S   S130      1.0  0.17026  0.44820  0.08631  1.0000
  H   H536      1.0  0.48151  0.31100  0.12184  1.0000
  Fe  Fe65      1.0  0.29434  0.27291  0.18548  1.0000
  H   H537      1.0  0.46443  0.26946  0.13228  1.0000
  S   S131      1.0  0.27142  0.29152  0.19515  1.0000
  Fe  Fe66      1.0  0.18940  0.46158  0.09002  1.0000
  S   S132      1.0  0.36238  0.26640  0.17800  1.0000
  S   S133      1.0  0.31502  0.28184  0.16845  1.0000
  H   H538      1.0  0.44845  0.28367  0.14201  1.0000
  Fe  Fe67      1.0  0.32596  0.46462  0.11794  1.0000
  S   S134      1.0  0.35582  0.45635  0.11131  1.0000
  Fe  Fe68      1.0  0.29431  0.45364  0.13732  1.0000
  S   S135      1.0  0.28735  0.43114  0.15345  1.0000
  S   S136      1.0  0.30631  0.44940  0.11749  1.0000
  Fe  Fe69      1.0  0.42103  0.32131  0.12112  1.0000
  S   S137      1.0  0.42293  0.32551  0.13961  1.0000
  S   S138      1.0  0.43204  0.29238  0.12028  1.0000
  Fe  Fe70      1.0  0.40711  0.36102  0.11225  1.0000
  S   S139      1.0  0.40906  0.36800  0.12991  1.0000
  S   S140      1.0  0.39288  0.38111  0.09779  1.0000
  Fe  Fe71      1.0  0.43568  0.34828  0.12804  1.0000
  Fe  Fe72      1.0  0.39652  0.34448  0.13965  1.0000
  S   S141      1.0  0.37202  0.34548  0.15555  1.0000
  S   S142      1.0  0.43485  0.34331  0.10940  1.0000
  S   S143      1.0  0.39330  0.33834  0.12218  1.0000
  Fe  Fe73      1.0  0.17128  0.38665  0.16766  1.0000
  S   S144      1.0  0.18879  0.40042  0.17271  1.0000
  S   S145      1.0  0.14339  0.40005  0.16504  1.0000
  Fe  Fe74      1.0  0.19795  0.35119  0.16978  1.0000
  S   S146      1.0  0.21770  0.36216  0.17472  1.0000
  S   S147      1.0  0.20556  0.32238  0.16874  1.0000
  Fe  Fe75      1.0  0.19374  0.37526  0.18753  1.0000
  Fe  Fe76      1.0  0.21085  0.38567  0.15948  1.0000
  S   S148      1.0  0.23160  0.39624  0.14318  1.0000
  S   S149      1.0  0.17443  0.36271  0.18355  1.0000
  S   S150      1.0  0.19285  0.37372  0.15339  1.0000
  H   H539      1.0  0.25612  0.33560  0.17208  1.0000
  C   C322      1.0  0.17580  0.35488  0.23033  1.0000
  H   H540      1.0  0.18240  0.32261  0.22331  1.0000
  S   S151      1.0  0.46228  0.34355  0.13366  1.0000
  H   H541      1.0  0.45964  0.38182  0.12275  1.0000
  C   C323      1.0  0.17524  0.36627  0.21841  1.0000
  C   C324      1.0  0.15873  0.37377  0.21487  1.0000
  H   H542      1.0  0.36130  0.29259  0.13554  1.0000
  C   C325      1.0  0.18484  0.32111  0.21336  1.0000
  H   H543      1.0  0.26863  0.45021  0.10762  1.0000
  H   H544      1.0  0.15818  0.38271  0.20574  1.0000
  H   H545      1.0  0.19545  0.43540  0.12077  1.0000
  C   C326      1.0  0.27179  0.42136  0.15075  1.0000
  C   C327      1.0  0.26902  0.42421  0.13850  1.0000
  C   C328      1.0  0.25690  0.41607  0.13630  1.0000
  C   C329      1.0  0.24706  0.40555  0.14639  1.0000
  C   C330      1.0  0.24962  0.40280  0.15870  1.0000
  C   C331      1.0  0.26221  0.41052  0.16084  1.0000
  H   H546      1.0  0.27625  0.43261  0.13070  1.0000
  H   H547      1.0  0.25491  0.41820  0.12677  1.0000
  H   H548      1.0  0.24197  0.39473  0.16653  1.0000
  H   H549      1.0  0.26428  0.40836  0.17035  1.0000
  C   C332      1.0  0.36541  0.43487  0.10837  1.0000
  C   C333      1.0  0.38326  0.42725  0.10937  1.0000
  C   C334      1.0  0.39155  0.41046  0.10656  1.0000
  C   C335      1.0  0.38220  0.40146  0.10232  1.0000
  C   C336      1.0  0.36432  0.40905  0.10133  1.0000
  C   C337      1.0  0.35583  0.42558  0.10458  1.0000
  H   H550      1.0  0.39076  0.43439  0.11226  1.0000
  H   H551      1.0  0.40538  0.40473  0.10727  1.0000
  H   H552      1.0  0.35706  0.40207  0.09808  1.0000
  H   H553      1.0  0.34206  0.43128  0.10388  1.0000
  C   C338      1.0  0.25237  0.29843  0.18855  1.0000
  C   C339      1.0  0.25125  0.29142  0.17868  1.0000
  C   C340      1.0  0.23632  0.29811  0.17300  1.0000
  C   C341      1.0  0.22269  0.31194  0.17709  1.0000
  C   C342      1.0  0.22355  0.31843  0.18725  1.0000
  C   C343      1.0  0.23830  0.31163  0.19302  1.0000
  H   H554      1.0  0.26206  0.28123  0.17517  1.0000
  H   H555      1.0  0.23569  0.29307  0.16511  1.0000
  H   H556      1.0  0.21298  0.32900  0.19051  1.0000
  H   H557      1.0  0.23911  0.31710  0.20066  1.0000
  C   C344      1.0  0.36913  0.32371  0.16267  1.0000
  C   C345      1.0  0.38410  0.30969  0.16350  1.0000
  C   C346      1.0  0.38186  0.29222  0.16867  1.0000
  C   C347      1.0  0.36464  0.28861  0.17279  1.0000
  C   C348      1.0  0.34961  0.30265  0.17222  1.0000
  C   C349      1.0  0.35185  0.32022  0.16726  1.0000
  H   H558      1.0  0.39743  0.31233  0.16038  1.0000
  H   H559      1.0  0.39352  0.28147  0.16935  1.0000
  H   H560      1.0  0.33627  0.30001  0.17573  1.0000
  H   H561      1.0  0.34023  0.33104  0.16679  1.0000
  C   C350      1.0  0.13292  0.43714  0.12765  1.0000
  C   C351      1.0  0.11881  0.43269  0.13764  1.0000
  C   C352      1.0  0.12233  0.42133  0.14900  1.0000
  C   C353      1.0  0.14001  0.41405  0.15043  1.0000
  C   C354      1.0  0.15429  0.41821  0.14037  1.0000
  C   C355      1.0  0.15074  0.42990  0.12897  1.0000
  H   H562      1.0  0.10506  0.43820  0.13666  1.0000
  H   H563      1.0  0.11128  0.41813  0.15673  1.0000
  H   H564      1.0  0.16796  0.41237  0.14140  1.0000
  H   H565      1.0  0.16170  0.43312  0.12118  1.0000
  C   C356      1.0  0.41802  0.26379  0.09523  1.0000
  C   C357      1.0  0.42947  0.25469  0.10355  1.0000
  C   C358      1.0  0.43368  0.26374  0.11109  1.0000
  C   C359      1.0  0.42671  0.28200  0.11024  1.0000
  C   C360      1.0  0.41564  0.29128  0.10170  1.0000
  C   C361      1.0  0.41135  0.28216  0.09415  1.0000
  H   H566      1.0  0.34967  0.27477  0.13909  1.0000
  H   H567      1.0  0.44225  0.25653  0.11770  1.0000
  H   H568      1.0  0.41030  0.30540  0.10097  1.0000
  H   H569      1.0  0.40258  0.28927  0.08766  1.0000
  H   H570      1.0  0.14515  0.47381  0.03121  1.0000
  C   C362      1.0  0.24291  0.48408  0.09027  1.0000
  H   H571      1.0  0.25843  0.27413  0.22818  1.0000
  S   S152      1.0  0.16903  0.47480  0.10481  1.0000
  H   H572      1.0  0.17531  0.32480  0.19126  1.0000
  S   S153      1.0  0.18544  0.48481  0.07375  1.0000
  H   H573      1.0  0.31300  0.47694  0.08825  1.0000
  N   N35       1.0  0.26638  0.34134  0.15190  1.0000
  C   C363      1.0  0.47603  0.35839  0.13201  1.0000
  H   H574      1.0  0.01726  0.44517  0.02519  1.0000
  C   C364      1.0  0.10640  0.46291  0.05023  1.0000
  C   C365      1.0  0.10943  0.46331  0.06192  1.0000
  C   C366      1.0  0.12536  0.46727  0.06258  1.0000
  C   C367      1.0  0.13847  0.47069  0.05156  1.0000
  C   C368      1.0  0.13512  0.47102  0.03980  1.0000
  C   C369      1.0  0.11907  0.46725  0.03911  1.0000
  H   H575      1.0  0.09952  0.46028  0.07053  1.0000
  H   H576      1.0  0.12767  0.46731  0.07165  1.0000
  C   C370      1.0  0.47226  0.30163  0.12475  1.0000
  H   H577      1.0  0.11684  0.46706  0.03004  1.0000
  H   H578      1.0  0.37466  0.24786  0.15535  1.0000
  C   C371      1.0  0.47199  0.37637  0.12613  1.0000
  C   C372      1.0  0.22985  0.47528  0.09010  1.0000
  H   H579      1.0  0.27807  0.35217  0.13259  1.0000
  C   C373      1.0  0.25696  0.47509  0.09655  1.0000
  H   H580      1.0  0.00331  0.46352  0.00175  1.0000
  H   H581      1.0  0.21730  0.42870  0.12444  1.0000
  H   H582      1.0  0.15374  0.34063  0.20739  1.0000
  H   H583      1.0  0.27904  0.31998  0.14201  1.0000
  H   H584      1.0  0.27679  0.24966  0.21831  1.0000
  C   C374      1.0  0.24522  0.44828  0.10212  1.0000
  N   N36       1.0  0.34257  0.39853  0.14408  1.0000
  C   C375      1.0  0.33010  0.39991  0.13597  1.0000
  C   C376      1.0  0.36101  0.39054  0.13808  1.0000
  C   C377      1.0  0.33708  0.38719  0.15665  1.0000
  C   C378      1.0  0.34205  0.41648  0.14560  1.0000
  H   H585      1.0  0.31604  0.40585  0.14026  1.0000
  H   H586      1.0  0.33024  0.38661  0.13456  1.0000
  H   H587      1.0  0.33383  0.40843  0.12645  1.0000
  H   H588      1.0  0.37066  0.38852  0.14422  1.0000
  H   H589      1.0  0.36178  0.37729  0.13629  1.0000
  H   H590      1.0  0.36591  0.39907  0.12884  1.0000
  H   H591      1.0  0.34630  0.38572  0.16299  1.0000
  H   H592      1.0  0.33745  0.37351  0.15581  1.0000
  H   H593      1.0  0.32321  0.39283  0.16146  1.0000
  H   H594      1.0  0.35133  0.41597  0.15164  1.0000
  H   H595      1.0  0.32828  0.42289  0.15010  1.0000
  H   H596      1.0  0.34609  0.42541  0.13627  1.0000
  H   H597      1.0  0.29790  0.45263  0.09046  1.0000
  H   H598      1.0  0.33686  0.43809  0.06544  1.0000
  H   H599      1.0  0.23449  0.27636  0.23345  1.0000
  S   S154      1.0  0.31737  0.26006  0.14133  1.0000
  C   C379      1.0  0.38195  0.26639  0.12379  1.0000
  C   C380      1.0  0.23235  0.25119  0.22215  1.0000
  H   H600      1.0  0.15770  0.29202  0.21951  1.0000
  C   C381      1.0  0.36100  0.27875  0.14096  1.0000
  C   C382      1.0  0.37725  0.24828  0.14499  1.0000
  H   H601      1.0  0.12595  0.44040  0.08801  1.0000
  S   S155      1.0  0.00921  0.47981  0.03217  1.0000
  H   H602      1.0  0.21980  0.25519  0.22912  1.0000
  H   H603      1.0  0.14696  0.43348  0.06832  1.0000
  H   H604      1.0  0.34782  0.45576  0.06396  1.0000
  H   H605      1.0  0.13003  0.37635  0.22062  1.0000
  Fe  Fe77      1.0  0.28899  0.47628  0.11164  1.0000
  S   S156      1.0  0.27377  0.48615  0.09587  1.0000
  N   N37       1.0  0.17032  0.31444  0.21142  1.0000
  N   N38       1.0  0.13626  0.41415  0.08404  1.0000
  C   C383      1.0  0.13058  0.42643  0.09286  1.0000
  C   C384      1.0  0.15105  0.41961  0.07361  1.0000
  C   C385      1.0  0.12091  0.41461  0.07874  1.0000
  C   C386      1.0  0.14252  0.39592  0.09102  1.0000
  H   H606      1.0  0.29906  0.47668  0.07122  1.0000
  H   H607      1.0  0.39472  0.25697  0.12087  1.0000
  H   H608      1.0  0.14178  0.42623  0.09717  1.0000
  H   H609      1.0  0.01860  0.48752  0.99061  1.0000
  H   H610      1.0  0.21903  0.48232  0.08526  1.0000
  S   S157      1.0  0.05014  0.48239  0.00485  1.0000
  C   C387      1.0  0.31079  0.44517  0.08557  1.0000
  N   N39       1.0  0.47515  0.28863  0.13659  1.0000
  H   H611      1.0  0.10934  0.41093  0.08636  1.0000
  H   H612      1.0  0.18858  0.34906  0.23308  1.0000
  H   H613      1.0  0.36617  0.24364  0.14337  1.0000
  C   C388      1.0  0.48415  0.38726  0.12451  1.0000
  H   H614      1.0  0.25662  0.35860  0.16519  1.0000
  H   H615      1.0  0.19900  0.41971  0.13517  1.0000
  H   H616      1.0  0.24082  0.33399  0.15625  1.0000
  H   H617      1.0  0.23085  0.25952  0.21262  1.0000
  C   C389      1.0  0.26393  0.34471  0.16467  1.0000
  H   H618      1.0  0.16375  0.30687  0.19647  1.0000
  H   H619      1.0  0.24627  0.43433  0.10655  1.0000
  C   C390      1.0  0.25790  0.45724  0.10270  1.0000
  H   H620      1.0  0.46504  0.26592  0.14864  1.0000
  N   N40       1.0  0.19821  0.44678  0.13533  1.0000
  C   C391      1.0  0.20396  0.46257  0.12639  1.0000
  C   C392      1.0  0.20266  0.43202  0.12865  1.0000
  C   C393      1.0  0.17860  0.45102  0.14037  1.0000
  C   C394      1.0  0.20766  0.44145  0.14592  1.0000
  H   H621      1.0  0.21880  0.45998  0.12289  1.0000
  H   H622      1.0  0.20004  0.47426  0.13089  1.0000
  H   H623      1.0  0.19800  0.46634  0.11787  1.0000
  S   S158      1.0  0.08117  0.44687  0.98973  1.0000
  H   H624      1.0  0.33287  0.46072  0.09141  1.0000
  H   H625      1.0  0.32002  0.47834  0.06011  1.0000
  S   S159      1.0  0.31517  0.46718  0.13821  1.0000
  C   C395      1.0  0.00285  0.45001  0.02740  1.0000
  C   C396      1.0  0.47185  0.29810  0.14692  1.0000
  H   H626      1.0  0.20426  0.42913  0.15259  1.0000
  H   H627      1.0  0.20421  0.45204  0.15142  1.0000
  H   H628      1.0  0.22248  0.43862  0.14239  1.0000
  S   S160      1.0  0.05428  0.48807  0.03157  1.0000
  H   H629      1.0  0.24043  0.35700  0.14910  1.0000
  H   H630      1.0  0.18593  0.33438  0.20709  1.0000
  C   C397      1.0  0.15313  0.32739  0.21383  1.0000
  S   S161      1.0  0.27513  0.47914  0.13146  1.0000
  H   H631      1.0  0.17464  0.46222  0.14536  1.0000
  H   H632      1.0  0.15403  0.39516  0.09521  1.0000
  C   C398      1.0  0.23116  0.45726  0.09584  1.0000
  H   H633      1.0  0.46683  0.25184  0.07955  1.0000
  Fe  Fe78      1.0  0.31353  0.25809  0.16217  1.0000
  H   H634      1.0  0.45833  0.30975  0.12592  1.0000
  N   N41       1.0  0.37828  0.26640  0.13745  1.0000
  H   H635      1.0  0.38310  0.27981  0.11782  1.0000
  H   H636      1.0  0.31781  0.43611  0.09301  1.0000
  H   H637      1.0  0.26818  0.36823  0.14240  1.0000
  H   H638      1.0  0.16299  0.41911  0.07724  1.0000
  N   N42       1.0  0.32195  0.45739  0.07674  1.0000
  S   S162      1.0  0.15935  0.47385  0.05230  1.0000
  C   C399      1.0  0.31215  0.46876  0.06689  1.0000
  H   H639      1.0  0.17392  0.43938  0.14726  1.0000
  H   H640      1.0  0.48105  0.30743  0.14460  1.0000
  C   C400      1.0  0.17435  0.31204  0.19823  1.0000
  H   H641      1.0  0.45791  0.30624  0.14853  1.0000
  H   H642      1.0  0.11936  0.42287  0.10086  1.0000
  H   H643      1.0  0.14181  0.32288  0.21245  1.0000
  H   H644      1.0  0.04648  0.43885  0.00300  1.0000
  S   S163      1.0  0.19525  0.37070  0.20795  1.0000
  H   H645      1.0  0.19809  0.31190  0.21136  1.0000
  S   S164      1.0  0.21555  0.44559  0.09528  1.0000
  H   H646      1.0  0.13167  0.39141  0.09898  1.0000
  H   H647      1.0  0.14966  0.32945  0.22372  1.0000
  H   H648      1.0  0.17104  0.45484  0.13264  1.0000
  S   S165      1.0  0.31441  0.25585  0.19696  1.0000
  H   H649      1.0  0.12463  0.40531  0.07218  1.0000
  C   C401      1.0  0.26457  0.24784  0.21615  1.0000
  S   S166      1.0  0.14204  0.48718  0.08483  1.0000
  H   H650      1.0  0.24997  0.34053  0.13963  1.0000
  H   H651      1.0  0.18741  0.30263  0.19595  1.0000
  H   H652      1.0  0.34574  0.25306  0.11971  1.0000
  C   C402      1.0  0.24630  0.27200  0.22607  1.0000
  H   H653      1.0  0.29041  0.32108  0.15358  1.0000
  C   C403      1.0  0.16896  0.29720  0.22032  1.0000
  C   C404      1.0  0.24865  0.34329  0.14910  1.0000
  H   H654      1.0  0.15543  0.41089  0.06661  1.0000
  H   H655      1.0  0.33417  0.47803  0.07742  1.0000
  H   H656      1.0  0.27704  0.34266  0.16731  1.0000
  H   H657      1.0  0.28934  0.35338  0.14421  1.0000
  H   H658      1.0  0.27005  0.31304  0.15861  1.0000
  C   C405      1.0  0.27695  0.32309  0.15148  1.0000
  C   C406      1.0  0.33911  0.44695  0.07075  1.0000
  H   H659      1.0  0.39375  0.28601  0.13482  1.0000
  H   H660      1.0  0.39080  0.27185  0.15035  1.0000
  H   H661      1.0  0.47247  0.25742  0.09885  1.0000
  C   C407      1.0  0.32566  0.46873  0.08377  1.0000
  C   C408      1.0  0.04750  0.44077  0.99290  1.0000
  C   C409      1.0  0.46270  0.27640  0.14006  1.0000
  H   H662      1.0  0.14700  0.38624  0.08468  1.0000
  C   C410      1.0  0.49205  0.35148  0.13639  1.0000
  C   C411      1.0  0.27596  0.35433  0.14234  1.0000
  C   C412      1.0  0.14281  0.37017  0.22330  1.0000
  H   H663      1.0  0.37112  0.26237  0.12139  1.0000
  H   H664      1.0  0.35781  0.27899  0.15123  1.0000
  H   H665      1.0  0.48110  0.40112  0.11984  1.0000
  H   H666      1.0  0.47377  0.28869  0.15602  1.0000
  Fe  Fe79      1.0  0.33488  0.26261  0.17922  1.0000
  H   H667      1.0  0.18152  0.28697  0.21857  1.0000
  C   C413      1.0  0.03345  0.43857  0.98843  1.0000
  H   H668      1.0  0.47436  0.29491  0.11680  1.0000
  N   N43       1.0  0.24827  0.25322  0.22567  1.0000
  H   H669      1.0  0.26368  0.25588  0.20645  1.0000
  S   S167      1.0  0.29087  0.25080  0.17820  1.0000
  H   H670      1.0  0.40621  0.26349  0.13718  1.0000
  H   H671      1.0  0.30733  0.43674  0.08052  1.0000
  H   H672      1.0  0.34687  0.43839  0.07797  1.0000
  C   C414      1.0  0.49385  0.27835  0.13462  1.0000
  H   H673      1.0  0.49678  0.27126  0.12677  1.0000
  C   C415      1.0  0.14340  0.35847  0.23507  1.0000
  H   H674      1.0  0.49528  0.33759  0.14093  1.0000
  H   H675      1.0  0.49645  0.26808  0.14325  1.0000
  S   S168      1.0  0.30994  0.49127  0.11018  1.0000
  H   H676      1.0  0.49889  0.37013  0.09024  1.0000
  H   H677      1.0  0.49924  0.36307  0.10677  1.0000
  C   C416      1.0  0.48012  0.24340  0.10046  1.0000
  H   H678      1.0  0.49348  0.26370  0.07822  1.0000
  C   C417      1.0  0.50028  0.38024  0.12882  1.0000
  C   C418      1.0  0.50111  0.24978  0.08058  1.0000
  Fe  Fe80      1.0  0.04245  0.46153  0.43252  1.0000
  H   H679      1.0  0.12579  0.39745  0.28191  1.0000
  S   S169      1.0  0.04057  0.45247  0.45366  1.0000
  Fe  Fe81      1.0  0.05498  0.45307  0.40622  1.0000
  S   S170      1.0  0.03865  0.47869  0.39731  1.0000
  S   S171      1.0  0.07137  0.43433  0.39320  1.0000
  H   H680      1.0  0.08869  0.48072  0.45369  1.0000
  S   S172      1.0  0.08570  0.48065  0.48001  1.0000
  Fe  Fe82      1.0  0.01704  0.47306  0.41433  1.0000
  S   S173      1.0  0.12323  0.35472  0.24561  1.0000
  S   S174      1.0  0.06638  0.46639  0.41679  1.0000
  S   S175      1.0  0.03237  0.44644  0.42258  1.0000
  Fe  Fe83      1.0  0.06274  0.35748  0.34460  1.0000
  S   S176      1.0  0.06084  0.34131  0.36468  1.0000
  S   S177      1.0  0.08697  0.36054  0.32884  1.0000
  Fe  Fe84      1.0  0.04033  0.36556  0.36963  1.0000
  S   S178      1.0  0.03395  0.37692  0.38724  1.0000
  C   C419      1.0  0.06068  0.25763  0.28059  1.0000
  C   C420      1.0  0.13928  0.38501  0.26043  1.0000
  S   S179      1.0  0.12910  0.30557  0.24496  1.0000
  Fe  Fe85      1.0  0.12328  0.32650  0.25614  1.0000
  H   H681      1.0  0.12796  0.25823  0.29730  1.0000
  Fe  Fe86      1.0  0.11514  0.30094  0.28118  1.0000
  S   S180      1.0  0.09753  0.31941  0.26837  1.0000
  S   S181      1.0  0.10627  0.29535  0.30240  1.0000
  Fe  Fe87      1.0  0.14419  0.28834  0.25975  1.0000
  H   H682      1.0  0.13179  0.34923  0.28416  1.0000
  Fe  Fe88      1.0  0.10478  0.29701  0.25827  1.0000
  S   S182      1.0  0.02229  0.24650  0.31775  1.0000
  S   S183      1.0  0.14038  0.31014  0.27000  1.0000
  S   S184      1.0  0.12027  0.27777  0.27202  1.0000
  H   H683      1.0  0.20396  0.24481  0.25252  1.0000
  C   C421      1.0  0.11072  0.37864  0.27271  1.0000
  H   H684      1.0  0.03332  0.45928  0.34280  1.0000
  H   H685      1.0  0.07111  0.46983  0.44317  1.0000
  H   H686      1.0  0.06126  0.30160  0.34910  1.0000
  H   H687      1.0  0.10885  0.37366  0.26489  1.0000
  H   H688      1.0  0.03966  0.45041  0.47965  1.0000
  C   C422      1.0  0.09285  0.34240  0.32147  1.0000
  C   C423      1.0  0.09975  0.34471  0.30836  1.0000
  C   C424      1.0  0.10381  0.33035  0.30234  1.0000
  C   C425      1.0  0.10158  0.31355  0.30956  1.0000
  C   C426      1.0  0.09503  0.31120  0.32269  1.0000
  C   C427      1.0  0.09033  0.32566  0.32861  1.0000
  H   H689      1.0  0.10149  0.35771  0.30292  1.0000
  H   H690      1.0  0.10861  0.33220  0.29218  1.0000
  H   H691      1.0  0.09358  0.29819  0.32832  1.0000
  H   H692      1.0  0.08510  0.32378  0.33876  1.0000
  C   C428      1.0  0.03652  0.29252  0.35705  1.0000
  H   H693      1.0  0.10411  0.39299  0.27138  1.0000
  C   C429      1.0  0.05096  0.26755  0.34143  1.0000
  C   C430      1.0  0.05352  0.29231  0.34911  1.0000
  H   H694      1.0  0.13368  0.39959  0.25863  1.0000
  H   H695      1.0  0.15273  0.35394  0.27439  1.0000
  C   C431      1.0  0.02963  0.33319  0.31093  1.0000
  S   S185      1.0  0.17173  0.27192  0.25347  1.0000
  S   S186      1.0  0.01742  0.35576  0.36769  1.0000
  C   C432      1.0  0.02666  0.28028  0.35710  1.0000
  H   H696      1.0  0.01076  0.45786  0.35127  1.0000
  H   H697      1.0  0.01841  0.48128  0.48148  1.0000
  Fe  Fe89      1.0  0.02269  0.37002  0.34749  1.0000
  Fe  Fe90      1.0  0.03800  0.33303  0.36091  1.0000
  H   H698      1.0  0.12484  0.37627  0.29255  1.0000
  C   C433      1.0  0.06151  0.41780  0.39179  1.0000
  C   C434      1.0  0.07018  0.40723  0.38276  1.0000
  C   C435      1.0  0.06201  0.39450  0.38124  1.0000
  C   C436      1.0  0.04516  0.39232  0.38876  1.0000
  C   C437      1.0  0.03669  0.40280  0.39780  1.0000
  C   C438      1.0  0.04475  0.41548  0.39928  1.0000
  H   H699      1.0  0.08322  0.40889  0.37695  1.0000
  H   H700      1.0  0.06881  0.38631  0.37434  1.0000
  H   H701      1.0  0.02359  0.40153  0.40348  1.0000
  H   H702      1.0  0.03790  0.42353  0.40618  1.0000
  S   S187      1.0  0.02456  0.48746  0.42592  1.0000
  C   C439      1.0  0.05417  0.45941  0.46070  1.0000
  C   C440      1.0  0.06803  0.46797  0.45340  1.0000
  C   C441      1.0  0.07796  0.47416  0.45937  1.0000
  C   C442      1.0  0.06080  0.27965  0.34150  1.0000
  H   H703      1.0  0.01292  0.30617  0.32073  1.0000
  C   C443      1.0  0.13176  0.38296  0.28311  1.0000
  C   C444      1.0  0.05631  0.31049  0.31369  1.0000
  C   C445      1.0  0.03378  0.26793  0.34917  1.0000
  H   H704      1.0  0.13787  0.38012  0.25241  1.0000
  N   N44       1.0  0.12996  0.37579  0.27276  1.0000
  H   H705      1.0  0.06038  0.25306  0.29063  1.0000
  H   H706      1.0  0.02615  0.25855  0.34919  1.0000
  C   C446      1.0  0.07166  0.26951  0.27305  1.0000
  H   H707      1.0  0.01197  0.35657  0.42230  1.0000
  H   H708      1.0  0.04711  0.31755  0.29117  1.0000
  H   H709      1.0  0.03263  0.28882  0.32231  1.0000
  S   S188      1.0  0.02753  0.30775  0.36710  1.0000
  C   C447      1.0  0.00746  0.37020  0.42427  1.0000
  H   H710      1.0  0.06504  0.31828  0.30590  1.0000
  H   H711      1.0  0.01569  0.33643  0.30936  1.0000
  Fe  Fe91      1.0  0.04748  0.49140  0.40942  1.0000
  S   S189      1.0  0.04364  0.38216  0.34983  1.0000
  H   H712      1.0  0.10328  0.37153  0.28170  1.0000
  H   H713      1.0  0.14612  0.38098  0.28343  1.0000
  H   H714      1.0  0.05888  0.43378  0.34760  1.0000
  H   H715      1.0  0.02529  0.31221  0.29728  1.0000
  C   C448      1.0  0.05031  0.45709  0.47395  1.0000
  H   H716      1.0  0.06121  0.27428  0.24461  1.0000
  C   C449      1.0  0.09318  0.25671  0.30498  1.0000
  H   H717      1.0  0.00495  0.43075  0.36713  1.0000
  C   C450      1.0  0.02703  0.30328  0.32189  1.0000
  C   C451      1.0  0.02403  0.44998  0.34726  1.0000
  C   C452      1.0  0.07186  0.27548  0.26004  1.0000
  H   H718      1.0  0.05618  0.31398  0.32270  1.0000
  C   C453      1.0  0.06111  0.26965  0.25464  1.0000
  H   H719      1.0  0.08937  0.26503  0.31222  1.0000
  C   C454      1.0  0.03890  0.30963  0.29928  1.0000
  H   H720      1.0  0.07983  0.27415  0.27725  1.0000
  C   C455      1.0  0.07369  0.47230  0.47260  1.0000
  C   C456      1.0  0.15993  0.35064  0.23854  1.0000
  S   S190      1.0  0.04203  0.34689  0.34046  1.0000
  C   C457      1.0  0.13808  0.35655  0.27478  1.0000
  H   H721      1.0  0.06295  0.29618  0.31434  1.0000
  H   H722      1.0  0.03751  0.34184  0.30316  1.0000
  H   H723      1.0  0.00647  0.34594  0.34525  1.0000
  C   C458      1.0  0.05004  0.25173  0.27506  1.0000
  N   N45       1.0  0.03113  0.43550  0.35719  1.0000
  H   H724      1.0  0.02659  0.30591  0.33125  1.0000
  H   H725      1.0  0.04514  0.29533  0.29938  1.0000
  H   H726      1.0  0.01289  0.45015  0.40195  1.0000
  H   H727      1.0  0.01353  0.28037  0.36329  1.0000
  H   H728      1.0  0.07414  0.27921  0.33561  1.0000
  H   H729      1.0  0.04346  0.45168  0.36341  1.0000
  H   H730      1.0  0.02879  0.33698  0.31998  1.0000
  C   C459      1.0  0.05029  0.25780  0.26211  1.0000
  H   H731      1.0  0.02051  0.45139  0.37138  1.0000
  H   H732      1.0  0.04765  0.41993  0.34361  1.0000
  C   C460      1.0  0.05977  0.46384  0.47986  1.0000
  S   S191      1.0  0.08522  0.29029  0.25014  1.0000
  N   N46       1.0  0.03797  0.31415  0.31144  1.0000
  H   H733      1.0  0.13642  0.35058  0.26739  1.0000
  C   C461      1.0  0.03336  0.44315  0.36715  1.0000
  H   H734      1.0  0.02315  0.41252  0.37050  1.0000
  H   H735      1.0  0.01809  0.37752  0.41856  1.0000
  S   S192      1.0  0.06063  0.25267  0.33118  1.0000
  H   H736      1.0  0.16048  0.34164  0.24764  1.0000
  H   H737      1.0  0.15392  0.38285  0.25994  1.0000
  H   H738      1.0  0.05407  0.41391  0.35861  1.0000
  C   C462      1.0  0.01839  0.42351  0.36284  1.0000
  H   H739      1.0  0.00705  0.36907  0.43446  1.0000
  H   H740      1.0  0.00724  0.42831  0.39218  1.0000
  H   H741      1.0  0.01650  0.41730  0.35565  1.0000
  C   C463      1.0  0.12422  0.24931  0.30665  1.0000
  C   C464      1.0  0.17674  0.25059  0.26310  1.0000
  H   H742      1.0  0.09619  0.26568  0.29556  1.0000
  H   H743      1.0  0.15074  0.25233  0.27566  1.0000
  H   H744      1.0  0.02213  0.44465  0.33961  1.0000
  H   H745      1.0  0.12110  0.25746  0.31395  1.0000
  H   H746      1.0  0.03804  0.43254  0.37500  1.0000
  C   C465      1.0  0.16387  0.24411  0.27337  1.0000
  H   H747      1.0  0.04210  0.25331  0.25780  1.0000
  H   H748      1.0  0.08118  0.25171  0.30540  1.0000
  C   C466      1.0  0.04869  0.42537  0.35149  1.0000
  H   H749      1.0  0.23796  0.24564  0.24580  1.0000
  C   C467      1.0  0.00986  0.48576  0.47434  1.0000
  H   H750      1.0  0.01396  0.47570  0.46834  1.0000
  H   H751      1.0  0.26193  0.24278  0.24118  1.0000
  N   N47       1.0  0.10868  0.24198  0.30725  1.0000
  H   H752      1.0  0.18715  0.42182  0.72283  1.0000
  C   C468      1.0  0.08310  0.42734  0.52503  1.0000
  S   S193      1.0  0.07079  0.47892  0.54253  1.0000
  H   H753      1.0  0.18229  0.40413  0.71797  1.0000
  H   H754      1.0  0.02258  0.32422  0.62836  1.0000
  C   C469      1.0  0.04699  0.35345  0.67048  1.0000
  N   N48       1.0  0.20896  0.40894  0.70982  1.0000
  S   S194      1.0  0.02673  0.38280  0.63153  1.0000
  H   H755      1.0  0.28719  0.25450  0.71695  1.0000
  S   S195      1.0  0.03496  0.25225  0.65935  1.0000
  N   N49       1.0  0.00149  0.39224  0.59547  1.0000
  S   S196      1.0  0.05122  0.47670  0.51357  1.0000
  Fe  Fe92      1.0  0.06834  0.38966  0.58923  1.0000
  S   S197      1.0  0.06272  0.40402  0.60499  1.0000
  S   S198      1.0  0.05803  0.40199  0.57118  1.0000
  Fe  Fe93      1.0  0.08418  0.35444  0.60510  1.0000
  S   S199      1.0  0.07959  0.36563  0.62228  1.0000
  S   S200      1.0  0.09750  0.32567  0.60691  1.0000
  Fe  Fe94      1.0  0.05301  0.37991  0.61743  1.0000
  Fe  Fe95      1.0  0.08992  0.38840  0.60835  1.0000
  S   S201      1.0  0.11075  0.40009  0.61151  1.0000
  S   S202      1.0  0.05661  0.36653  0.60150  1.0000
  S   S203      1.0  0.09657  0.37615  0.59133  1.0000
  Fe  Fe96      1.0  0.14900  0.33512  0.66690  1.0000
  S   S204      1.0  0.16119  0.35226  0.64887  1.0000
  Fe  Fe97      1.0  0.15338  0.29829  0.68408  1.0000
  H   H756      1.0  0.08435  0.42311  0.53515  1.0000
  S   S205      1.0  0.14344  0.30952  0.66606  1.0000
  S   S206      1.0  0.16223  0.32287  0.68359  1.0000
  H   H757      1.0  0.04747  0.45798  0.54026  1.0000
  H   H758      1.0  0.16344  0.32047  0.62528  1.0000
  H   H759      1.0  0.10008  0.44737  0.53145  1.0000
  H   H760      1.0  0.13963  0.27813  0.73146  1.0000
  H   H761      1.0  0.22835  0.39059  0.69925  1.0000
  C   C470      1.0  0.09100  0.26446  0.68330  1.0000
  C   C471      1.0  0.00872  0.47043  0.50737  1.0000
  H   H762      1.0  0.08244  0.41543  0.52199  1.0000
  C   C472      1.0  0.02460  0.35014  0.62940  1.0000
  H   H763      1.0  0.28413  0.25841  0.66242  1.0000
  C   C473      1.0  0.13448  0.33809  0.61633  1.0000
  C   C474      1.0  0.08148  0.26195  0.67525  1.0000
  C   C475      1.0  0.19882  0.24571  0.69062  1.0000
  C   C476      1.0  0.09857  0.45103  0.52140  1.0000
  H   H764      1.0  0.21736  0.42836  0.71571  1.0000
  C   C477      1.0  0.20378  0.42134  0.69834  1.0000
  H   H765      1.0  0.12262  0.34047  0.61211  1.0000
  C   C478      1.0  0.13828  0.30612  0.62131  1.0000
  C   C479      1.0  0.00875  0.39907  0.60362  1.0000
  H   H766      1.0  0.10979  0.45750  0.51552  1.0000
  H   H767      1.0  0.12696  0.42789  0.51150  1.0000
  H   H768      1.0  0.21553  0.42199  0.69021  1.0000
  H   H769      1.0  0.03910  0.34733  0.62662  1.0000
  H   H770      1.0  0.06106  0.34794  0.67181  1.0000
  H   H771      1.0  0.08298  0.45076  0.50280  1.0000
  H   H772      1.0  0.15259  0.30755  0.63964  1.0000
  H   H773      1.0  0.01778  0.34131  0.65872  1.0000
  C   C480      1.0  0.19078  0.26375  0.68757  1.0000
  H   H774      1.0  0.13754  0.29970  0.72111  1.0000
  C   C481      1.0  0.07694  0.27588  0.66523  1.0000
  C   C482      1.0  0.20152  0.27640  0.68288  1.0000
  H   H775      1.0  0.31613  0.25481  0.63964  1.0000
  H   H776      1.0  0.02110  0.36312  0.65740  1.0000
  H   H777      1.0  0.13335  0.35013  0.61988  1.0000
  H   H778      1.0  0.04662  0.36693  0.66421  1.0000
  S   S207      1.0  0.13103  0.33886  0.71403  1.0000
  H   H779      1.0  0.02772  0.38050  0.58585  1.0000
  N   N50       1.0  0.16430  0.28741  0.72392  1.0000
  C   C483      1.0  0.22030  0.27091  0.68131  1.0000
  H   H780      1.0  0.14836  0.33121  0.63738  1.0000
  H   H781      1.0  0.22861  0.28068  0.67770  1.0000
  H   H782      1.0  0.06968  0.27406  0.65892  1.0000
  H   H783      1.0  0.06999  0.43691  0.52473  1.0000
  H   H784      1.0  0.15103  0.30455  0.61406  1.0000
  Fe  Fe98      1.0  0.11680  0.31854  0.67828  1.0000
  C   C484      1.0  0.11847  0.32337  0.63629  1.0000
  S   S208      1.0  0.19032  0.36374  0.73032  1.0000
  H   H785      1.0  0.10679  0.32439  0.63220  1.0000
  H   H786      1.0  0.08592  0.46125  0.52103  1.0000
  H   H787      1.0  0.07763  0.30309  0.65587  1.0000
  H   H788      1.0  0.01244  0.41210  0.59876  1.0000
  C   C485      1.0  0.16388  0.34816  0.71007  1.0000
  C   C486      1.0  0.17677  0.35349  0.71395  1.0000
  C   C487      1.0  0.01520  0.36655  0.63232  1.0000
  H   H789      1.0  0.25404  0.26774  0.73621  1.0000
  C   C488      1.0  0.30439  0.24901  0.64064  1.0000
  H   H790      1.0  0.16660  0.34579  0.70060  1.0000
  H   H791      1.0  0.18937  0.35506  0.70740  1.0000
  H   H792      1.0  0.02111  0.38980  0.60617  1.0000
  C   C489      1.0  0.12399  0.38696  0.62244  1.0000
  C   C490      1.0  0.11699  0.37563  0.63357  1.0000
  C   C491      1.0  0.12815  0.36524  0.64199  1.0000
  C   C492      1.0  0.14634  0.36601  0.63919  1.0000
  C   C493      1.0  0.15319  0.37740  0.62812  1.0000
  C   C494      1.0  0.14204  0.38795  0.61987  1.0000
  H   H793      1.0  0.10297  0.37508  0.63577  1.0000
  H   H794      1.0  0.12272  0.35657  0.65057  1.0000
  H   H795      1.0  0.16719  0.37811  0.62592  1.0000
  H   H796      1.0  0.14749  0.39677  0.61136  1.0000
  C   C495      1.0  0.08154  0.31241  0.61210  1.0000
  C   C496      1.0  0.06713  0.31623  0.60614  1.0000
  C   C497      1.0  0.05520  0.30471  0.60975  1.0000
  C   C498      1.0  0.05745  0.28964  0.61951  1.0000
  C   C499      1.0  0.07138  0.28633  0.62585  1.0000
  C   C500      1.0  0.08362  0.29751  0.62199  1.0000
  H   H797      1.0  0.06553  0.32773  0.59847  1.0000
  H   H798      1.0  0.04432  0.30741  0.60491  1.0000
  H   H799      1.0  0.07287  0.27508  0.63364  1.0000
  H   H800      1.0  0.09460  0.29468  0.62675  1.0000
  H   H801      1.0  0.07042  0.26778  0.59798  1.0000
  H   H802      1.0  0.22674  0.40581  0.72216  1.0000
  H   H803      1.0  0.02260  0.47015  0.50672  1.0000
  H   H804      1.0  0.19800  0.43505  0.70004  1.0000
  C   C501      1.0  0.09558  0.28091  0.68157  1.0000
  H   H805      1.0  0.11571  0.33535  0.64034  1.0000
  S   S209      1.0  0.04363  0.27439  0.62305  1.0000
  H   H806      1.0  0.07562  0.25612  0.58535  1.0000
  S   S210      1.0  0.12195  0.34487  0.67846  1.0000
  C   C502      1.0  0.06641  0.45794  0.55090  1.0000
  C   C503      1.0  0.07525  0.44832  0.56074  1.0000
  C   C504      1.0  0.07254  0.43124  0.56718  1.0000
  C   C505      1.0  0.06104  0.42368  0.56375  1.0000
  C   C506      1.0  0.05207  0.43338  0.55398  1.0000
  C   C507      1.0  0.05466  0.45052  0.54763  1.0000
  H   H807      1.0  0.08432  0.45400  0.56335  1.0000
  H   H808      1.0  0.07949  0.42384  0.57472  1.0000
  H   H809      1.0  0.04304  0.42765  0.55137  1.0000
  H   H810      1.0  0.01393  0.44337  0.50514  1.0000
  H   H811      1.0  0.11546  0.41022  0.51425  1.0000
  H   H812      1.0  0.10676  0.44757  0.49721  1.0000
  C   C508      1.0  0.09586  0.44102  0.50362  1.0000
  H   H813      1.0  0.05200  0.35330  0.64566  1.0000
  H   H814      1.0  0.19347  0.41715  0.69539  1.0000
  H   H815      1.0  0.05567  0.31818  0.67536  1.0000
  S   S211      1.0  0.16724  0.26982  0.69009  1.0000
  C   C509      1.0  0.09047  0.29504  0.67185  1.0000
  H   H816      1.0  0.14665  0.33716  0.60854  1.0000
  H   H817      1.0  0.15324  0.30922  0.73345  1.0000
  H   H818      1.0  0.22055  0.38123  0.71573  1.0000
  H   H819      1.0  0.12722  0.30706  0.61667  1.0000
  H   H820      1.0  0.23880  0.25799  0.73236  1.0000
  C   C510      1.0  0.14748  0.34611  0.71838  1.0000
  C   C511      1.0  0.22262  0.41490  0.71347  1.0000
  H   H821      1.0  0.11743  0.41777  0.52745  1.0000
  C   C512      1.0  0.19297  0.40857  0.72031  1.0000
  H   H822      1.0  0.01406  0.25555  0.62778  1.0000
  H   H823      1.0  0.29274  0.26023  0.63909  1.0000
  H   H824      1.0  0.11885  0.31165  0.64438  1.0000
  C   C513      1.0  0.15063  0.32018  0.63246  1.0000
  N   N51       1.0  0.13545  0.32195  0.62660  1.0000
  S   S212      1.0  0.12617  0.30532  0.69643  1.0000
  C   C514      1.0  0.21641  0.39088  0.70724  1.0000
  C   C515      1.0  0.08141  0.29237  0.66355  1.0000
  N   N52       1.0  0.04107  0.34175  0.66495  1.0000
  C   C516      1.0  0.02239  0.34943  0.66339  1.0000
  C   C517      1.0  0.05298  0.34018  0.65242  1.0000
  C   C518      1.0  0.04197  0.32398  0.67347  1.0000
  C   C519      1.0  0.00382  0.45532  0.50639  1.0000
  S   S213      1.0  0.25177  0.24581  0.68237  1.0000
  C   C520      1.0  0.17281  0.29843  0.71216  1.0000
  S   S214      1.0  0.09386  0.31652  0.67051  1.0000
  H   H825      1.0  0.06730  0.33515  0.65318  1.0000
  H   H826      1.0  0.04941  0.33093  0.64811  1.0000
  C   C521      1.0  0.25280  0.26006  0.72965  1.0000
  C   C522      1.0  0.22831  0.25279  0.68432  1.0000
  H   H827      1.0  0.03849  0.31451  0.66931  1.0000
  H   H828      1.0  0.03264  0.32458  0.68284  1.0000
  C   C523      1.0  0.01526  0.33705  0.63041  1.0000
  H   H829      1.0  0.23492  0.41539  0.70581  1.0000
  H   H830      1.0  0.05638  0.46227  0.49006  1.0000
  H   H831      1.0  0.08252  0.25386  0.61717  1.0000
  N   N53       1.0  0.09820  0.43541  0.51689  1.0000
  H   H832      1.0  0.13876  0.29378  0.62888  1.0000
  H   H833      1.0  0.03831  0.35504  0.67992  1.0000
  H   H834      1.0  0.10251  0.28283  0.68804  1.0000
  H   H835      1.0  0.18617  0.29981  0.71269  1.0000
  Fe  Fe99      1.0  0.13465  0.33058  0.69532  1.0000
  H   H836      1.0  0.19539  0.29036  0.68044  1.0000
  H   H837      1.0  0.17767  0.26298  0.71778  1.0000
  H   H838      1.0  0.01292  0.35032  0.67267  1.0000
  H   H839      1.0  0.20624  0.38574  0.70485  1.0000
  C   C524      1.0  0.17347  0.35690  0.72616  1.0000
  C   C525      1.0  0.11528  0.42224  0.51755  1.0000
  H   H840      1.0  0.19648  0.39906  0.72896  1.0000
  Fe  Fe100     1.0  0.04942  0.25174  0.63930  1.0000
  C   C526      1.0  0.14652  0.28628  0.72274  1.0000
  H   H841      1.0  0.01900  0.40277  0.57834  1.0000
  C   C527      1.0  0.14418  0.34945  0.73061  1.0000
  H   H842      1.0  0.09575  0.42957  0.49980  1.0000
  C   C528      1.0  0.17579  0.26937  0.72591  1.0000
  H   H843      1.0  0.16976  0.26059  0.73466  1.0000
  H   H844      1.0  0.10488  0.25038  0.60775  1.0000
  H   H845      1.0  0.28641  0.25353  0.73331  1.0000
  H   H846      1.0  0.16436  0.31204  0.71029  1.0000
  Fe  Fe101     1.0  0.05987  0.49112  0.52478  1.0000
  H   H847      1.0  0.01023  0.38475  0.57735  1.0000
  H   H848      1.0  0.25474  0.26852  0.71991  1.0000
  H   H849      1.0  0.23558  0.45233  0.73156  1.0000
  H   H850      1.0  0.00881  0.36497  0.60511  1.0000
  C   C529      1.0  0.08099  0.25807  0.59297  1.0000
  N   N54       1.0  0.26601  0.24294  0.73029  1.0000
  H   H851      1.0  0.00635  0.27699  0.64194  1.0000
  H   H852      1.0  0.14772  0.28014  0.71464  1.0000
  H   H853      1.0  0.17475  0.29260  0.70379  1.0000
  H   H854      1.0  0.09272  0.26441  0.58839  1.0000
  H   H855      1.0  0.05895  0.24261  0.61286  1.0000
  C   C530      1.0  0.29620  0.24743  0.66326  1.0000
  H   H856      1.0  0.30760  0.25331  0.66289  1.0000
  C   C531      1.0  0.28436  0.24635  0.72673  1.0000
  C   C532      1.0  0.01516  0.38996  0.58373  1.0000
  H   H857      1.0  0.09452  0.25379  0.69110  1.0000
  H   H858      1.0  0.18936  0.26971  0.72677  1.0000
  C   C533      1.0  0.15709  0.35482  0.73449  1.0000
  C   C534      1.0  0.16205  0.29565  0.73475  1.0000
  H   H859      1.0  0.17514  0.29711  0.73578  1.0000
  C   C535      1.0  0.09283  0.24444  0.61183  1.0000
  Fe  Fe102     1.0  0.06790  0.49161  0.49668  1.0000
  H   H860      1.0  0.00131  0.28742  0.62030  1.0000
  H   H861      1.0  0.35619  0.24618  0.82994  1.0000
  C   C536      1.0  0.34130  0.43501  0.81982  1.0000
  H   H862      1.0  0.40307  0.24657  0.83673  1.0000
  Fe  Fe103     1.0  0.01602  0.45862  0.95087  1.0000
  H   H863      1.0  0.20930  0.45237  0.79867  1.0000
  H   H864      1.0  0.21202  0.42942  0.78653  1.0000
  H   H865      1.0  0.04360  0.49051  0.89926  1.0000
  C   C537      1.0  0.36206  0.25092  0.80453  1.0000
  C   C538      1.0  0.05586  0.43922  0.89250  1.0000
  S   S215      1.0  0.02891  0.45413  0.93117  1.0000
  H   H866      1.0  0.18432  0.48272  0.77436  1.0000
  H   H867      1.0  0.23326  0.41138  0.76553  1.0000
  H   H868      1.0  0.18719  0.40075  0.81205  1.0000
  C   C539      1.0  0.25174  0.42839  0.76282  1.0000
  H   H869      1.0  0.30764  0.43915  0.81748  1.0000
  C   C540      1.0  0.28573  0.34214  0.76488  1.0000
  H   H870      1.0  0.21435  0.42651  0.85239  1.0000
  S   S216      1.0  0.15995  0.38394  0.79278  1.0000
  Fe  Fe104     1.0  0.44157  0.31964  0.79130  1.0000
  S   S217      1.0  0.42125  0.33850  0.80234  1.0000
  S   S218      1.0  0.47153  0.31808  0.78708  1.0000
  H   H871      1.0  0.37872  0.27645  0.80277  1.0000
  S   S219      1.0  0.39021  0.32005  0.79955  1.0000
  Fe  Fe105     1.0  0.40453  0.34197  0.78824  1.0000
  S   S220      1.0  0.39196  0.36951  0.77866  1.0000
  Fe  Fe106     1.0  0.40913  0.31488  0.81251  1.0000
  S   S221      1.0  0.40167  0.30938  0.83372  1.0000
  C   C541      1.0  0.07937  0.47481  0.87723  1.0000
  S   S222      1.0  0.43061  0.29572  0.80253  1.0000
  S   S223      1.0  0.27146  0.43446  0.81537  1.0000
  C   C542      1.0  0.03467  0.44121  0.97536  1.0000
  S   S224      1.0  0.27877  0.41710  0.79052  1.0000
  Fe  Fe107     1.0  0.25504  0.42940  0.80381  1.0000
  S   S225      1.0  0.23063  0.41776  0.80868  1.0000
  Fe  Fe108     1.0  0.29534  0.42464  0.80080  1.0000
  C   C543      1.0  0.31171  0.33736  0.74787  1.0000
  H   H872      1.0  0.46786  0.35943  0.81370  1.0000
  Fe  Fe109     1.0  0.15201  0.45492  0.84945  1.0000
  N   N55       1.0  0.21162  0.48176  0.83130  1.0000
  H   H873      1.0  0.17729  0.37503  0.82694  1.0000
  H   H874      1.0  0.17147  0.46620  0.78244  1.0000
  C   C544      1.0  0.24585  0.32205  0.77109  1.0000
  H   H875      1.0  0.32731  0.31682  0.76705  1.0000
  Fe  Fe110     1.0  0.13760  0.46413  0.82549  1.0000
  S   S226      1.0  0.14448  0.46001  0.80535  1.0000
  S   S227      1.0  0.13162  0.44501  0.84415  1.0000
  N   N56       1.0  0.33053  0.45104  0.81300  1.0000
  C   C545      1.0  0.21578  0.42228  0.82265  1.0000
  C   C546      1.0  0.19736  0.42583  0.82318  1.0000
  C   C547      1.0  0.18510  0.42984  0.83412  1.0000
  C   C548      1.0  0.19118  0.43023  0.84463  1.0000
  C   C549      1.0  0.20964  0.42624  0.84425  1.0000
  C   C550      1.0  0.22200  0.42244  0.83317  1.0000
  H   H876      1.0  0.19250  0.42607  0.81500  1.0000
  C   C551      1.0  0.03972  0.42952  0.88109  1.0000
  C   C552      1.0  0.37101  0.37928  0.78716  1.0000
  C   C553      1.0  0.35990  0.39395  0.78090  1.0000
  C   C554      1.0  0.34329  0.40208  0.78762  1.0000
  C   C555      1.0  0.33794  0.39577  0.80069  1.0000
  C   C556      1.0  0.34915  0.38125  0.80695  1.0000
  C   C557      1.0  0.36553  0.37288  0.80019  1.0000
  H   H877      1.0  0.48029  0.30169  0.81835  1.0000
  C   C558      1.0  0.25680  0.30764  0.77759  1.0000
  H   H878      1.0  0.34509  0.37633  0.81706  1.0000
  H   H879      1.0  0.37401  0.36161  0.80511  1.0000
  C   C559      1.0  0.15477  0.40512  0.79634  1.0000
  C   C560      1.0  0.15627  0.42017  0.78662  1.0000
  C   C561      1.0  0.15234  0.43697  0.78955  1.0000
  C   C562      1.0  0.14778  0.43877  0.80222  1.0000
  C   C563      1.0  0.14650  0.42368  0.81199  1.0000
  C   C564      1.0  0.14968  0.40691  0.80904  1.0000
  H   H880      1.0  0.15998  0.41891  0.77682  1.0000
  H   H881      1.0  0.15279  0.44860  0.78193  1.0000
  H   H882      1.0  0.14286  0.42496  0.82178  1.0000
  H   H883      1.0  0.14839  0.39530  0.81660  1.0000
  H   H884      1.0  0.23627  0.41951  0.83280  1.0000
  C   C565      1.0  0.33476  0.46714  0.81455  1.0000
  S   S228      1.0  0.40924  0.27950  0.78222  1.0000
  S   S229      1.0  0.19068  0.35518  0.76844  1.0000
  C   C566      1.0  0.38298  0.25725  0.85167  1.0000
  C   C567      1.0  0.19790  0.46056  0.79424  1.0000
  C   C568      1.0  0.39685  0.25814  0.84081  1.0000
  C   C569      1.0  0.40245  0.27425  0.83504  1.0000
  C   C570      1.0  0.39473  0.28919  0.84047  1.0000
  C   C571      1.0  0.38139  0.28801  0.85158  1.0000
  C   C572      1.0  0.37531  0.27219  0.85703  1.0000
  H   H885      1.0  0.33170  0.43870  0.79785  1.0000
  H   H886      1.0  0.41281  0.27500  0.82649  1.0000
  H   H887      1.0  0.37544  0.29951  0.85582  1.0000
  H   H888      1.0  0.36462  0.27156  0.86544  1.0000
  H   H889      1.0  0.45514  0.34066  0.80553  1.0000
  H   H890      1.0  0.45287  0.36171  0.76190  1.0000
  H   H891      1.0  0.36247  0.27506  0.81752  1.0000
  H   H892      1.0  0.25998  0.30866  0.78614  1.0000
  S   S230      1.0  0.17568  0.43793  0.85744  1.0000
  H   H893      1.0  0.32698  0.46259  0.79389  1.0000
  S   S231      1.0  0.11645  0.48709  0.83174  1.0000
  H   H894      1.0  0.25616  0.42178  0.77156  1.0000
  H   H895      1.0  0.43876  0.37061  0.79447  1.0000
  C   C573      1.0  0.05728  0.48488  0.89513  1.0000
  H   H896      1.0  0.43089  0.36118  0.77170  1.0000
  H   H897      1.0  0.42078  0.39338  0.76552  1.0000
  H   H898      1.0  0.47619  0.30033  0.84144  1.0000
  H   H899      1.0  0.03254  0.41861  0.90651  1.0000
  S   S232      1.0  0.29599  0.45167  0.78802  1.0000
  C   C574      1.0  0.05017  0.44552  0.96681  1.0000
  H   H900      1.0  0.15431  0.35741  0.74391  1.0000
  N   N57       1.0  0.45834  0.29351  0.83294  1.0000
  H   H901      1.0  0.05133  0.44732  0.95671  1.0000
  H   H902      1.0  0.39649  0.25498  0.77418  1.0000
  H   H903      1.0  0.31825  0.33897  0.76973  1.0000
  S   S233      1.0  0.02646  0.48297  0.94815  1.0000
  H   H904      1.0  0.25875  0.46220  0.73732  1.0000
  H   H905      1.0  0.19148  0.46632  0.84022  1.0000
  S   S234      1.0  0.01656  0.43974  0.96970  1.0000
  H   H906      1.0  0.20930  0.46145  0.84843  1.0000
  H   H907      1.0  0.28817  0.35513  0.76505  1.0000
  H   H908      1.0  0.47016  0.38206  0.76373  1.0000
  H   H909      1.0  0.30736  0.45197  0.82844  1.0000
  H   H910      1.0  0.03716  0.46446  0.87653  1.0000
  C   C575      1.0  0.31459  0.32649  0.76969  1.0000
  N   N58       1.0  0.44333  0.38035  0.77425  1.0000
  C   C576      1.0  0.44443  0.36301  0.77146  1.0000
  C   C577      1.0  0.43467  0.39471  0.76497  1.0000
  C   C578      1.0  0.46163  0.38249  0.77339  1.0000
  C   C579      1.0  0.43250  0.38111  0.78720  1.0000
  C   C580      1.0  0.06173  0.48238  0.88262  1.0000
  C   C581      1.0  0.20019  0.43816  0.78278  1.0000
  H   H911      1.0  0.18526  0.45732  0.80078  1.0000
  S   S235      1.0  0.13238  0.47694  0.85787  1.0000
  H   H912      1.0  0.43606  0.31323  0.83997  1.0000
  H   H913      1.0  0.10630  0.46427  0.88026  1.0000
  H   H914      1.0  0.46855  0.37166  0.78020  1.0000
  H   H915      1.0  0.01433  0.48606  0.97604  1.0000
  C   C582      1.0  0.49826  0.33211  0.78905  1.0000
  H   H916      1.0  0.21720  0.47555  0.77223  1.0000
  C   C583      1.0  0.06451  0.44695  0.97130  1.0000
  H   H917      1.0  0.15577  0.28766  0.74383  1.0000
  C   C584      1.0  0.48005  0.33144  0.79320  1.0000
  H   H918      1.0  0.45037  0.35182  0.77848  1.0000
  S   S236      1.0  0.15931  0.47233  0.83037  1.0000
  H   H919      1.0  0.01282  0.43347  0.90167  1.0000
  S   S237      1.0  0.17858  0.39721  0.75432  1.0000
  C   C585      1.0  0.36839  0.30200  0.76359  1.0000
  H   H920      1.0  0.45468  0.32196  0.82923  1.0000
  C   C586      1.0  0.23875  0.42249  0.75939  1.0000
  S   S238      1.0  0.22004  0.37478  0.74629  1.0000
  C   C587      1.0  0.37556  0.26818  0.81249  1.0000
  S   S239      1.0  0.21577  0.42534  0.74362  1.0000
  H   H921      1.0  0.06261  0.42538  0.89624  1.0000
  N   N59       1.0  0.03789  0.44003  0.89056  1.0000
  H   H922      1.0  0.33473  0.41328  0.78272  1.0000
  H   H923      1.0  0.38480  0.31128  0.77198  1.0000
  S   S240      1.0  0.31791  0.40626  0.80972  1.0000
  H   H924      1.0  0.28837  0.31473  0.75515  1.0000
  H   H925      1.0  0.34918  0.46751  0.81058  1.0000
  S   S241      1.0  0.08388  0.46932  0.86231  1.0000
  S   S242      1.0  0.25230  0.45703  0.79204  1.0000
  C   C588      1.0  0.20076  0.47236  0.84275  1.0000
  Fe  Fe111     1.0  0.17967  0.38163  0.77421  1.0000
  Fe  Fe112     1.0  0.11233  0.46877  0.85097  1.0000
  H   H926      1.0  0.09873  0.46986  0.90204  1.0000
  C   C589      1.0  0.29863  0.31270  0.76081  1.0000
  H   H927      1.0  0.06482  0.44431  0.88344  1.0000
  C   C590      1.0  0.33482  0.45066  0.79936  1.0000
  H   H928      1.0  0.02819  0.46716  0.89265  1.0000
  C   C591      1.0  0.46912  0.34123  0.80216  1.0000
  Fe  Fe113     1.0  0.03710  0.48002  0.92796  1.0000
  S   S243      1.0  0.42591  0.32477  0.77619  1.0000
  H   H929      1.0  0.04613  0.41534  0.88428  1.0000
  H   H930      1.0  0.29355  0.30565  0.77061  1.0000
  H   H931      1.0  0.23233  0.45845  0.82867  1.0000
  C   C592      1.0  0.39211  0.28285  0.77401  1.0000
  Fe  Fe114     1.0  0.20656  0.39974  0.75343  1.0000
  Fe  Fe115     1.0  0.21735  0.36122  0.76676  1.0000
  H   H932      1.0  0.33825  0.43469  0.83017  1.0000
  H   H933      1.0  0.19235  0.48143  0.84907  1.0000
  C   C593      1.0  0.18448  0.46833  0.77600  1.0000
  Fe  Fe116     1.0  0.29783  0.25966  0.75913  1.0000
  C   C594      1.0  0.26002  0.29069  0.76182  1.0000
  S   S244      1.0  0.31127  0.26450  0.77276  1.0000
  C   C595      1.0  0.26389  0.29197  0.77295  1.0000
  C   C596      1.0  0.02933  0.45870  0.88591  1.0000
  H   H934      1.0  0.23288  0.48005  0.84039  1.0000
  H   H935      1.0  0.37184  0.25876  0.76337  1.0000
  H   H936      1.0  0.44011  0.28192  0.82826  1.0000
  C   C597      1.0  0.25901  0.44278  0.75485  1.0000
  H   H937      1.0  0.48084  0.27814  0.82204  1.0000
  C   C598      1.0  0.22281  0.46890  0.82346  1.0000
  H   H938      1.0  0.18488  0.46534  0.76676  1.0000
  C   C599      1.0  0.46755  0.29059  0.84341  1.0000
  Fe  Fe117     1.0  0.27135  0.46117  0.80211  1.0000
  N   N60       1.0  0.20261  0.37398  0.81351  1.0000
  C   C600      1.0  0.21450  0.36233  0.80496  1.0000
  H   H939      1.0  0.34932  0.45029  0.79510  1.0000
  C   C601      1.0  0.07060  0.48034  0.90217  1.0000
  Fe  Fe118     1.0  0.27679  0.44495  0.77916  1.0000
  H   H940      1.0  0.19035  0.48988  0.82104  1.0000
  H   H941      1.0  0.19030  0.35294  0.82608  1.0000
  H   H942      1.0  0.36092  0.31520  0.76033  1.0000
  H   H943      1.0  0.32673  0.47946  0.80961  1.0000
  S   S245      1.0  0.23870  0.34212  0.77630  1.0000
  C   C602      1.0  0.19692  0.39193  0.80597  1.0000
  H   H944      1.0  0.45773  0.29184  0.85252  1.0000
  H   H945      1.0  0.01545  0.45991  0.88481  1.0000
  H   H946      1.0  0.41871  0.37914  0.78824  1.0000
  H   H947      1.0  0.27237  0.28089  0.77799  1.0000
  H   H948      1.0  0.21665  0.36195  0.82872  1.0000
  H   H949      1.0  0.02641  0.42994  0.87935  1.0000
  C   C603      1.0  0.02662  0.43273  0.90272  1.0000
  C   C604      1.0  0.44678  0.31154  0.83131  1.0000
  C   C605      1.0  0.31121  0.45131  0.81824  1.0000
  C   C606      1.0  0.38847  0.26810  0.77144  1.0000
  H   H950      1.0  0.20858  0.39826  0.80102  1.0000
  C   C607      1.0  0.47636  0.35178  0.80682  1.0000
  H   H951      1.0  0.21838  0.45930  0.76350  1.0000
  H   H952      1.0  0.20388  0.38424  0.82906  1.0000
  C   C608      1.0  0.18657  0.36658  0.82039  1.0000
  H   H953      1.0  0.17879  0.36581  0.81368  1.0000
  H   H954      1.0  0.07963  0.48307  0.96083  1.0000
  C   C609      1.0  0.08839  0.47344  0.89661  1.0000
  H   H955      1.0  0.05508  0.44740  0.89935  1.0000
  H   H956      1.0  0.19007  0.39147  0.79868  1.0000
  S   S246      1.0  0.34744  0.29022  0.75306  1.0000
  H   H957      1.0  0.44233  0.39439  0.75508  1.0000
  H   H958      1.0  0.18794  0.43425  0.78939  1.0000
  C   C610      1.0  0.47184  0.29162  0.82106  1.0000
  C   C611      1.0  0.36453  0.28718  0.76126  1.0000
  H   H959      1.0  0.23097  0.47557  0.81462  1.0000
  H   H960      1.0  0.20730  0.36056  0.79825  1.0000
  H   H961      1.0  0.30812  0.32090  0.77958  1.0000
  H   H962      1.0  0.27632  0.34481  0.75845  1.0000
  N   N61       1.0  0.37512  0.24998  0.81207  1.0000
  H   H963      1.0  0.20102  0.43517  0.77345  1.0000
  H   H964      1.0  0.19741  0.47477  0.79369  1.0000
  H   H965      1.0  0.30320  0.33963  0.74091  1.0000
  C   C612      1.0  0.24008  0.44551  0.74026  1.0000
  H   H966      1.0  0.43668  0.28125  0.84481  1.0000
  H   H967      1.0  0.46534  0.29347  0.81300  1.0000
  H   H968      1.0  0.45555  0.26648  0.83726  1.0000
  H   H969      1.0  0.02507  0.44040  0.91003  1.0000
  N   N62       1.0  0.30266  0.32969  0.76081  1.0000
  S   S247      1.0  0.27016  0.27182  0.75531  1.0000
  S   S248      1.0  0.20638  0.38658  0.77364  1.0000
  H   H970      1.0  0.36407  0.39891  0.77081  1.0000
  Fe  Fe119     1.0  0.41280  0.30259  0.78856  1.0000
  H   H971      1.0  0.43365  0.40804  0.76672  1.0000
  H   H972      1.0  0.22464  0.38057  0.81773  1.0000
  H   H973      1.0  0.34831  0.25767  0.80870  1.0000
  C   C613      1.0  0.21237  0.37518  0.82268  1.0000
  H   H974      1.0  0.22633  0.36792  0.79912  1.0000
  H   H975      1.0  0.21964  0.34884  0.81033  1.0000
  H   H976      1.0  0.07665  0.44982  0.96466  1.0000
  H   H977      1.0  0.47630  0.27701  0.84492  1.0000
  H   H978      1.0  0.31481  0.35029  0.74746  1.0000
  H   H979      1.0  0.17087  0.43281  0.83437  1.0000
  N   N63       1.0  0.19981  0.45713  0.78156  1.0000
  C   C614      1.0  0.38197  0.29982  0.77014  1.0000
  H   H980      1.0  0.21442  0.46202  0.82071  1.0000
  H   H981      1.0  0.43110  0.39414  0.78955  1.0000
  C   C615      1.0  0.37451  0.27021  0.76530  1.0000
  H   H982      1.0  0.39777  0.24819  0.79635  1.0000
  C   C616      1.0  0.24143  0.32057  0.76020  1.0000
  S   S249      1.0  0.27504  0.45105  0.75866  1.0000
  H   H983      1.0  0.04822  0.43474  0.87182  1.0000
  H   H984      1.0  0.13153  0.34795  0.73712  1.0000
  H   H985      1.0  0.46136  0.39533  0.77561  1.0000
  H   H986      1.0  0.23285  0.33162  0.75520  1.0000
  H   H987      1.0  0.43986  0.31416  0.82336  1.0000
  C   C617      1.0  0.24847  0.30485  0.75559  1.0000
  H   H988      1.0  0.30265  0.46292  0.81309  1.0000
  Fe  Fe120     1.0  0.00317  0.47136  0.92611  1.0000
  Fe  Fe121     1.0  0.33481  0.26672  0.75634  1.0000
  C   C618      1.0  0.23280  0.43118  0.74812  1.0000
  H   H989      1.0  0.24533  0.30385  0.74703  1.0000
  H   H990      1.0  0.33174  0.46784  0.82473  1.0000
  C   C619      1.0  0.09273  0.47046  0.88422  1.0000
  C   C620      1.0  0.49465  0.35230  0.80275  1.0000
  Fe  Fe122     1.0  0.19200  0.37107  0.74833  1.0000
  C   C621      1.0  0.44718  0.28019  0.83597  1.0000
  C   C622      1.0  0.21671  0.46147  0.77320  1.0000
  H   H991      1.0  0.29800  0.48976  0.79226  1.0000
  H   H992      1.0  0.10040  0.48272  0.97387  1.0000
  H   H993      1.0  0.36581  0.25838  0.79461  1.0000
  S   S250      1.0  0.06517  0.48300  0.91794  1.0000
  H   H994      1.0  0.22860  0.45297  0.77695  1.0000
  C   C623      1.0  0.06316  0.44472  0.98434  1.0000
  H   H995      1.0  0.35595  0.43436  0.81613  1.0000
  H   H996      1.0  0.27851  0.33663  0.77458  1.0000
  H   H997      1.0  0.31077  0.30354  0.75669  1.0000
  H   H998      1.0  0.06117  0.49081  0.97273  1.0000
  C   C624      1.0  0.25321  0.45113  0.74353  1.0000
  H   H999      1.0  0.33850  0.42262  0.81874  1.0000
  S   S251      1.0  0.26526  0.48482  0.81142  1.0000
  C   C625      1.0  0.22323  0.49017  0.83513  1.0000
  H   H1000     1.0  0.38604  0.26807  0.81741  1.0000
  H   H1001     1.0  0.05150  0.48631  0.87711  1.0000
  H   H1002     1.0  0.32466  0.32827  0.74464  1.0000
  S   S252      1.0  0.32039  0.26419  0.74239  1.0000
  H   H1003     1.0  0.08198  0.49108  0.98554  1.0000
  Fe  Fe123     1.0  0.10892  0.59003  0.04581  1.0000
  S   S253      1.0  0.10049  0.56453  0.04784  1.0000
  S   S254      1.0  0.12572  0.58457  0.06059  1.0000
  Fe  Fe124     1.0  0.09329  0.60645  0.02216  1.0000
  S   S255      1.0  0.08414  0.58225  0.02255  1.0000
  Fe  Fe125     1.0  0.07448  0.58112  0.04328  1.0000
  Fe  Fe126     1.0  0.11088  0.56785  0.02698  1.0000
  S   S256      1.0  0.12723  0.54342  0.01998  1.0000
  S   S257      1.0  0.08160  0.60663  0.04296  1.0000
  S   S258      1.0  0.12111  0.59210  0.02496  1.0000
  S   S259      1.0  0.06931  0.52288  0.00153  1.0000
  Fe  Fe127     1.0  0.18617  0.61684  0.12169  1.0000
  S   S260      1.0  0.19674  0.63009  0.10163  1.0000
  S   S261      1.0  0.17721  0.62872  0.13918  1.0000
  Fe  Fe128     1.0  0.19372  0.58062  0.11476  1.0000
  S   S262      1.0  0.20485  0.59102  0.09423  1.0000
  S   S263      1.0  0.19467  0.55130  0.12194  1.0000
  Fe  Fe129     1.0  0.21889  0.60555  0.10175  1.0000
  S   S264      1.0  0.24895  0.60170  0.09634  1.0000
  Fe  Fe130     1.0  0.18140  0.61420  0.09608  1.0000
  S   S265      1.0  0.16291  0.62740  0.08214  1.0000
  S   S266      1.0  0.20935  0.59354  0.12214  1.0000
  S   S267      1.0  0.16922  0.60266  0.11629  1.0000
  C   C626      1.0  0.37182  0.69620  0.15614  1.0000
  S   S268      1.0  0.04908  0.57073  0.05190  1.0000
  H   H1004     1.0  0.19958  0.68362  0.20752  1.0000
  H   H1005     1.0  0.24587  0.52272  0.09801  1.0000
  H   H1006     1.0  0.28189  0.71570  0.11693  1.0000
  S   S269      1.0  0.15958  0.52629  0.08734  1.0000
  H   H1007     1.0  0.26686  0.56095  0.09447  1.0000
  H   H1008     1.0  0.03799  0.60494  0.01068  1.0000
  H   H1009     1.0  0.22722  0.54110  0.10064  1.0000
  S   S270      1.0  0.20015  0.68256  0.18066  1.0000
  H   H1010     1.0  0.15898  0.57533  0.06827  1.0000
  Fe  Fe131     1.0  0.42947  0.67155  0.15279  1.0000
  S   S271      1.0  0.43708  0.67506  0.16983  1.0000
  S   S272      1.0  0.41353  0.65010  0.15703  1.0000
  Fe  Fe132     1.0  0.46304  0.67985  0.15657  1.0000
  C   C627      1.0  0.03137  0.61455  0.00319  1.0000
  S   S273      1.0  0.45657  0.67388  0.14002  1.0000
  Fe  Fe133     1.0  0.31609  0.60888  0.15430  1.0000
  S   S274      1.0  0.31252  0.63765  0.14440  1.0000
  S   S275      1.0  0.30817  0.59752  0.17506  1.0000
  Fe  Fe134     1.0  0.33097  0.59530  0.13012  1.0000
  S   S276      1.0  0.32908  0.62275  0.11783  1.0000
  S   S277      1.0  0.34293  0.56972  0.12316  1.0000
  Fe  Fe135     1.0  0.33976  0.62924  0.13239  1.0000
  S   S278      1.0  0.35967  0.64735  0.12495  1.0000
  Fe  Fe136     1.0  0.30219  0.62908  0.13072  1.0000
  S   S279      1.0  0.27684  0.64446  0.12430  1.0000
  S   S280      1.0  0.34425  0.60102  0.14349  1.0000
  S   S281      1.0  0.30312  0.60124  0.14181  1.0000
  N   N64       1.0  0.36723  0.69030  0.17009  1.0000
  H   H1011     1.0  0.07829  0.53849  0.06143  1.0000
  C   C628      1.0  0.08053  0.62770  0.99346  1.0000
  H   H1012     1.0  0.24640  0.67977  0.12796  1.0000
  H   H1013     1.0  0.01459  0.56464  0.05260  1.0000
  S   S282      1.0  0.28874  0.51872  0.13655  1.0000
  C   C629      1.0  0.25361  0.68879  0.11999  1.0000
  C   C630      1.0  0.32775  0.55608  0.12514  1.0000
  C   C631      1.0  0.30921  0.56261  0.12824  1.0000
  C   C632      1.0  0.29736  0.55107  0.13147  1.0000
  C   C633      1.0  0.30392  0.53301  0.13126  1.0000
  C   C634      1.0  0.32239  0.52660  0.12746  1.0000
  C   C635      1.0  0.33430  0.53813  0.12445  1.0000
  H   H1014     1.0  0.30395  0.57654  0.12819  1.0000
  H   H1015     1.0  0.28305  0.55616  0.13417  1.0000
  H   H1016     1.0  0.32754  0.51268  0.12719  1.0000
  H   H1017     1.0  0.34862  0.53300  0.12189  1.0000
  C   C636      1.0  0.39872  0.64960  0.14790  1.0000
  C   C637      1.0  0.38755  0.63726  0.15265  1.0000
  C   C638      1.0  0.37530  0.63663  0.14582  1.0000
  C   C639      1.0  0.37427  0.64825  0.13409  1.0000
  C   C640      1.0  0.38549  0.66055  0.12930  1.0000
  C   C641      1.0  0.39764  0.66129  0.13620  1.0000
  H   H1018     1.0  0.38834  0.62817  0.16170  1.0000
  H   H1019     1.0  0.36672  0.62711  0.14961  1.0000
  H   H1020     1.0  0.38481  0.66954  0.12021  1.0000
  H   H1021     1.0  0.40625  0.67079  0.13242  1.0000
  C   C642      1.0  0.25327  0.62960  0.19068  1.0000
  C   C643      1.0  0.26029  0.63232  0.17760  1.0000
  C   C644      1.0  0.27705  0.62231  0.17279  1.0000
  C   C645      1.0  0.28682  0.60944  0.18105  1.0000
  C   C646      1.0  0.27950  0.60619  0.19411  1.0000
  C   C647      1.0  0.26270  0.61624  0.19892  1.0000
  H   H1022     1.0  0.25275  0.64198  0.17116  1.0000
  H   H1023     1.0  0.28240  0.62461  0.16268  1.0000
  H   H1024     1.0  0.28697  0.59617  0.20052  1.0000
  C   C648      1.0  0.49451  0.70526  0.17824  1.0000
  H   H1025     1.0  0.21810  0.72533  0.19964  1.0000
  N   N65       1.0  0.07998  0.51844  0.05142  1.0000
  H   H1026     1.0  0.22660  0.66478  0.21543  1.0000
  C   C649      1.0  0.00823  0.59824  0.00698  1.0000
  H   H1027     1.0  0.19336  0.70004  0.23019  1.0000
  H   H1028     1.0  0.35744  0.66856  0.18381  1.0000
  H   H1029     1.0  0.02395  0.55361  0.00994  1.0000
  H   H1030     1.0  0.24653  0.56283  0.08970  1.0000
  H   H1031     1.0  0.24332  0.69830  0.11499  1.0000
  H   H1032     1.0  0.36017  0.69796  0.15182  1.0000
  H   H1033     1.0  0.04290  0.58164  0.99907  1.0000
  S   S283      1.0  0.49148  0.66979  0.15931  1.0000
  H   H1034     1.0  0.26833  0.67589  0.14013  1.0000
  H   H1035     1.0  0.26551  0.71855  0.10769  1.0000
  C   C650      1.0  0.17746  0.73737  0.21862  1.0000
  H   H1036     1.0  0.34054  0.70668  0.17166  1.0000
  H   H1037     1.0  0.47338  0.69596  0.17483  1.0000
  H   H1038     1.0  0.25774  0.71694  0.13654  1.0000
  H   H1039     1.0  0.40983  0.59719  0.09310  1.0000
  H   H1040     1.0  0.38299  0.68633  0.15179  1.0000
  C   C651      1.0  0.18352  0.65118  0.15133  1.0000
  H   H1041     1.0  0.05777  0.50571  0.05531  1.0000
  H   H1042     1.0  0.25725  0.61395  0.20904  1.0000
  H   H1043     1.0  0.28626  0.67616  0.12645  1.0000
  H   H1044     1.0  0.41707  0.58680  0.10775  1.0000
  Fe  Fe137     1.0  0.42636  0.70409  0.16294  1.0000
  H   H1045     1.0  0.21454  0.69491  0.21950  1.0000
  H   H1046     1.0  0.48538  0.71425  0.18399  1.0000
  C   C652      1.0  0.18636  0.64628  0.13969  1.0000
  C   C653      1.0  0.19666  0.65518  0.12885  1.0000
  C   C654      1.0  0.20369  0.66916  0.12960  1.0000
  H   H1047     1.0  0.19894  0.65151  0.11984  1.0000
  H   H1048     1.0  0.21136  0.67620  0.12113  1.0000
  C   C655      1.0  0.25690  0.61404  0.10364  1.0000
  C   C656      1.0  0.24606  0.62972  0.10710  1.0000
  C   C657      1.0  0.25254  0.63940  0.11300  1.0000
  C   C658      1.0  0.26962  0.63310  0.11584  1.0000
  C   C659      1.0  0.28043  0.61738  0.11244  1.0000
  C   C660      1.0  0.27415  0.60797  0.10622  1.0000
  H   H1049     1.0  0.23276  0.63453  0.10508  1.0000
  H   H1050     1.0  0.24415  0.65161  0.11553  1.0000
  H   H1051     1.0  0.29367  0.61247  0.11454  1.0000
  H   H1052     1.0  0.28258  0.59585  0.10355  1.0000
  C   C661      1.0  0.18600  0.54366  0.11207  1.0000
  C   C662      1.0  0.18559  0.52566  0.11422  1.0000
  C   C663      1.0  0.17798  0.51991  0.10645  1.0000
  C   C664      1.0  0.17078  0.53222  0.09660  1.0000
  C   C665      1.0  0.17170  0.55002  0.09435  1.0000
  C   C666      1.0  0.17922  0.55574  0.10206  1.0000
  H   H1053     1.0  0.19090  0.51625  0.12196  1.0000
  H   H1054     1.0  0.17735  0.50612  0.10825  1.0000
  H   H1055     1.0  0.16642  0.55947  0.08671  1.0000
  H   H1056     1.0  0.17935  0.56964  0.10038  1.0000
  C   C667      1.0  0.11405  0.53735  0.01228  1.0000
  C   C668      1.0  0.11344  0.51950  0.01431  1.0000
  C   C669      1.0  0.10007  0.51492  0.01059  1.0000
  C   C670      1.0  0.08764  0.52813  0.00452  1.0000
  C   C671      1.0  0.08923  0.54585  0.00153  1.0000
  C   C672      1.0  0.10246  0.55044  0.00542  1.0000
  H   H1057     1.0  0.12267  0.50929  0.01936  1.0000
  S   S284      1.0  0.40963  0.72206  0.17617  1.0000
  C   C673      1.0  0.21739  0.65976  0.22437  1.0000
  H   H1058     1.0  0.10356  0.56416  0.00326  1.0000
  C   C674      1.0  0.13814  0.59789  0.06350  1.0000
  C   C675      1.0  0.13153  0.61605  0.06322  1.0000
  C   C676      1.0  0.13973  0.62512  0.06851  1.0000
  C   C677      1.0  0.15446  0.61610  0.07418  1.0000
  C   C678      1.0  0.16166  0.59822  0.07376  1.0000
  C   C679      1.0  0.15359  0.58924  0.06836  1.0000
  H   H1059     1.0  0.11959  0.62288  0.05956  1.0000
  H   H1060     1.0  0.13422  0.63903  0.06864  1.0000
  H   H1061     1.0  0.17327  0.59124  0.07779  1.0000
  H   H1062     1.0  0.10469  0.50417  0.05725  1.0000
  H   H1063     1.0  0.07830  0.52584  0.03179  1.0000
  H   H1064     1.0  0.07662  0.49227  0.06191  1.0000
  H   H1065     1.0  0.08016  0.54348  0.03807  1.0000
  H   H1066     1.0  0.24215  0.70269  0.14061  1.0000
  H   H1067     1.0  0.07727  0.51680  0.07133  1.0000
  H   H1068     1.0  0.07085  0.65591  0.98803  1.0000
  H   H1069     1.0  0.16342  0.73738  0.21986  1.0000
  H   H1070     1.0  0.22762  0.73793  0.21396  1.0000
  C   C680      1.0  0.01775  0.54671  0.01953  1.0000
  H   H1071     1.0  0.02888  0.53948  0.02453  1.0000
  C   C681      1.0  0.24811  0.73812  0.17759  1.0000
  N   N66       1.0  0.39121  0.60464  0.10971  1.0000
  H   H1072     1.0  0.18854  0.66858  0.16114  1.0000
  H   H1073     1.0  0.23570  0.54594  0.12450  1.0000
  H   H1074     1.0  0.37184  0.66278  0.16947  1.0000
  N   N67       1.0  0.12039  0.57985  0.10511  1.0000
  C   C682      1.0  0.12513  0.56573  0.09780  1.0000
  C   C683      1.0  0.13679  0.58218  0.10781  1.0000
  C   C684      1.0  0.10780  0.57477  0.11720  1.0000
  C   C685      1.0  0.11184  0.59674  0.09765  1.0000
  H   H1075     1.0  0.11307  0.56350  0.09568  1.0000
  H   H1076     1.0  0.13202  0.55284  0.10297  1.0000
  H   H1077     1.0  0.13430  0.56925  0.08850  1.0000
  H   H1078     1.0  0.14356  0.56977  0.11355  1.0000
  H   H1079     1.0  0.14667  0.58586  0.09890  1.0000
  H   H1080     1.0  0.13377  0.59296  0.11310  1.0000
  H   H1081     1.0  0.11388  0.56199  0.12299  1.0000
  H   H1082     1.0  0.09521  0.57305  0.11551  1.0000
  H   H1083     1.0  0.10407  0.58506  0.12300  1.0000
  H   H1084     1.0  0.10779  0.60766  0.10292  1.0000
  H   H1085     1.0  0.09977  0.59541  0.09499  1.0000
  H   H1086     1.0  0.12125  0.60111  0.08867  1.0000
  C   C686      1.0  0.38201  0.62136  0.10244  1.0000
  C   C687      1.0  0.39179  0.60733  0.12213  1.0000
  H   H1087     1.0  0.36776  0.62531  0.10732  1.0000
  H   H1088     1.0  0.38195  0.62008  0.09281  1.0000
  H   H1089     1.0  0.38846  0.63262  0.10136  1.0000
  H   H1090     1.0  0.36723  0.59419  0.11705  1.0000
  H   H1091     1.0  0.37805  0.61100  0.12789  1.0000
  H   H1092     1.0  0.39863  0.61832  0.12102  1.0000
  H   H1093     1.0  0.27387  0.52024  0.10452  1.0000
  H   H1094     1.0  0.09905  0.50125  0.01290  1.0000
  H   H1095     1.0  0.41751  0.60979  0.10087  1.0000
  C   C688      1.0  0.08266  0.61115  0.99048  1.0000
  H   H1096     1.0  0.41448  0.73087  0.12683  1.0000
  S   S285      1.0  0.23133  0.69346  0.19003  1.0000
  H   H1097     1.0  0.24986  0.56164  0.11630  1.0000
  H   H1098     1.0  0.10592  0.52524  0.04641  1.0000
  Fe  Fe138     1.0  0.21446  0.69241  0.16075  1.0000
  C   C689      1.0  0.20552  0.68936  0.22835  1.0000
  H   H1099     1.0  0.26527  0.54475  0.08655  1.0000
  C   C690      1.0  0.39025  0.73552  0.17119  1.0000
  Fe  Fe139     1.0  0.44481  0.70315  0.13568  1.0000
  S   S286      1.0  0.41713  0.70034  0.14678  1.0000
  C   C691      1.0  0.27426  0.70853  0.11371  1.0000
  S   S287      1.0  0.08785  0.63009  0.00634  1.0000
  H   H1100     1.0  0.08945  0.59923  0.99602  1.0000
  S   S288      1.0  0.20987  0.69157  0.14190  1.0000
  C   C692      1.0  0.23879  0.53200  0.10451  1.0000
  S   S289      1.0  0.45293  0.70917  0.15140  1.0000
  S   S290      1.0  0.45274  0.72206  0.11737  1.0000
  H   H1101     1.0  0.03098  0.51369  0.01602  1.0000
  C   C693      1.0  0.25775  0.55306  0.09362  1.0000
  C   C694      1.0  0.19016  0.73047  0.20873  1.0000
  H   H1102     1.0  0.26164  0.52116  0.12044  1.0000
  C   C695      1.0  0.26627  0.52945  0.11097  1.0000
  H   H1103     1.0  0.22955  0.56323  0.11151  1.0000
  C   C696      1.0  0.07269  0.50245  0.05359  1.0000
  H   H1104     1.0  0.27584  0.53655  0.11215  1.0000
  N   N68       1.0  0.32496  0.54357  0.16553  1.0000
  C   C697      1.0  0.31199  0.55768  0.15913  1.0000
  C   C698      1.0  0.33523  0.53140  0.15694  1.0000
  C   C699      1.0  0.31516  0.53359  0.17727  1.0000
  C   C700      1.0  0.33739  0.55175  0.16871  1.0000
  H   H1105     1.0  0.30226  0.55211  0.15664  1.0000
  H   H1106     1.0  0.31907  0.56519  0.15016  1.0000
  H   H1107     1.0  0.30422  0.56740  0.16519  1.0000
  H   H1108     1.0  0.34494  0.52031  0.16150  1.0000
  H   H1109     1.0  0.32617  0.52545  0.15402  1.0000
  H   H1110     1.0  0.34300  0.53853  0.14807  1.0000
  H   H1111     1.0  0.32454  0.52287  0.18240  1.0000
  H   H1112     1.0  0.30568  0.52727  0.17515  1.0000
  H   H1113     1.0  0.30716  0.54251  0.18387  1.0000
  H   H1114     1.0  0.34476  0.55962  0.16003  1.0000
  H   H1115     1.0  0.34751  0.54153  0.17348  1.0000
  H   H1116     1.0  0.33003  0.56106  0.17517  1.0000
  N   N69       1.0  0.15910  0.53685  0.04859  1.0000
  C   C701      1.0  0.14333  0.53547  0.05921  1.0000
  C   C702      1.0  0.15532  0.55384  0.03942  1.0000
  C   C703      1.0  0.16290  0.52188  0.04221  1.0000
  C   C704      1.0  0.17479  0.53622  0.05358  1.0000
  H   H1117     1.0  0.14574  0.52278  0.06627  1.0000
  H   H1118     1.0  0.13121  0.53605  0.05580  1.0000
  H   H1119     1.0  0.14018  0.54645  0.06435  1.0000
  H   H1120     1.0  0.16669  0.55511  0.03108  1.0000
  H   H1121     1.0  0.14321  0.55501  0.03579  1.0000
  H   H1122     1.0  0.15284  0.56543  0.04384  1.0000
  H   H1123     1.0  0.17462  0.52250  0.03407  1.0000
  H   H1124     1.0  0.15124  0.52189  0.03842  1.0000
  H   H1125     1.0  0.16591  0.50885  0.04885  1.0000
  H   H1126     1.0  0.18691  0.53743  0.04584  1.0000
  H   H1127     1.0  0.17805  0.52354  0.06050  1.0000
  H   H1128     1.0  0.17213  0.54715  0.05870  1.0000
  H   H1129     1.0  0.39959  0.73225  0.15188  1.0000
  H   H1130     1.0  0.02152  0.62512  0.00773  1.0000
  C   C705      1.0  0.01961  0.52116  0.01140  1.0000
  H   H1131     1.0  0.28263  0.69134  0.13666  1.0000
  N   N70       1.0  0.00748  0.53436  0.01860  1.0000
  S   S291      1.0  0.18309  0.72239  0.19816  1.0000
  C   C706      1.0  0.27575  0.68484  0.13229  1.0000
  H   H1132     1.0  0.23306  0.52395  0.11378  1.0000
  H   H1133     1.0  0.10528  0.50650  0.04083  1.0000
  C   C707      1.0  0.19121  0.67800  0.21665  1.0000
  C   C708      1.0  0.24115  0.55370  0.11501  1.0000
  H   H1134     1.0  0.49095  0.73256  0.11587  1.0000
  C   C709      1.0  0.48771  0.69495  0.17304  1.0000
  C   C710      1.0  0.38859  0.73777  0.15873  1.0000
  H   H1135     1.0  0.07783  0.49602  0.04527  1.0000
  C   C711      1.0  0.01464  0.61895  0.98708  1.0000
  S   S292      1.0  0.21604  0.71804  0.16468  1.0000
  H   H1136     1.0  0.39893  0.59513  0.12780  1.0000
  N   N71       1.0  0.23546  0.61372  0.15112  1.0000
  C   C712      1.0  0.23445  0.63308  0.14688  1.0000
  C   C713      1.0  0.24048  0.60753  0.16362  1.0000
  C   C714      1.0  0.24911  0.60441  0.14180  1.0000
  C   C715      1.0  0.21780  0.60992  0.15215  1.0000
  H   H1137     1.0  0.23040  0.63826  0.13758  1.0000
  H   H1138     1.0  0.24761  0.63646  0.14576  1.0000
  H   H1139     1.0  0.22442  0.64053  0.15375  1.0000
  H   H1140     1.0  0.24089  0.59308  0.16732  1.0000
  H   H1141     1.0  0.25398  0.60980  0.16302  1.0000
  H   H1142     1.0  0.23076  0.61474  0.17078  1.0000
  H   H1143     1.0  0.25067  0.58974  0.14487  1.0000
  H   H1144     1.0  0.26248  0.60759  0.14033  1.0000
  H   H1145     1.0  0.24535  0.60834  0.13239  1.0000
  H   H1146     1.0  0.21380  0.61428  0.14279  1.0000
  H   H1147     1.0  0.20701  0.61703  0.15887  1.0000
  H   H1148     1.0  0.21792  0.59548  0.15542  1.0000
  C   C716      1.0  0.38327  0.68750  0.17533  1.0000
  H   H1149     1.0  0.39438  0.67706  0.17156  1.0000
  H   H1150     1.0  0.38029  0.68328  0.18585  1.0000
  H   H1151     1.0  0.38848  0.69985  0.17287  1.0000
  H   H1152     1.0  0.38766  0.57770  0.11725  1.0000
  H   H1153     1.0  0.04242  0.60765  0.03885  1.0000
  H   H1154     1.0  0.17552  0.64438  0.15974  1.0000
  S   S293      1.0  0.23290  0.64298  0.19685  1.0000
  C   C717      1.0  0.38129  0.59053  0.11171  1.0000
  H   H1155     1.0  0.02950  0.58391  0.98780  1.0000
  C   C718      1.0  0.20087  0.67400  0.14125  1.0000
  H   H1156     1.0  0.38048  0.58813  0.10257  1.0000
  Fe  Fe140     1.0  0.20462  0.70674  0.18503  1.0000
  N   N72       1.0  0.25100  0.54203  0.10603  1.0000
  C   C719      1.0  0.01484  0.57834  0.04793  1.0000
  C   C720      1.0  0.48906  0.73524  0.12546  1.0000
  C   C721      1.0  0.40973  0.59936  0.10253  1.0000
  C   C722      1.0  0.36110  0.67341  0.17335  1.0000
  Fe  Fe141     1.0  0.22779  0.67010  0.18422  1.0000
  C   C723      1.0  0.19091  0.66485  0.15214  1.0000
  S   S294      1.0  0.24187  0.67817  0.16406  1.0000
  C   C724      1.0  0.03030  0.58482  0.04624  1.0000
  C   C725      1.0  0.03054  0.60254  0.04020  1.0000
  C   C726      1.0  0.07319  0.52630  0.06280  1.0000
  C   C727      1.0  0.35280  0.70406  0.17550  1.0000
  C   C728      1.0  0.03588  0.59134  0.99182  1.0000
  H   H1157     1.0  0.37613  0.70911  0.15331  1.0000
  C   C729      1.0  0.09982  0.51340  0.04890  1.0000
  H   H1158     1.0  0.24211  0.49788  0.08549  1.0000
  H   H1159     1.0  0.01042  0.51625  0.03643  1.0000
  H   H1160     1.0  0.34916  0.67489  0.16941  1.0000
  H   H1161     1.0  0.07988  0.55610  0.99664  1.0000
  H   H1162     1.0  0.00446  0.63000  0.99086  1.0000
  H   H1163     1.0  0.34893  0.70007  0.18602  1.0000
  H   H1164     1.0  0.18773  0.66618  0.21524  1.0000
  Fe  Fe142     1.0  0.24251  0.70297  0.16937  1.0000
  H   H1165     1.0  0.35714  0.71692  0.17326  1.0000
  H   H1166     1.0  0.01527  0.62773  0.03200  1.0000
  S   S295      1.0  0.26635  0.71576  0.16145  1.0000
  C   C730      1.0  0.01515  0.61390  0.03633  1.0000
  C   C731      1.0  0.25074  0.71010  0.13252  1.0000
  H   H1167     1.0  0.28416  0.69981  0.10759  1.0000
  H   H1168     1.0  0.26276  0.68044  0.11335  1.0000
  N   N73       1.0  0.26358  0.69805  0.12463  1.0000
  H   H1169     1.0  0.17860  0.68823  0.21834  1.0000
  C   C732      1.0  0.07420  0.53157  0.04039  1.0000
  H   H1170     1.0  0.24150  0.72040  0.12702  1.0000
  N   N74       1.0  0.20080  0.67332  0.22712  1.0000
  C   C733      1.0  0.50054  0.72813  0.14455  1.0000
  C   C734      1.0  0.26343  0.73400  0.16828  1.0000
  H   H1171     1.0  0.49236  0.70137  0.13845  1.0000
  N   N75       1.0  0.02256  0.60576  0.99727  1.0000
  H   H1172     1.0  0.05825  0.53035  0.06490  1.0000
  Fe  Fe143     1.0  0.16373  0.49714  0.08833  1.0000
  H   H1173     1.0  0.05936  0.53636  0.04221  1.0000
  H   H1174     1.0  0.02551  0.52759  0.00158  1.0000
  C   C735      1.0  0.49951  0.68297  0.16589  1.0000
  H   H1175     1.0  0.21443  0.64757  0.22310  1.0000
  H   H1176     1.0  0.04186  0.62093  0.99610  1.0000
  H   H1177     1.0  0.01248  0.51131  0.01079  1.0000
  C   C736      1.0  0.21360  0.73771  0.21535  1.0000
  C   C737      1.0  0.20824  0.73055  0.20720  1.0000
  H   H1178     1.0  0.23830  0.72993  0.18061  1.0000
  H   H1179     1.0  0.28817  0.74143  0.15722  1.0000
  H   H1180     1.0  0.48793  0.72432  0.15066  1.0000
  Fe  Fe144     1.0  0.06730  0.49486  0.01112  1.0000
  H   H1181     1.0  0.22494  0.65572  0.23210  1.0000
  H   H1182     1.0  0.00899  0.55693  0.02489  1.0000
  H   H1183     1.0  0.47593  0.73203  0.13099  1.0000
  H   H1184     1.0  0.01356  0.58897  0.01515  1.0000
  H   H1185     1.0  0.00167  0.59097  0.00297  1.0000
  Fe  Fe145     1.0  0.29723  0.49248  0.13042  1.0000
  H   H1186     1.0  0.21260  0.68642  0.23624  1.0000
  H   H1187     1.0  0.07895  0.56346  0.39496  1.0000
  C   C738      1.0  0.09293  0.58217  0.40490  1.0000
  Fe  Fe146     1.0  0.07618  0.60173  0.45375  1.0000
  S   S296      1.0  0.09099  0.59231  0.43591  1.0000
  S   S297      1.0  0.09119  0.59712  0.46918  1.0000
  Fe  Fe147     1.0  0.04006  0.60832  0.44684  1.0000
  S   S298      1.0  0.05190  0.59947  0.42840  1.0000
  H   H1188     1.0  0.19472  0.71989  0.31463  1.0000
  Fe  Fe148     1.0  0.06930  0.57740  0.43960  1.0000
  S   S299      1.0  0.07662  0.54817  0.43984  1.0000
  Fe  Fe149     1.0  0.07236  0.61534  0.42636  1.0000
  S   S300      1.0  0.08501  0.63074  0.40757  1.0000
  S   S301      1.0  0.05584  0.58498  0.45821  1.0000
  S   S302      1.0  0.05909  0.62616  0.44403  1.0000
  Fe  Fe150     1.0  0.03987  0.71037  0.36145  1.0000
  S   S303      1.0  0.05695  0.71030  0.34177  1.0000
  S   S304      1.0  0.03124  0.68692  0.37606  1.0000
  H   H1189     1.0  0.17365  0.69614  0.33638  1.0000
  H   H1190     1.0  0.17644  0.67616  0.24140  1.0000
  H   H1191     1.0  0.07312  0.74138  0.28892  1.0000
  Fe  Fe151     1.0  0.03405  0.73137  0.33536  1.0000
  H   H1192     1.0  0.15632  0.70993  0.30673  1.0000
  H   H1193     1.0  0.11823  0.55649  0.45843  1.0000
  H   H1194     1.0  0.00857  0.68311  0.36137  1.0000
  H   H1195     1.0  0.01639  0.67200  0.34095  1.0000
  H   H1196     1.0  0.07869  0.52761  0.48181  1.0000
  H   H1197     1.0  0.12761  0.52602  0.47124  1.0000
  H   H1198     1.0  0.07576  0.65962  0.47307  1.0000
  S   S305      1.0  0.01019  0.61546  0.45362  1.0000
  H   H1199     1.0  0.06756  0.50166  0.42306  1.0000
  C   C739      1.0  0.09756  0.59991  0.38359  1.0000
  C   C740      1.0  0.08805  0.61454  0.47690  1.0000
  H   H1200     1.0  0.13905  0.71798  0.32716  1.0000
  H   H1201     1.0  0.07201  0.54921  0.47241  1.0000
  C   C741      1.0  0.06749  0.59830  0.39549  1.0000
  H   H1202     1.0  0.16238  0.68987  0.32687  1.0000
  N   N76       1.0  0.10039  0.54055  0.47164  1.0000
  H   H1203     1.0  0.05848  0.58991  0.40240  1.0000
  H   H1204     1.0  0.17950  0.71162  0.30123  1.0000
  C   C742      1.0  0.11404  0.52375  0.47206  1.0000
  S   S306      1.0  0.05055  0.73155  0.36492  1.0000
  H   H1205     1.0  0.08200  0.57667  0.37908  1.0000
  H   H1206     1.0  0.10702  0.57441  0.40339  1.0000
  H   H1207     1.0  0.16211  0.73121  0.30199  1.0000
  H   H1208     1.0  0.00256  0.52176  0.45056  1.0000
  H   H1209     1.0  0.10115  0.56482  0.38589  1.0000
  C   C743      1.0  0.07980  0.64585  0.47764  1.0000
  C   C744      1.0  0.11490  0.72211  0.30514  1.0000
  C   C745      1.0  0.01165  0.58124  0.45264  1.0000
  C   C746      1.0  0.06466  0.51579  0.42268  1.0000
  H   H1210     1.0  0.09703  0.61187  0.38710  1.0000
  H   H1211     1.0  0.11562  0.71079  0.30133  1.0000
  H   H1212     1.0  0.09725  0.71327  0.32290  1.0000
  H   H1213     1.0  0.00692  0.53004  0.46971  1.0000
  H   H1214     1.0  0.11480  0.51737  0.46417  1.0000
  C   C747      1.0  0.01882  0.69869  0.33125  1.0000
  C   C748      1.0  0.09963  0.54862  0.48225  1.0000
  H   H1215     1.0  0.10585  0.54746  0.45124  1.0000
  H   H1216     1.0  0.07822  0.51294  0.43763  1.0000
  C   C749      1.0  0.05188  0.54600  0.41320  1.0000
  C   C750      1.0  0.08714  0.57263  0.38798  1.0000
  H   H1217     1.0  0.01376  0.51263  0.48252  1.0000
  C   C751      1.0  0.10512  0.55303  0.45950  1.0000
  C   C752      1.0  0.04446  0.60794  0.48351  1.0000
  N   N77       1.0  0.08628  0.58824  0.39299  1.0000
  C   C753      1.0  0.01046  0.68418  0.33514  1.0000
  C   C754      1.0  0.00404  0.56685  0.45375  1.0000
  H   H1218     1.0  0.03101  0.69766  0.33422  1.0000
  C   C755      1.0  0.05566  0.52773  0.41360  1.0000
  H   H1219     1.0  0.09296  0.60476  0.37447  1.0000
  S   S307      1.0  0.02135  0.73288  0.31936  1.0000
  C   C756      1.0  0.12485  0.73497  0.29809  1.0000
  H   H1220     1.0  0.19587  0.66251  0.24721  1.0000
  H   H1221     1.0  0.06634  0.61000  0.39947  1.0000
  H   H1222     1.0  0.08275  0.53065  0.46491  1.0000
  C   C757      1.0  0.06998  0.64684  0.39913  1.0000
  C   C758      1.0  0.07662  0.65884  0.38830  1.0000
  C   C759      1.0  0.06483  0.67149  0.38125  1.0000
  C   C760      1.0  0.04640  0.67191  0.38490  1.0000
  C   C761      1.0  0.03980  0.65979  0.39566  1.0000
  C   C762      1.0  0.05154  0.64739  0.40284  1.0000
  H   H1223     1.0  0.09089  0.65847  0.38542  1.0000
  H   H1224     1.0  0.06998  0.68081  0.37295  1.0000
  H   H1225     1.0  0.02555  0.66011  0.39854  1.0000
  H   H1226     1.0  0.04630  0.63825  0.41122  1.0000
  H   H1227     1.0  0.03967  0.49886  0.46707  1.0000
  C   C763      1.0  0.08268  0.53684  0.47273  1.0000
  C   C764      1.0  0.08242  0.63230  0.47108  1.0000
  H   H1228     1.0  0.11262  0.55202  0.48161  1.0000
  H   H1229     1.0  0.05051  0.61265  0.47336  1.0000
  C   C765      1.0  0.05752  0.55236  0.42167  1.0000
  H   H1230     1.0  0.00415  0.49883  0.45105  1.0000
  H   H1231     1.0  0.08043  0.63564  0.46146  1.0000
  H   H1232     1.0  0.08463  0.57355  0.41232  1.0000
  C   C766      1.0  0.01549  0.62624  0.48091  1.0000
  H   H1233     1.0  0.04002  0.59550  0.48445  1.0000
  H   H1234     1.0  0.11188  0.59289  0.38156  1.0000
  H   H1235     1.0  0.04459  0.55523  0.40635  1.0000
  H   H1236     1.0  0.09269  0.59362  0.40882  1.0000
  C   C767      1.0  0.16634  0.71723  0.30696  1.0000
  H   H1237     1.0  0.06217  0.60343  0.38665  1.0000
  C   C768      1.0  0.03070  0.50338  0.46018  1.0000
  Fe  Fe152     1.0  0.06567  0.73324  0.34459  1.0000
  H   H1238     1.0  0.00392  0.63649  0.48432  1.0000
  H   H1239     1.0  0.00542  0.66587  0.37524  1.0000
  H   H1240     1.0  0.18237  0.72554  0.32955  1.0000
  S   S308      1.0  0.13936  0.73197  0.28348  1.0000
  C   C769      1.0  0.07070  0.52219  0.43091  1.0000
  H   H1241     1.0  0.02030  0.52345  0.39012  1.0000
  C   C770      1.0  0.01158  0.71431  0.32341  1.0000
  N   N78       1.0  0.16750  0.71622  0.32010  1.0000
  C   C771      1.0  0.18907  0.66619  0.23909  1.0000
  H   H1242     1.0  0.01272  0.55416  0.45247  1.0000
  H   H1243     1.0  0.02076  0.63150  0.47067  1.0000
  S   S309      1.0  0.04953  0.52004  0.40247  1.0000
  H   H1244     1.0  0.01016  0.61446  0.48148  1.0000
  C   C772      1.0  0.17256  0.69740  0.32646  1.0000
  C   C773      1.0  0.14989  0.72447  0.32712  1.0000
  H   H1245     1.0  0.03264  0.51681  0.45462  1.0000
  H   H1246     1.0  0.05443  0.56640  0.42143  1.0000
  C   C774      1.0  0.06740  0.54049  0.43027  1.0000
  C   C775      1.0  0.10446  0.72352  0.31732  1.0000
  N   N79       1.0  0.01171  0.50362  0.46666  1.0000
  H   H1247     1.0  0.01031  0.55480  0.48197  1.0000
  H   H1248     1.0  0.02606  0.57947  0.45060  1.0000
  H   H1249     1.0  0.09489  0.56569  0.45896  1.0000
  H   H1250     1.0  0.04199  0.64333  0.47704  1.0000
  S   S310      1.0  0.01624  0.72964  0.35465  1.0000
  C   C776      1.0  0.00569  0.51642  0.47511  1.0000
  C   C777      1.0  0.10415  0.73771  0.32249  1.0000
  S   S311      1.0  0.09365  0.73840  0.33833  1.0000
  H   H1251     1.0  0.18574  0.69075  0.32134  1.0000
  H   H1252     1.0  0.00837  0.50986  0.40338  1.0000
  H   H1253     1.0  0.08925  0.56122  0.48223  1.0000
  C   C778      1.0  0.18121  0.72580  0.31982  1.0000
  H   H1254     1.0  0.00495  0.55369  0.38109  1.0000
  H   H1255     1.0  0.11074  0.51401  0.48109  1.0000
  H   H1256     1.0  0.17794  0.73999  0.31486  1.0000
  H   H1257     1.0  0.14592  0.73882  0.32278  1.0000
  H   H1258     1.0  0.03545  0.49432  0.45340  1.0000
  H   H1259     1.0  0.05538  0.73990  0.30282  1.0000
  H   H1260     1.0  0.15004  0.72352  0.33719  1.0000
  H   H1261     1.0  0.18525  0.65409  0.23844  1.0000
  S   S312      1.0  0.18917  0.73711  0.27047  1.0000
  C   C779      1.0  0.00692  0.52005  0.39453  1.0000
  H   H1262     1.0  0.00358  0.51366  0.38803  1.0000
  H   H1263     1.0  0.01106  0.54674  0.40277  1.0000
  Fe  Fe153     1.0  0.04659  0.62238  0.53808  1.0000
  S   S313      1.0  0.06913  0.63557  0.53651  1.0000
  S   S314      1.0  0.04561  0.59334  0.54462  1.0000
  Fe  Fe154     1.0  0.02144  0.65751  0.52980  1.0000
  S   S315      1.0  0.04183  0.67353  0.52705  1.0000
  H   H1264     1.0  0.08925  0.62044  0.50569  1.0000
  Fe  Fe155     1.0  0.04768  0.65643  0.54559  1.0000
  S   S316      1.0  0.04255  0.66895  0.56263  1.0000
  S   S317      1.0  0.03996  0.63716  0.51935  1.0000
  S   S318      1.0  0.02599  0.64143  0.54872  1.0000
  S   S319      1.0  0.07844  0.50412  0.50801  1.0000
  H   H1265     1.0  0.07209  0.58163  0.50200  1.0000
  N   N80       1.0  0.04065  0.66336  0.60624  1.0000
  C   C780      1.0  0.10248  0.73014  0.64273  1.0000
  H   H1266     1.0  0.01143  0.67818  0.54783  1.0000
  C   C781      1.0  0.04031  0.56177  0.52366  1.0000
  H   H1267     1.0  0.05294  0.50731  0.57248  1.0000
  H   H1268     1.0  0.05185  0.55459  0.55642  1.0000
  H   H1269     1.0  0.00692  0.65986  0.56987  1.0000
  H   H1270     1.0  0.06936  0.65434  0.60118  1.0000
  H   H1271     1.0  0.23622  0.71975  0.69452  1.0000
  C   C782      1.0  0.03625  0.63777  0.48712  1.0000
  Fe  Fe156     1.0  0.07132  0.72773  0.59548  1.0000
  S   S320      1.0  0.06551  0.71148  0.61534  1.0000
  S   S321      1.0  0.08370  0.71400  0.57886  1.0000
  H   H1272     1.0  0.02642  0.65260  0.62478  1.0000
  Fe  Fe157     1.0  0.06107  0.65166  0.51819  1.0000
  H   H1273     1.0  0.01211  0.67109  0.60721  1.0000
  Fe  Fe158     1.0  0.07955  0.72876  0.62049  1.0000
  S   S322      1.0  0.10197  0.71880  0.63136  1.0000
  C   C783      1.0  0.11794  0.72623  0.64771  1.0000
  C   C784      1.0  0.06501  0.54537  0.55397  1.0000
  S   S323      1.0  0.03667  0.51458  0.52366  1.0000
  C   C785      1.0  0.02493  0.66710  0.60047  1.0000
  H   H1274     1.0  0.09606  0.53965  0.49162  1.0000
  H   H1275     1.0  0.02407  0.65537  0.59731  1.0000
  N   N81       1.0  0.06297  0.52679  0.55662  1.0000
  H   H1276     1.0  0.02540  0.64840  0.49088  1.0000
  H   H1277     1.0  0.04942  0.51160  0.55057  1.0000
  H   H1278     1.0  0.22971  0.71746  0.66943  1.0000
  C   C786      1.0  0.05727  0.65792  0.59700  1.0000
  C   C787      1.0  0.00776  0.55311  0.49246  1.0000
  C   C788      1.0  0.19762  0.72694  0.68437  1.0000
  C   C789      1.0  0.01194  0.71998  0.60701  1.0000
  H   H1279     1.0  0.02439  0.72430  0.60276  1.0000
  S   S324      1.0  0.07791  0.65842  0.49859  1.0000
  N   N82       1.0  0.21413  0.71602  0.68852  1.0000
  C   C790      1.0  0.03888  0.64890  0.61765  1.0000
  H   H1280     1.0  0.09558  0.59671  0.49374  1.0000
  H   H1281     1.0  0.05946  0.66885  0.58858  1.0000
  H   H1282     1.0  0.22695  0.73825  0.68320  1.0000
  H   H1283     1.0  0.04285  0.69071  0.60148  1.0000
  S   S325      1.0  0.04567  0.51502  0.49301  1.0000
  H   H1284     1.0  0.05327  0.67724  0.61419  1.0000
  Fe  Fe159     1.0  0.02973  0.50148  0.51084  1.0000
  H   H1285     1.0  0.22145  0.69367  0.70333  1.0000
  H   H1286     1.0  0.03789  0.53427  0.55057  1.0000
  H   H1287     1.0  0.03254  0.61047  0.50758  1.0000
  S   S326      1.0  0.16045  0.72641  0.71431  1.0000
  H   H1288     1.0  0.03828  0.63649  0.61521  1.0000
  H   H1289     1.0  0.02920  0.68408  0.61684  1.0000
  C   C791      1.0  0.22354  0.72750  0.69153  1.0000
  C   C792      1.0  0.02201  0.61490  0.50187  1.0000
  H   H1290     1.0  0.03242  0.55210  0.52483  1.0000
  C   C793      1.0  0.00354  0.72085  0.61957  1.0000
  H   H1291     1.0  0.18846  0.73388  0.69181  1.0000
  H   H1292     1.0  0.07075  0.55019  0.54374  1.0000
  Fe  Fe160     1.0  0.05437  0.52632  0.50595  1.0000
  C   C794      1.0  0.05407  0.68400  0.56433  1.0000
  C   C795      1.0  0.04432  0.69735  0.57104  1.0000
  C   C796      1.0  0.05318  0.70688  0.57539  1.0000
  C   C797      1.0  0.07194  0.70334  0.57281  1.0000
  C   C798      1.0  0.08169  0.69074  0.56543  1.0000
  C   C799      1.0  0.07281  0.68101  0.56126  1.0000
  H   H1293     1.0  0.02982  0.70001  0.57316  1.0000
  H   H1294     1.0  0.04552  0.71687  0.58078  1.0000
  H   H1295     1.0  0.09622  0.68807  0.56327  1.0000
  H   H1296     1.0  0.08050  0.67066  0.55619  1.0000
  H   H1297     1.0  0.20191  0.69359  0.69805  1.0000
  H   H1298     1.0  0.05741  0.52919  0.53841  1.0000
  H   H1299     1.0  0.01104  0.71249  0.59020  1.0000
  H   H1300     1.0  0.01155  0.62535  0.50607  1.0000
  H   H1301     1.0  0.07397  0.54690  0.55955  1.0000
  H   H1302     1.0  0.02561  0.67814  0.59198  1.0000
  C   C800      1.0  0.09085  0.61037  0.48929  1.0000
  H   H1303     1.0  0.01008  0.53864  0.49669  1.0000
  H   H1304     1.0  0.18999  0.71866  0.68224  1.0000
  H   H1305     1.0  0.04114  0.52989  0.57272  1.0000
  C   C801      1.0  0.05986  0.58768  0.52046  1.0000
  C   C802      1.0  0.04772  0.58349  0.53190  1.0000
  C   C803      1.0  0.03785  0.57063  0.53345  1.0000
  H   H1306     1.0  0.06762  0.59752  0.51923  1.0000
  H   H1307     1.0  0.02816  0.56767  0.54220  1.0000
  H   H1308     1.0  0.20043  0.70838  0.70790  1.0000
  C   C804      1.0  0.05269  0.56575  0.51231  1.0000
  C   C805      1.0  0.08735  0.62379  0.49605  1.0000
  C   C806      1.0  0.06238  0.57873  0.51072  1.0000
  S   S327      1.0  0.01310  0.72934  0.62846  1.0000
  C   C807      1.0  0.08202  0.64157  0.49020  1.0000
  C   C808      1.0  0.11876  0.73540  0.65659  1.0000
  C   C809      1.0  0.22595  0.70739  0.67818  1.0000
  S   S328      1.0  0.05605  0.55499  0.49986  1.0000
  H   H1309     1.0  0.08727  0.51857  0.54340  1.0000
  H   H1310     1.0  0.09001  0.51586  0.55929  1.0000
  C   C810      1.0  0.08081  0.51502  0.55363  1.0000
  H   H1311     1.0  0.05046  0.64579  0.62231  1.0000
  C   C811      1.0  0.04151  0.67952  0.60987  1.0000
  C   C812      1.0  0.05466  0.52129  0.57017  1.0000
  C   C813      1.0  0.26296  0.73704  0.72810  1.0000
  C   C814      1.0  0.05140  0.52541  0.54870  1.0000
  Fe  Fe161     1.0  0.04091  0.73332  0.61810  1.0000
  H   H1312     1.0  0.25077  0.73218  0.73412  1.0000
  H   H1313     1.0  0.23858  0.69898  0.68095  1.0000
  H   H1314     1.0  0.01586  0.60341  0.50314  1.0000
  H   H1315     1.0  0.06302  0.52217  0.57644  1.0000
  C   C815      1.0  0.00442  0.71315  0.59991  1.0000
  C   C816      1.0  0.20934  0.70229  0.69993  1.0000
  H   H1316     1.0  0.00362  0.67980  0.57538  1.0000
  H   H1317     1.0  0.21918  0.69872  0.67563  1.0000
  H   H1318     1.0  0.00725  0.69786  0.55368  1.0000
  H   H1319     1.0  0.13062  0.73218  0.66050  1.0000
  H   H1320     1.0  0.05677  0.64637  0.59345  1.0000
  H   H1321     1.0  0.01800  0.55847  0.49457  1.0000
  H   H1322     1.0  0.12926  0.71601  0.64473  1.0000
  H   H1323     1.0  0.20066  0.73729  0.67566  1.0000
  N   N83       1.0  0.02952  0.62172  0.48836  1.0000
  H   H1324     1.0  0.26985  0.72797  0.72145  1.0000
  H   H1325     1.0  0.07976  0.50086  0.55569  1.0000
  C   C817      1.0  0.17470  0.73054  0.72236  1.0000
  H   H1326     1.0  0.27204  0.73564  0.73453  1.0000
  H   H1327     1.0  0.21506  0.73407  0.69937  1.0000
  C   C818      1.0  0.19698  0.73762  0.73535  1.0000
  C   C819      1.0  0.17689  0.72006  0.73433  1.0000
  H   H1328     1.0  0.04708  0.63472  0.49246  1.0000
  H   H1329     1.0  0.05538  0.60443  0.48879  1.0000
  H   H1330     1.0  0.18955  0.71561  0.75014  1.0000
  Fe  Fe162     1.0  0.04009  0.56857  0.96189  1.0000
  S   S329      1.0  0.04845  0.56385  0.94207  1.0000
  H   H1331     1.0  0.02072  0.51977  0.94677  1.0000
  Fe  Fe163     1.0  0.05459  0.60176  0.95506  1.0000
  S   S330      1.0  0.24282  0.72892  0.76444  1.0000
  Fe  Fe164     1.0  0.07387  0.57148  0.94160  1.0000
  S   S331      1.0  0.10152  0.55746  0.93300  1.0000
  S   S332      1.0  0.02718  0.59739  0.95650  1.0000
  S   S333      1.0  0.06668  0.57322  0.96218  1.0000
  S   S334      1.0  0.20110  0.73386  0.78046  1.0000
  S   S335      1.0  0.05842  0.62563  0.96020  1.0000
  H   H1332     1.0  0.34123  0.65917  0.80713  1.0000
  Fe  Fe165     1.0  0.19040  0.59762  0.84349  1.0000
  S   S336      1.0  0.18101  0.61134  0.85996  1.0000
  S   S337      1.0  0.19945  0.60859  0.82256  1.0000
  Fe  Fe166     1.0  0.19164  0.56083  0.86043  1.0000
  S   S338      1.0  0.18294  0.57095  0.87838  1.0000
  S   S339      1.0  0.19738  0.53152  0.86129  1.0000
  Fe  Fe167     1.0  0.16294  0.59168  0.86858  1.0000
  S   S340      1.0  0.13361  0.59862  0.87799  1.0000
  Fe  Fe168     1.0  0.20158  0.58953  0.86857  1.0000
  S   S341      1.0  0.21887  0.59430  0.87971  1.0000
  S   S342      1.0  0.17027  0.58023  0.85117  1.0000
  S   S343      1.0  0.21240  0.57716  0.85155  1.0000
  C   C820      1.0  0.06597  0.64207  0.97570  1.0000
  S   S344      1.0  0.14275  0.52111  0.83362  1.0000
  H   H1333     1.0  0.31067  0.67382  0.81612  1.0000
  S   S345      1.0  0.22047  0.69734  0.76934  1.0000
  C   C821      1.0  0.33809  0.66357  0.79751  1.0000
  S   S346      1.0  0.02359  0.60382  0.92020  1.0000
  Fe  Fe169     1.0  0.24569  0.70006  0.77355  1.0000
  S   S347      1.0  0.27235  0.68130  0.76972  1.0000
  C   C822      1.0  0.49259  0.69024  0.82933  1.0000
  Fe  Fe170     1.0  0.38645  0.67373  0.82828  1.0000
  S   S348      1.0  0.41530  0.66652  0.81832  1.0000
  S   S349      1.0  0.36725  0.65483  0.83598  1.0000
  Fe  Fe171     1.0  0.38997  0.71060  0.82923  1.0000
  S   S350      1.0  0.41896  0.70618  0.81957  1.0000
  H   H1334     1.0  0.13845  0.59958  0.93496  1.0000
  Fe  Fe172     1.0  0.41032  0.69442  0.80677  1.0000
  S   S351      1.0  0.42177  0.70216  0.78594  1.0000
  Fe  Fe173     1.0  0.42120  0.67898  0.83207  1.0000
  S   S352      1.0  0.44280  0.66565  0.84328  1.0000
  S   S353      1.0  0.38092  0.70071  0.81555  1.0000
  S   S354      1.0  0.39265  0.68443  0.84292  1.0000
  Fe  Fe174     1.0  0.28995  0.59394  0.81542  1.0000
  S   S355      1.0  0.30499  0.59939  0.82762  1.0000
  S   S356      1.0  0.26414  0.61271  0.81248  1.0000
  Fe  Fe175     1.0  0.31483  0.55852  0.81199  1.0000
  S   S357      1.0  0.33266  0.56098  0.82390  1.0000
  S   S358      1.0  0.31912  0.53592  0.80197  1.0000
  Fe  Fe176     1.0  0.30662  0.57061  0.83682  1.0000
  S   S359      1.0  0.30021  0.56359  0.85811  1.0000
  Fe  Fe177     1.0  0.32962  0.58982  0.81370  1.0000
  S   S360      1.0  0.35146  0.60591  0.80558  1.0000
  S   S361      1.0  0.28923  0.56590  0.82578  1.0000
  S   S362      1.0  0.31419  0.58650  0.80055  1.0000
  H   H1335     1.0  0.31193  0.69174  0.80239  1.0000
  C   C823      1.0  0.47388  0.67232  0.84589  1.0000
  C   C824      1.0  0.46183  0.67534  0.83796  1.0000
  C   C825      1.0  0.46520  0.68589  0.82576  1.0000
  C   C826      1.0  0.48052  0.69326  0.82146  1.0000
  C   C827      1.0  0.07632  0.61011  0.98012  1.0000
  C   C828      1.0  0.01310  0.52696  0.95409  1.0000
  H   H1336     1.0  0.01625  0.54743  0.90708  1.0000
  H   H1337     1.0  0.45627  0.68798  0.81947  1.0000
  H   H1338     1.0  0.09086  0.60120  0.95168  1.0000
  N   N84       1.0  0.08186  0.50594  0.96646  1.0000
  Fe  Fe178     1.0  0.22789  0.73346  0.78369  1.0000
  H   H1339     1.0  0.00183  0.56087  0.89654  1.0000
  C   C829      1.0  0.11225  0.62438  0.94523  1.0000
  C   C830      1.0  0.36344  0.64108  0.82739  1.0000
  C   C831      1.0  0.37367  0.63938  0.81528  1.0000
  C   C832      1.0  0.37011  0.62826  0.80881  1.0000
  C   C833      1.0  0.35626  0.61884  0.81434  1.0000
  C   C834      1.0  0.34616  0.62045  0.82649  1.0000
  C   C835      1.0  0.34977  0.63149  0.83297  1.0000
  H   H1340     1.0  0.38427  0.64665  0.81088  1.0000
  H   H1341     1.0  0.37802  0.62705  0.79943  1.0000
  H   H1342     1.0  0.33559  0.61317  0.83091  1.0000
  H   H1343     1.0  0.34188  0.63261  0.84237  1.0000
  C   C836      1.0  0.27022  0.66136  0.78068  1.0000
  C   C837      1.0  0.25341  0.65952  0.78833  1.0000
  C   C838      1.0  0.25168  0.64429  0.79784  1.0000
  C   C839      1.0  0.26675  0.63090  0.79984  1.0000
  C   C840      1.0  0.28357  0.63245  0.79201  1.0000
  C   C841      1.0  0.28528  0.64764  0.78231  1.0000
  H   H1344     1.0  0.24166  0.66985  0.78699  1.0000
  H   H1345     1.0  0.23866  0.64311  0.80377  1.0000
  H   H1346     1.0  0.29528  0.62212  0.79346  1.0000
  H   H1347     1.0  0.29826  0.64887  0.77622  1.0000
  C   C842      1.0  0.19482  0.63184  0.81715  1.0000
  C   C843      1.0  0.20432  0.63935  0.80527  1.0000
  C   C844      1.0  0.20191  0.65790  0.80113  1.0000
  C   C845      1.0  0.18958  0.66903  0.80870  1.0000
  C   C846      1.0  0.17965  0.66152  0.82040  1.0000
  C   C847      1.0  0.18244  0.64296  0.82471  1.0000
  H   H1348     1.0  0.21389  0.63083  0.79936  1.0000
  H   H1349     1.0  0.20951  0.66359  0.79204  1.0000
  H   H1350     1.0  0.16996  0.67009  0.82624  1.0000
  H   H1351     1.0  0.17489  0.63730  0.83382  1.0000
  C   C848      1.0  0.24185  0.58776  0.87350  1.0000
  C   C849      1.0  0.24797  0.58770  0.86060  1.0000
  C   C850      1.0  0.26616  0.58148  0.85572  1.0000
  C   C851      1.0  0.27820  0.57442  0.86383  1.0000
  C   C852      1.0  0.27218  0.57480  0.87674  1.0000
  C   C853      1.0  0.25403  0.58174  0.88154  1.0000
  H   H1352     1.0  0.23866  0.59252  0.85439  1.0000
  H   H1353     1.0  0.27071  0.58171  0.84573  1.0000
  H   H1354     1.0  0.28149  0.56951  0.88303  1.0000
  H   H1355     1.0  0.24935  0.58186  0.89154  1.0000
  C   C854      1.0  0.18327  0.52779  0.85312  1.0000
  C   C855      1.0  0.17886  0.54027  0.84240  1.0000
  C   C856      1.0  0.16628  0.53817  0.83652  1.0000
  C   C857      1.0  0.15845  0.52333  0.84114  1.0000
  C   C858      1.0  0.16330  0.51051  0.85161  1.0000
  C   C859      1.0  0.17568  0.51277  0.85764  1.0000
  H   H1356     1.0  0.18514  0.55158  0.83861  1.0000
  H   H1357     1.0  0.16269  0.54802  0.82834  1.0000
  C   C860      1.0  0.43382  0.62352  0.84167  1.0000
  H   H1358     1.0  0.17905  0.50309  0.86596  1.0000
  C   C861      1.0  0.09497  0.51130  0.95472  1.0000
  H   H1359     1.0  0.45308  0.73912  0.84157  1.0000
  C   C862      1.0  0.30697  0.51030  0.79658  1.0000
  C   C863      1.0  0.30362  0.52228  0.80454  1.0000
  C   C864      1.0  0.28832  0.52283  0.81439  1.0000
  C   C865      1.0  0.27659  0.51142  0.81628  1.0000
  C   C866      1.0  0.41066  0.72337  0.77925  1.0000
  H   H1360     1.0  0.31869  0.50990  0.78887  1.0000
  H   H1361     1.0  0.28569  0.53183  0.82066  1.0000
  H   H1362     1.0  0.26489  0.51183  0.82399  1.0000
  H   H1363     1.0  0.22683  0.62938  0.82449  1.0000
  C   C867      1.0  0.40394  0.63542  0.85248  1.0000
  H   H1364     1.0  0.38996  0.63348  0.85665  1.0000
  H   H1365     1.0  0.08428  0.62783  0.93479  1.0000
  H   H1366     1.0  0.34752  0.72466  0.82598  1.0000
  H   H1367     1.0  0.09655  0.61546  0.92271  1.0000
  N   N85       1.0  0.41545  0.62026  0.84697  1.0000
  C   C868      1.0  0.07102  0.49529  0.96401  1.0000
  C   C869      1.0  0.39211  0.72897  0.78325  1.0000
  H   H1368     1.0  0.13378  0.61896  0.92271  1.0000
  H   H1369     1.0  0.21460  0.66846  0.83911  1.0000
  H   H1370     1.0  0.38440  0.71992  0.79001  1.0000
  C   C870      1.0  0.11044  0.56863  0.91763  1.0000
  C   C871      1.0  0.09930  0.58175  0.91044  1.0000
  C   C872      1.0  0.10663  0.59090  0.89837  1.0000
  C   C873      1.0  0.12514  0.58695  0.89331  1.0000
  C   C874      1.0  0.13628  0.57365  0.90043  1.0000
  C   C875      1.0  0.12894  0.56451  0.91254  1.0000
  H   H1371     1.0  0.08496  0.58465  0.91404  1.0000
  H   H1372     1.0  0.09787  0.60103  0.89288  1.0000
  H   H1373     1.0  0.15053  0.57045  0.89667  1.0000
  H   H1374     1.0  0.13764  0.55432  0.91802  1.0000
  C   C876      1.0  0.34015  0.73799  0.82182  1.0000
  H   H1375     1.0  0.10322  0.51956  0.95621  1.0000
  C   C877      1.0  0.02207  0.53352  0.96042  1.0000
  H   H1376     1.0  0.06328  0.53104  0.96300  1.0000
  H   H1377     1.0  0.20740  0.50280  0.81505  1.0000
  H   H1378     1.0  0.11732  0.63639  0.93940  1.0000
  H   H1379     1.0  0.24516  0.56150  0.79004  1.0000
  H   H1380     1.0  0.03654  0.53104  0.95806  1.0000
  C   C878      1.0  0.21374  0.65669  0.83599  1.0000
  C   C879      1.0  0.10413  0.59735  0.94539  1.0000
  S   S363      1.0  0.06358  0.60043  0.93453  1.0000
  N   N86       1.0  0.24454  0.53069  0.87889  1.0000
  C   C880      1.0  0.23121  0.54627  0.88275  1.0000
  C   C881      1.0  0.24811  0.51707  0.89032  1.0000
  C   C882      1.0  0.26142  0.53615  0.87147  1.0000
  C   C883      1.0  0.23739  0.52329  0.87101  1.0000
  H   H1381     1.0  0.22836  0.55692  0.87437  1.0000
  H   H1382     1.0  0.23602  0.55220  0.88880  1.0000
  H   H1383     1.0  0.21818  0.54274  0.88819  1.0000
  H   H1384     1.0  0.23562  0.51266  0.89615  1.0000
  H   H1385     1.0  0.25813  0.50511  0.88777  1.0000
  H   H1386     1.0  0.27174  0.52483  0.86819  1.0000
  H   H1387     1.0  0.26737  0.54154  0.87718  1.0000
  H   H1388     1.0  0.25918  0.54669  0.86289  1.0000
  H   H1389     1.0  0.48315  0.70114  0.81192  1.0000
  H   H1390     1.0  0.24711  0.51163  0.86777  1.0000
  H   H1391     1.0  0.05927  0.51862  0.97907  1.0000
  N   N87       1.0  0.22802  0.64110  0.83931  1.0000
  C   C884      1.0  0.22627  0.63626  0.85323  1.0000
  C   C885      1.0  0.22627  0.62599  0.83486  1.0000
  C   C886      1.0  0.24579  0.64542  0.83310  1.0000
  H   H1392     1.0  0.23721  0.62491  0.85601  1.0000
  H   H1393     1.0  0.21331  0.63219  0.85820  1.0000
  H   H1394     1.0  0.22689  0.64755  0.85700  1.0000
  H   H1395     1.0  0.21332  0.62189  0.83964  1.0000
  H   H1396     1.0  0.23735  0.61428  0.83653  1.0000
  H   H1397     1.0  0.24736  0.64937  0.82260  1.0000
  H   H1398     1.0  0.25687  0.63372  0.83507  1.0000
  H   H1399     1.0  0.43476  0.73052  0.76676  1.0000
  H   H1400     1.0  0.23425  0.53337  0.86241  1.0000
  S   S364      1.0  0.02378  0.55156  0.97744  1.0000
  H   H1401     1.0  0.24775  0.65656  0.83638  1.0000
  H   H1402     1.0  0.49848  0.67741  0.84773  1.0000
  C   C887      1.0  0.18805  0.72359  0.74085  1.0000
  H   H1403     1.0  0.43391  0.63586  0.83413  1.0000
  H   H1404     1.0  0.07760  0.52981  0.97326  1.0000
  H   H1405     1.0  0.00198  0.62924  0.90443  1.0000
  H   H1406     1.0  0.26289  0.72637  0.78760  1.0000
  C   C888      1.0  0.31167  0.73188  0.83432  1.0000
  H   H1407     1.0  0.20014  0.65385  0.84047  1.0000
  H   H1408     1.0  0.09897  0.62905  0.95131  1.0000
  H   H1409     1.0  0.47058  0.72973  0.82967  1.0000
  H   H1410     1.0  0.12761  0.59880  0.92302  1.0000
  H   H1411     1.0  0.08816  0.51941  0.94689  1.0000
  Fe  Fe179     1.0  0.03739  0.59306  0.93663  1.0000
  H   H1412     1.0  0.42463  0.59213  0.85317  1.0000
  H   H1413     1.0  0.32121  0.63826  0.79796  1.0000
  C   C889      1.0  0.48920  0.67986  0.84161  1.0000
  H   H1414     1.0  0.21464  0.66062  0.82553  1.0000
  H   H1415     1.0  0.29357  0.68057  0.80694  1.0000
  C   C890      1.0  0.41603  0.60386  0.85699  1.0000
  H   H1416     1.0  0.40938  0.63773  0.85994  1.0000
  C   C891      1.0  0.28447  0.73426  0.79156  1.0000
  Fe  Fe180     1.0  0.21639  0.72688  0.76183  1.0000
  H   H1417     1.0  0.44298  0.61238  0.83743  1.0000
  H   H1418     1.0  0.25350  0.52230  0.89647  1.0000
  H   H1419     1.0  0.47139  0.66412  0.85533  1.0000
  H   H1420     1.0  0.29429  0.72243  0.78959  1.0000
  H   H1421     1.0  0.34639  0.65339  0.79195  1.0000
  N   N88       1.0  0.12185  0.54934  0.87275  1.0000
  C   C892      1.0  0.11183  0.56728  0.86780  1.0000
  C   C893      1.0  0.14103  0.54968  0.87058  1.0000
  C   C894      1.0  0.12000  0.53651  0.86607  1.0000
  C   C895      1.0  0.11460  0.54397  0.88651  1.0000
  H   H1422     1.0  0.09732  0.56753  0.86914  1.0000
  H   H1423     1.0  0.11719  0.57188  0.85748  1.0000
  H   H1424     1.0  0.11282  0.57727  0.87272  1.0000
  H   H1425     1.0  0.14905  0.53646  0.87433  1.0000
  H   H1426     1.0  0.14694  0.55341  0.86027  1.0000
  H   H1427     1.0  0.14290  0.55952  0.87525  1.0000
  H   H1428     1.0  0.10574  0.53560  0.86768  1.0000
  H   H1429     1.0  0.12779  0.52291  0.86929  1.0000
  H   H1430     1.0  0.12498  0.54040  0.85562  1.0000
  H   H1431     1.0  0.12185  0.53048  0.89055  1.0000
  H   H1432     1.0  0.10011  0.54366  0.88851  1.0000
  H   H1433     1.0  0.11585  0.55337  0.89182  1.0000
  N   N89       1.0  0.24798  0.57459  0.80360  1.0000
  C   C896      1.0  0.23810  0.59211  0.79781  1.0000
  C   C897      1.0  0.26751  0.57324  0.79858  1.0000
  C   C898      1.0  0.24241  0.56033  0.80049  1.0000
  C   C899      1.0  0.24384  0.57264  0.81753  1.0000
  H   H1434     1.0  0.22330  0.59349  0.80125  1.0000
  H   H1435     1.0  0.24111  0.59430  0.78728  1.0000
  H   H1436     1.0  0.24164  0.60316  0.80025  1.0000
  H   H1437     1.0  0.27546  0.56029  0.80284  1.0000
  H   H1438     1.0  0.27111  0.57450  0.78811  1.0000
  H   H1439     1.0  0.27218  0.58390  0.80059  1.0000
  H   H1440     1.0  0.24978  0.54693  0.80463  1.0000
  H   H1441     1.0  0.12154  0.61695  0.95171  1.0000
  H   H1442     1.0  0.22777  0.56087  0.80423  1.0000
  H   H1443     1.0  0.22916  0.57381  0.82156  1.0000
  H   H1444     1.0  0.24780  0.58321  0.82023  1.0000
  H   H1445     1.0  0.25105  0.55960  0.82226  1.0000
  H   H1446     1.0  0.40299  0.64782  0.84508  1.0000
  H   H1447     1.0  0.22470  0.51891  0.87635  1.0000
  C   C900      1.0  0.30825  0.67851  0.80630  1.0000
  H   H1448     1.0  0.41620  0.60698  0.83239  1.0000
  C   C901      1.0  0.40794  0.61831  0.83680  1.0000
  H   H1449     1.0  0.49054  0.71711  0.84487  1.0000
  N   N90       1.0  0.11070  0.61316  0.93719  1.0000
  C   C902      1.0  0.09791  0.62347  0.92902  1.0000
  H   H1450     1.0  0.11353  0.58912  0.95159  1.0000
  H   H1451     1.0  0.10255  0.58872  0.93965  1.0000
  C   C903      1.0  0.12844  0.60739  0.92913  1.0000
  H   H1452     1.0  0.16982  0.70934  0.73864  1.0000
  H   H1453     1.0  0.01404  0.57115  0.90291  1.0000
  H   H1454     1.0  0.40236  0.60106  0.86119  1.0000
  H   H1455     1.0  0.05946  0.65414  0.97008  1.0000
  H   H1456     1.0  0.10233  0.63562  0.92281  1.0000
  C   C904      1.0  0.48450  0.72909  0.84909  1.0000
  H   H1457     1.0  0.06343  0.50299  0.95651  1.0000
  H   H1458     1.0  0.42154  0.60497  0.86483  1.0000
  H   H1459     1.0  0.00765  0.50699  0.98089  1.0000
  H   H1460     1.0  0.42227  0.72993  0.85806  1.0000
  H   H1461     1.0  0.00791  0.61278  0.98237  1.0000
  C   C905      1.0  0.26671  0.73648  0.79044  1.0000
  N   N91       1.0  0.31873  0.66566  0.79826  1.0000
  C   C906      1.0  0.31365  0.64825  0.80386  1.0000
  C   C907      1.0  0.31496  0.67234  0.78538  1.0000
  H   H1462     1.0  0.29907  0.64931  0.80474  1.0000
  H   H1463     1.0  0.31667  0.64264  0.81348  1.0000
  H   H1464     1.0  0.32237  0.66283  0.77911  1.0000
  H   H1465     1.0  0.31889  0.68532  0.78080  1.0000
  H   H1466     1.0  0.30038  0.67444  0.78562  1.0000
  H   H1467     1.0  0.34264  0.67626  0.79296  1.0000
  C   C908      1.0  0.06766  0.62564  0.97285  1.0000
  H   H1468     1.0  0.04627  0.59673  0.98396  1.0000
  S   S365      1.0  0.18648  0.69232  0.80397  1.0000
  H   H1469     1.0  0.43976  0.62538  0.84906  1.0000
  H   H1470     1.0  0.40587  0.71909  0.84669  1.0000
  S   S366      1.0  0.23307  0.70471  0.79321  1.0000
  H   H1471     1.0  0.39397  0.61612  0.84046  1.0000
  C   C909      1.0  0.29530  0.49883  0.79851  1.0000
  H   H1472     1.0  0.40722  0.63050  0.82911  1.0000
  Fe  Fe181     1.0  0.20744  0.70436  0.78842  1.0000
  C   C910      1.0  0.01237  0.54313  0.96977  1.0000
  H   H1473     1.0  0.19119  0.50567  0.82942  1.0000
  H   H1474     1.0  0.10430  0.49952  0.95135  1.0000
  H   H1475     1.0  0.07813  0.59736  0.97781  1.0000
  H   H1476     1.0  0.23125  0.49780  0.82672  1.0000
  C   C911      1.0  0.28011  0.49927  0.80843  1.0000
  H   H1477     1.0  0.30766  0.73096  0.82575  1.0000
  H   H1478     1.0  0.47290  0.72597  0.85688  1.0000
  C   C912      1.0  0.19963  0.49562  0.82386  1.0000
  H   H1479     1.0  0.15733  0.49899  0.85519  1.0000
  H   H1480     1.0  0.31826  0.71826  0.83868  1.0000
  C   C913      1.0  0.06997  0.52203  0.97061  1.0000
  H   H1481     1.0  0.29918  0.73624  0.84120  1.0000
  H   H1482     1.0  0.33652  0.73221  0.84686  1.0000
  H   H1483     1.0  0.21515  0.49959  0.84135  1.0000
  H   H1484     1.0  0.02508  0.62500  0.97960  1.0000
  Fe  Fe182     1.0  0.13787  0.49348  0.83823  1.0000
  H   H1485     1.0  0.00596  0.57210  0.92541  1.0000
  S   S367      1.0  0.37622  0.73715  0.83415  1.0000
  C   C914      1.0  0.40232  0.73291  0.84736  1.0000
  H   H1486     1.0  0.33690  0.73698  0.81300  1.0000
  H   H1487     1.0  0.00745  0.54860  0.92997  1.0000
  S   S368      1.0  0.01236  0.49704  0.92149  1.0000
  C   C915      1.0  0.42042  0.73488  0.76995  1.0000
  C   C916      1.0  0.00655  0.56032  0.90516  1.0000
  H   H1488     1.0  0.09987  0.50270  0.97869  1.0000
  H   H1489     1.0  0.49472  0.73115  0.85338  1.0000
  C   C917      1.0  0.46522  0.74159  0.83408  1.0000
  C   C918      1.0  0.41162  0.73906  0.85379  1.0000
  C   C919      1.0  0.09151  0.49516  0.97654  1.0000
  C   C920      1.0  0.07239  0.64309  0.98589  1.0000
  C   C921      1.0  0.00869  0.49244  0.98438  1.0000
  H   H1490     1.0  0.50076  0.73682  0.82443  1.0000
  C   C922      1.0  0.17412  0.77467  0.18636  1.0000
  H   H1491     1.0  0.19775  0.76021  0.16785  1.0000
  S   S369      1.0  0.40050  0.91627  0.03912  1.0000
  S   S370      1.0  0.44611  0.92796  0.01927  1.0000
  H   H1492     1.0  0.17298  0.74976  0.23447  1.0000
  Fe  Fe183     1.0  0.42647  0.84894  0.09811  1.0000
  S   S371      1.0  0.42364  0.86094  0.11461  1.0000
  S   S372      1.0  0.44210  0.86179  0.07956  1.0000
  Fe  Fe184     1.0  0.40891  0.81888  0.11462  1.0000
  S   S373      1.0  0.40478  0.82816  0.13257  1.0000
  S   S374      1.0  0.39713  0.79548  0.11680  1.0000
  Fe  Fe185     1.0  0.39603  0.85505  0.12076  1.0000
  S   S375      1.0  0.37158  0.87567  0.12637  1.0000
  Fe  Fe186     1.0  0.43270  0.83301  0.12483  1.0000
  S   S376      1.0  0.45465  0.82416  0.13586  1.0000
  S   S377      1.0  0.39804  0.84552  0.10328  1.0000
  S   S378      1.0  0.43768  0.82128  0.10784  1.0000
  H   H1493     1.0  0.23378  0.75571  0.19029  1.0000
  H   H1494     1.0  0.20406  0.79764  0.16520  1.0000
  C   C923      1.0  0.48627  0.86806  0.12363  1.0000
  H   H1495     1.0  0.38295  0.88802  0.08354  1.0000
  H   H1496     1.0  0.36208  0.79856  0.11292  1.0000
  N   N92       1.0  0.34145  0.80955  0.12737  1.0000
  N   N93       1.0  0.49164  0.84893  0.08889  1.0000
  H   H1497     1.0  0.36248  0.79160  0.13613  1.0000
  H   H1498     1.0  0.34955  0.76049  0.18249  1.0000
  H   H1499     1.0  0.24913  0.74972  0.22474  1.0000
  C   C924      1.0  0.49475  0.95806  0.04238  1.0000
  H   H1500     1.0  0.48032  0.96943  0.99032  1.0000
  C   C925      1.0  0.48547  0.83667  0.13048  1.0000
  H   H1501     1.0  0.36121  0.81469  0.13506  1.0000
  H   H1502     1.0  0.34489  0.80348  0.14658  1.0000
  C   C926      1.0  0.49891  0.95735  0.00911  1.0000
  Fe  Fe187     1.0  0.30082  0.82216  0.17033  1.0000
  S   S379      1.0  0.32430  0.80529  0.17857  1.0000
  S   S380      1.0  0.30043  0.84957  0.15803  1.0000
  Fe  Fe188     1.0  0.27872  0.79322  0.18098  1.0000
  S   S381      1.0  0.30073  0.77409  0.18962  1.0000
  S   S382      1.0  0.25346  0.78313  0.18474  1.0000
  Fe  Fe189     1.0  0.30317  0.79760  0.19590  1.0000
  H   H1503     1.0  0.44333  0.91740  0.99332  1.0000
  Fe  Fe190     1.0  0.31903  0.78385  0.17149  1.0000
  S   S383      1.0  0.33892  0.76741  0.15844  1.0000
  S   S384      1.0  0.28002  0.81632  0.18819  1.0000
  S   S385      1.0  0.29674  0.80121  0.16224  1.0000
  H   H1504     1.0  0.37757  0.93037  0.10169  1.0000
  H   H1505     1.0  0.27426  0.77433  0.23541  1.0000
  H   H1506     1.0  0.20539  0.75080  0.18234  1.0000
  C   C927      1.0  0.44311  0.75832  0.11078  1.0000
  C   C928      1.0  0.37274  0.74764  0.15494  1.0000
  C   C929      1.0  0.25126  0.76267  0.21839  1.0000
  H   H1507     1.0  0.49263  0.92506  0.09555  1.0000
  H   H1508     1.0  0.26896  0.78916  0.20859  1.0000
  C   C930      1.0  0.49196  0.95806  0.98924  1.0000
  H   H1509     1.0  0.48793  0.74973  0.12432  1.0000
  H   H1510     1.0  0.34059  0.78232  0.12912  1.0000
  Fe  Fe191     1.0  0.41780  0.97589  0.01965  1.0000
  C   C931      1.0  0.35865  0.75575  0.16350  1.0000
  C   C932      1.0  0.25789  0.76383  0.17874  1.0000
  H   H1511     1.0  0.25977  0.80066  0.22134  1.0000
  S   S386      1.0  0.44717  0.97030  0.01093  1.0000
  H   H1512     1.0  0.24532  0.79814  0.21223  1.0000
  H   H1513     1.0  0.28326  0.76780  0.16641  1.0000
  H   H1514     1.0  0.50066  0.81823  0.15409  1.0000
  H   H1515     1.0  0.18201  0.80628  0.17366  1.0000
  H   H1516     1.0  0.33587  0.83756  0.12689  1.0000
  H   H1517     1.0  0.29112  0.83060  0.20622  1.0000
  H   H1518     1.0  0.31947  0.83055  0.12209  1.0000
  N   N94       1.0  0.42272  0.77382  0.15407  1.0000
  H   H1519     1.0  0.43621  0.76328  0.16966  1.0000
  H   H1520     1.0  0.32020  0.82578  0.13855  1.0000
  C   C933      1.0  0.40416  0.78099  0.15213  1.0000
  S   S387      1.0  0.42060  0.95591  0.03784  1.0000
  C   C934      1.0  0.35230  0.86777  0.13555  1.0000
  C   C935      1.0  0.35331  0.85033  0.14274  1.0000
  C   C936      1.0  0.33752  0.84462  0.15003  1.0000
  C   C937      1.0  0.32072  0.85624  0.14986  1.0000
  C   C938      1.0  0.31984  0.87359  0.14264  1.0000
  C   C939      1.0  0.33553  0.87938  0.13562  1.0000
  H   H1521     1.0  0.36622  0.84138  0.14291  1.0000
  H   H1522     1.0  0.33833  0.83128  0.15570  1.0000
  H   H1523     1.0  0.30692  0.88264  0.14251  1.0000
  H   H1524     1.0  0.33463  0.89288  0.13018  1.0000
  C   C940      1.0  0.41274  0.77525  0.11648  1.0000
  C   C941      1.0  0.40688  0.75940  0.12225  1.0000
  H   H1525     1.0  0.43401  0.79151  0.13742  1.0000
  C   C942      1.0  0.32870  0.82660  0.12876  1.0000
  H   H1526     1.0  0.40381  0.78443  0.14189  1.0000
  C   C943      1.0  0.43087  0.77473  0.11075  1.0000
  H   H1527     1.0  0.39284  0.75976  0.12656  1.0000
  C   C944      1.0  0.47759  0.86030  0.09669  1.0000
  H   H1528     1.0  0.26262  0.75995  0.21027  1.0000
  H   H1529     1.0  0.43541  0.78690  0.10602  1.0000
  H   H1530     1.0  0.23901  0.76888  0.21441  1.0000
  C   C945      1.0  0.46748  0.87231  0.12612  1.0000
  C   C946      1.0  0.45771  0.85881  0.13059  1.0000
  C   C947      1.0  0.46668  0.84097  0.13247  1.0000
  C   C948      1.0  0.43074  0.75793  0.14849  1.0000
  H   H1531     1.0  0.36119  0.82130  0.11255  1.0000
  H   H1532     1.0  0.46045  0.88608  0.12436  1.0000
  H   H1533     1.0  0.44321  0.86223  0.13244  1.0000
  C   C949      1.0  0.27622  0.74462  0.16437  1.0000
  Fe  Fe192     1.0  0.41691  0.93664  0.02792  1.0000
  C   C950      1.0  0.41206  0.90074  0.05021  1.0000
  C   C951      1.0  0.40481  0.88635  0.05810  1.0000
  C   C952      1.0  0.41383  0.87432  0.06728  1.0000
  C   C953      1.0  0.43020  0.87658  0.06842  1.0000
  C   C954      1.0  0.43740  0.89092  0.06053  1.0000
  C   C955      1.0  0.42826  0.90308  0.05158  1.0000
  H   H1534     1.0  0.39228  0.88449  0.05708  1.0000
  H   H1535     1.0  0.40833  0.86311  0.07324  1.0000
  H   H1536     1.0  0.45003  0.89279  0.06138  1.0000
  C   C956      1.0  0.28708  0.82840  0.21645  1.0000
  Fe  Fe193     1.0  0.44086  0.95046  0.00288  1.0000
  H   H1537     1.0  0.21383  0.78429  0.18547  1.0000
  H   H1538     1.0  0.16503  0.78590  0.19053  1.0000
  H   H1539     1.0  0.46527  0.86557  0.09276  1.0000
  H   H1540     1.0  0.45415  0.97835  0.03488  1.0000
  H   H1541     1.0  0.48224  0.87191  0.09735  1.0000
  Fe  Fe194     1.0  0.44945  0.94847  0.02819  1.0000
  H   H1542     1.0  0.19185  0.79274  0.19407  1.0000
  C   C957      1.0  0.49527  0.85022  0.12602  1.0000
  C   C958      1.0  0.37628  0.74395  0.17972  1.0000
  S   S388      1.0  0.47180  0.94111  0.03859  1.0000
  C   C959      1.0  0.36045  0.75416  0.17586  1.0000
  H   H1543     1.0  0.40735  0.91008  0.09655  1.0000
  H   H1544     1.0  0.41434  0.75859  0.17280  1.0000
  H   H1545     1.0  0.43379  0.91431  0.04577  1.0000
  H   H1546     1.0  0.45709  0.75792  0.10622  1.0000
  C   C960      1.0  0.48546  0.83278  0.08949  1.0000
  C   C961      1.0  0.49514  0.85890  0.07559  1.0000
  H   H1547     1.0  0.34447  0.81569  0.10707  1.0000
  H   H1548     1.0  0.16770  0.77215  0.17950  1.0000
  H   H1549     1.0  0.39550  0.77119  0.15693  1.0000
  H   H1550     1.0  0.37555  0.92817  0.07478  1.0000
  C   C962      1.0  0.27783  0.84276  0.22228  1.0000
  H   H1551     1.0  0.47349  0.85271  0.10647  1.0000
  C   C963      1.0  0.35301  0.80465  0.13669  1.0000
  C   C964      1.0  0.47807  0.95995  0.03961  1.0000
  C   C965      1.0  0.37112  0.92034  0.10049  1.0000
  H   H1552     1.0  0.44469  0.75207  0.14989  1.0000
  S   S389      1.0  0.41119  0.95733  0.01054  1.0000
  H   H1553     1.0  0.22667  0.78421  0.23242  1.0000
  H   H1554     1.0  0.27466  0.85593  0.21647  1.0000
  H   H1555     1.0  0.37141  0.74905  0.14533  1.0000
  C   C966      1.0  0.35274  0.81139  0.11439  1.0000
  H   H1556     1.0  0.36157  0.90282  0.08683  1.0000
  H   H1557     1.0  0.35842  0.92752  0.09732  1.0000
  H   H1558     1.0  0.44764  0.78265  0.14907  1.0000
  N   N95       1.0  0.25471  0.77436  0.22530  1.0000
  H   H1559     1.0  0.20162  0.76949  0.19765  1.0000
  H   H1560     1.0  0.39725  0.91388  0.07185  1.0000
  C   C967      1.0  0.43354  0.78749  0.14782  1.0000
  S   S390      1.0  0.20814  0.75438  0.23474  1.0000
  H   H1561     1.0  0.43121  0.76116  0.13813  1.0000
  C   C968      1.0  0.25722  0.79138  0.21651  1.0000
  H   H1562     1.0  0.49484  0.91971  0.08052  1.0000
  H   H1563     1.0  0.17484  0.76263  0.19416  1.0000
  H   H1564     1.0  0.37069  0.88725  0.09960  1.0000
  H   H1565     1.0  0.36744  0.91176  0.11004  1.0000
  H   H1566     1.0  0.32281  0.79849  0.12259  1.0000
  H   H1567     1.0  0.32244  0.79402  0.13922  1.0000
  H   H1568     1.0  0.18470  0.79268  0.16255  1.0000
  C   C969      1.0  0.33137  0.79551  0.12962  1.0000
  H   H1569     1.0  0.39413  0.93195  0.07930  1.0000
  C   C970      1.0  0.37420  0.89638  0.09028  1.0000
  S   S391      1.0  0.30306  0.79319  0.21670  1.0000
  H   H1570     1.0  0.39692  0.89191  0.10555  1.0000
  H   H1571     1.0  0.40913  0.89182  0.08952  1.0000
  H   H1572     1.0  0.41649  0.78056  0.17235  1.0000
  H   H1573     1.0  0.48725  0.96843  0.01111  1.0000
  H   H1574     1.0  0.49577  0.82382  0.08377  1.0000
  C   C971      1.0  0.42244  0.76888  0.16782  1.0000
  H   H1575     1.0  0.28306  0.76309  0.22252  1.0000
  C   C972      1.0  0.29145  0.81137  0.22385  1.0000
  C   C973      1.0  0.39990  0.90049  0.09593  1.0000
  H   H1576     1.0  0.47297  0.83619  0.08579  1.0000
  C   C974      1.0  0.27346  0.75953  0.16960  1.0000
  N   N96       1.0  0.38322  0.90968  0.09136  1.0000
  C   C975      1.0  0.38768  0.92147  0.07880  1.0000
  N   N97       1.0  0.19215  0.77840  0.18023  1.0000
  C   C976      1.0  0.20365  0.76311  0.17484  1.0000
  C   C977      1.0  0.19063  0.79447  0.16995  1.0000
  C   C978      1.0  0.20021  0.78136  0.18976  1.0000
  S   S392      1.0  0.49802  0.88520  0.11636  1.0000
  H   H1577     1.0  0.21726  0.76558  0.16989  1.0000
  C   C979      1.0  0.48998  0.99007  0.03921  1.0000
  H   H1578     1.0  0.39782  0.79322  0.15598  1.0000
  H   H1579     1.0  0.42792  0.79974  0.15174  1.0000
  C   C980      1.0  0.24545  0.75285  0.18292  1.0000
  C   C981      1.0  0.20093  0.74469  0.22519  1.0000
  H   H1580     1.0  0.30789  0.89296  0.23333  1.0000
  H   H1581     1.0  0.49245  0.82288  0.13180  1.0000
  H   H1582     1.0  0.49426  0.94470  0.01364  1.0000
  C   C982      1.0  0.50073  0.97311  0.04214  1.0000
  H   H1583     1.0  0.48278  0.86289  0.07162  1.0000
  C   C983      1.0  0.27269  0.84017  0.23553  1.0000
  H   H1584     1.0  0.49036  0.95720  0.08473  1.0000
  C   C984      1.0  0.23928  0.77773  0.23590  1.0000
  C   C985      1.0  0.46709  0.97685  0.03698  1.0000
  H   H1585     1.0  0.42288  0.74738  0.15291  1.0000
  H   H1586     1.0  0.49262  0.95146  0.06984  1.0000
  C   C986      1.0  0.41915  0.74305  0.12251  1.0000
  C   C987      1.0  0.50027  0.95275  0.07643  1.0000
  H   H1587     1.0  0.48673  0.94566  0.99347  1.0000
  H   H1588     1.0  0.50080  0.98728  0.99126  1.0000
  C   C988      1.0  0.27113  0.76571  0.23032  1.0000
  C   C989      1.0  0.18285  0.74435  0.22691  1.0000
  H   H1589     1.0  0.49963  0.87125  0.07483  1.0000
  H   H1590     1.0  0.48241  0.82509  0.09944  1.0000
  H   H1591     1.0  0.49952  0.74243  0.14415  1.0000
  H   H1592     1.0  0.38146  0.93997  0.98755  1.0000
  H   H1593     1.0  0.37757  0.74238  0.18936  1.0000
  C   C990      1.0  0.43727  0.74247  0.11676  1.0000
  Fe  Fe195     1.0  0.02825  0.75083  0.35651  1.0000
  S   S393      1.0  0.37688  0.93022  0.42398  1.0000
  H   H1594     1.0  0.44268  0.97796  0.46829  1.0000
  H   H1595     1.0  0.08092  0.97356  0.34597  1.0000
  S   S394      1.0  0.35249  0.97118  0.41781  1.0000
  H   H1596     1.0  0.16875  0.79795  0.29280  1.0000
  Fe  Fe196     1.0  0.36389  0.95282  0.43428  1.0000
  S   S395      1.0  0.35077  0.95013  0.45518  1.0000
  Fe  Fe197     1.0  0.36748  0.94968  0.40699  1.0000
  S   S396      1.0  0.36072  0.94623  0.38942  1.0000
  H   H1597     1.0  0.43770  0.91286  0.47846  1.0000
  H   H1598     1.0  0.26976  0.75283  0.23703  1.0000
  Fe  Fe198     1.0  0.02525  0.86695  0.30651  1.0000
  S   S397      1.0  0.03386  0.87998  0.31876  1.0000
  H   H1599     1.0  0.37333  0.98611  0.36123  1.0000
  Fe  Fe199     1.0  0.05829  0.83728  0.30615  1.0000
  S   S398      1.0  0.06961  0.84703  0.31860  1.0000
  S   S399      1.0  0.07193  0.81213  0.29933  1.0000
  Fe  Fe200     1.0  0.04141  0.85218  0.32975  1.0000
  S   S400      1.0  0.03411  0.84588  0.35098  1.0000
  Fe  Fe201     1.0  0.06153  0.87399  0.30655  1.0000
  S   S401      1.0  0.08342  0.88982  0.30006  1.0000
  S   S402      1.0  0.03076  0.83965  0.31858  1.0000
  S   S403      1.0  0.05226  0.86375  0.29306  1.0000
  Fe  Fe202     1.0  0.11330  0.95187  0.32666  1.0000
  S   S404      1.0  0.11943  0.97318  0.30942  1.0000
  S   S405      1.0  0.08677  0.94333  0.33178  1.0000
  Fe  Fe203     1.0  0.14826  0.94867  0.33427  1.0000
  S   S406      1.0  0.15711  0.96988  0.31781  1.0000
  S   S407      1.0  0.16697  0.93207  0.34680  1.0000
  C   C991      1.0  0.31394  0.98749  0.32752  1.0000
  S   S408      1.0  0.15982  0.77006  0.25743  1.0000
  Fe  Fe204     1.0  0.14725  0.95649  0.30668  1.0000
  S   S409      1.0  0.16439  0.95244  0.28777  1.0000
  S   S410      1.0  0.12037  0.96447  0.33984  1.0000
  S   S411      1.0  0.14053  0.93408  0.32285  1.0000
  Fe  Fe205     1.0  0.24359  0.83123  0.28970  1.0000
  S   S412      1.0  0.22856  0.83863  0.27408  1.0000
  C   C992      1.0  0.32213  0.97552  0.33701  1.0000
  Fe  Fe206     1.0  0.24939  0.86856  0.28613  1.0000
  S   S413      1.0  0.23430  0.87875  0.27041  1.0000
  S   S414      1.0  0.26090  0.89033  0.28840  1.0000
  Fe  Fe207     1.0  0.21456  0.86247  0.28251  1.0000
  S   S415      1.0  0.18438  0.87120  0.28615  1.0000
  Fe  Fe208     1.0  0.24979  0.85409  0.26342  1.0000
  C   C993      1.0  0.23347  0.78982  0.28760  1.0000
  S   S416      1.0  0.22815  0.85421  0.29896  1.0000
  S   S417      1.0  0.26622  0.84474  0.27834  1.0000
  Fe  Fe209     1.0  0.24931  0.95887  0.34852  1.0000
  S   S418      1.0  0.26502  0.95140  0.33017  1.0000
  S   S419      1.0  0.22124  0.97518  0.34958  1.0000
  Fe  Fe210     1.0  0.28074  0.94270  0.36198  1.0000
  S   S420      1.0  0.29912  0.93361  0.34471  1.0000
  S   S421      1.0  0.28702  0.93823  0.38137  1.0000
  Fe  Fe211     1.0  0.28701  0.96046  0.33414  1.0000
  C   C994      1.0  0.43482  0.95150  0.42948  1.0000
  Fe  Fe212     1.0  0.27534  0.92528  0.34235  1.0000
  S   S422      1.0  0.27617  0.89804  0.33943  1.0000
  S   S423      1.0  0.27040  0.97014  0.35156  1.0000
  S   S424      1.0  0.25784  0.93219  0.36060  1.0000
  S   S425      1.0  0.38873  0.96348  0.42936  1.0000
  H   H1600     1.0  0.48611  0.93694  0.41267  1.0000
  C   C995      1.0  0.22163  0.76287  0.29591  1.0000
  N   N98       1.0  0.06168  0.76578  0.29549  1.0000
  S   S426      1.0  0.42989  0.92747  0.41798  1.0000
  S   S427      1.0  0.04409  0.75432  0.33653  1.0000
  H   H1601     1.0  0.32469  0.88387  0.24273  1.0000
  C   C996      1.0  0.44279  0.95679  0.43716  1.0000
  H   H1602     1.0  0.08177  0.77045  0.27835  1.0000
  H   H1603     1.0  0.32128  0.96171  0.33932  1.0000
  C   C997      1.0  0.23830  0.78783  0.29913  1.0000
  C   C998      1.0  0.46493  0.95846  0.39741  1.0000
  C   C999      1.0  0.09032  0.87280  0.33714  1.0000
  H   H1604     1.0  0.47959  0.98713  0.38661  1.0000
  C   C1000     1.0  0.22507  0.77738  0.28600  1.0000
  C   C1001     1.0  0.22702  0.76062  0.30725  1.0000
  N   N99       1.0  0.17977  0.81815  0.29533  1.0000
  C   C1002     1.0  0.36599  0.96721  0.48102  1.0000
  H   H1605     1.0  0.27307  0.82102  0.25322  1.0000
  C   C1003     1.0  0.26464  0.89219  0.30281  1.0000
  C   C1004     1.0  0.26373  0.87844  0.31362  1.0000
  C   C1005     1.0  0.26724  0.88039  0.32481  1.0000
  C   C1006     1.0  0.27133  0.89619  0.32535  1.0000
  C   C1007     1.0  0.27186  0.91005  0.31460  1.0000
  C   C1008     1.0  0.26868  0.90798  0.30337  1.0000
  H   H1606     1.0  0.26070  0.86618  0.31330  1.0000
  H   H1607     1.0  0.26686  0.86959  0.33307  1.0000
  H   H1608     1.0  0.27515  0.92221  0.31484  1.0000
  H   H1609     1.0  0.26944  0.91868  0.29505  1.0000
  H   H1610     1.0  0.20441  0.81105  0.30194  1.0000
  H   H1611     1.0  0.16342  0.84438  0.29520  1.0000
  H   H1612     1.0  0.49592  0.98150  0.39633  1.0000
  H   H1613     1.0  0.39774  0.91269  0.48467  1.0000
  H   H1614     1.0  0.13050  0.76007  0.29746  1.0000
  H   H1615     1.0  0.18100  0.82077  0.27550  1.0000
  Fe  Fe213     1.0  0.16605  0.78668  0.26832  1.0000
  H   H1616     1.0  0.31622  0.86849  0.26528  1.0000
  C   C1009     1.0  0.03196  0.79580  0.35138  1.0000
  C   C1010     1.0  0.16887  0.93026  0.28649  1.0000
  C   C1011     1.0  0.18438  0.92359  0.27819  1.0000
  C   C1012     1.0  0.18892  0.90551  0.27787  1.0000
  C   C1013     1.0  0.17808  0.89403  0.28591  1.0000
  C   C1014     1.0  0.16219  0.90082  0.29388  1.0000
  C   C1015     1.0  0.15753  0.91896  0.29409  1.0000
  H   H1617     1.0  0.19302  0.93235  0.27213  1.0000
  H   H1618     1.0  0.20073  0.90056  0.27127  1.0000
  H   H1619     1.0  0.15370  0.89206  0.30014  1.0000
  H   H1620     1.0  0.14513  0.92421  0.30008  1.0000
  C   C1016     1.0  0.18196  0.94410  0.34760  1.0000
  C   C1017     1.0  0.19877  0.93507  0.35023  1.0000
  C   C1018     1.0  0.21105  0.94460  0.35057  1.0000
  C   C1019     1.0  0.20631  0.96314  0.34867  1.0000
  C   C1020     1.0  0.18944  0.97218  0.34612  1.0000
  C   C1021     1.0  0.17735  0.96266  0.34543  1.0000
  H   H1621     1.0  0.20235  0.92070  0.35195  1.0000
  H   H1622     1.0  0.22405  0.93756  0.35252  1.0000
  Fe  Fe214     1.0  0.37863  0.97980  0.41219  1.0000
  H   H1623     1.0  0.16429  0.96964  0.34353  1.0000
  C   C1022     1.0  0.08391  0.90470  0.30900  1.0000
  C   C1023     1.0  0.10005  0.90987  0.30755  1.0000
  C   C1024     1.0  0.10093  0.92180  0.31442  1.0000
  C   C1025     1.0  0.08572  0.92856  0.32292  1.0000
  C   C1026     1.0  0.06958  0.92329  0.32450  1.0000
  C   C1027     1.0  0.06865  0.91140  0.31753  1.0000
  H   H1624     1.0  0.11201  0.90456  0.30118  1.0000
  H   H1625     1.0  0.11340  0.92579  0.31312  1.0000
  H   H1626     1.0  0.05771  0.92858  0.33099  1.0000
  H   H1627     1.0  0.05609  0.90765  0.31861  1.0000
  C   C1028     1.0  0.35783  0.96321  0.46257  1.0000
  H   H1628     1.0  0.03785  0.78639  0.34528  1.0000
  C   C1029     1.0  0.46433  0.92873  0.43855  1.0000
  H   H1629     1.0  0.33525  0.89474  0.36839  1.0000
  C   C1030     1.0  0.09399  0.81305  0.29106  1.0000
  C   C1031     1.0  0.10539  0.79803  0.28694  1.0000
  C   C1032     1.0  0.12301  0.79861  0.28027  1.0000
  C   C1033     1.0  0.12935  0.81420  0.27771  1.0000
  C   C1034     1.0  0.11797  0.82926  0.28180  1.0000
  C   C1035     1.0  0.10029  0.82869  0.28850  1.0000
  H   H1630     1.0  0.10067  0.78589  0.28892  1.0000
  H   H1631     1.0  0.13161  0.78699  0.27703  1.0000
  H   H1632     1.0  0.12276  0.84133  0.27981  1.0000
  H   H1633     1.0  0.09151  0.84036  0.29161  1.0000
  C   C1036     1.0  0.03738  0.81206  0.34820  1.0000
  C   C1037     1.0  0.45746  0.94538  0.44179  1.0000
  H   H1634     1.0  0.04748  0.81499  0.33969  1.0000
  C   C1038     1.0  0.23528  0.77306  0.30886  1.0000
  H   H1635     1.0  0.23915  0.77135  0.31774  1.0000
  H   H1636     1.0  0.13915  0.86128  0.28209  1.0000
  Fe  Fe215     1.0  0.12856  0.98457  0.32228  1.0000
  H   H1637     1.0  0.06126  0.98267  0.35659  1.0000
  C   C1039     1.0  0.06821  0.77694  0.28308  1.0000
  H   H1638     1.0  0.39733  0.98216  0.35872  1.0000
  H   H1639     1.0  0.46095  0.91024  0.42886  1.0000
  C   C1040     1.0  0.33988  0.94447  0.38749  1.0000
  C   C1041     1.0  0.32535  0.94225  0.39772  1.0000
  C   C1042     1.0  0.30921  0.94039  0.39570  1.0000
  C   C1043     1.0  0.30738  0.94104  0.38344  1.0000
  C   C1044     1.0  0.32176  0.94365  0.37318  1.0000
  C   C1045     1.0  0.33801  0.94513  0.37524  1.0000
  H   H1640     1.0  0.32668  0.94166  0.40720  1.0000
  H   H1641     1.0  0.29812  0.93837  0.40370  1.0000
  H   H1642     1.0  0.32049  0.94438  0.36367  1.0000
  H   H1643     1.0  0.34922  0.94684  0.36728  1.0000
  H   H1644     1.0  0.47568  0.91983  0.44216  1.0000
  S   S428      1.0  0.24739  0.80380  0.30202  1.0000
  N   N100      1.0  0.41427  0.93079  0.47270  1.0000
  C   C1046     1.0  0.30201  0.87515  0.26499  1.0000
  Fe  Fe216     1.0  0.19337  0.75655  0.27995  1.0000
  Fe  Fe217     1.0  0.18967  0.75940  0.25326  1.0000
  H   H1645     1.0  0.19324  0.83389  0.30094  1.0000
  S   S429      1.0  0.16408  0.76668  0.28668  1.0000
  C   C1047     1.0  0.16203  0.83033  0.29751  1.0000
  C   C1048     1.0  0.48659  0.95124  0.41056  1.0000
  H   H1646     1.0  0.44206  0.99056  0.47949  1.0000
  H   H1647     1.0  0.12041  0.87544  0.29020  1.0000
  H   H1648     1.0  0.14954  0.89618  0.25343  1.0000
  C   C1049     1.0  0.07656  0.84976  0.35221  1.0000
  C   C1050     1.0  0.28238  0.98547  0.37817  1.0000
  C   C1051     1.0  0.44094  0.93459  0.42674  1.0000
  N   N101      1.0  0.30959  0.88724  0.37423  1.0000
  C   C1052     1.0  0.30809  0.88703  0.38772  1.0000
  C   C1053     1.0  0.29162  0.89388  0.37114  1.0000
  C   C1054     1.0  0.31696  0.86907  0.37189  1.0000
  C   C1055     1.0  0.32166  0.89906  0.36614  1.0000
  H   H1649     1.0  0.32139  0.88211  0.39041  1.0000
  H   H1650     1.0  0.29890  0.87843  0.39412  1.0000
  H   H1651     1.0  0.30265  0.90064  0.38972  1.0000
  H   H1652     1.0  0.29226  0.89476  0.36093  1.0000
  H   H1653     1.0  0.28222  0.88510  0.37681  1.0000
  H   H1654     1.0  0.28549  0.90737  0.37313  1.0000
  H   H1655     1.0  0.31798  0.86885  0.36180  1.0000
  H   H1656     1.0  0.30823  0.85978  0.37791  1.0000
  H   H1657     1.0  0.33062  0.86370  0.37396  1.0000
  H   H1658     1.0  0.32331  0.89940  0.35588  1.0000
  H   H1659     1.0  0.31626  0.91294  0.36751  1.0000
  H   H1660     1.0  0.39968  0.92370  0.46176  1.0000
  H   H1661     1.0  0.08779  0.86945  0.32883  1.0000
  Fe  Fe218     1.0  0.15979  0.74934  0.27557  1.0000
  Fe  Fe219     1.0  0.49446  0.95510  0.44472  1.0000
  H   H1662     1.0  0.46445  0.94419  0.39902  1.0000
  C   C1056     1.0  0.01102  0.80440  0.37000  1.0000
  H   H1663     1.0  0.18461  0.81702  0.31358  1.0000
  C   C1057     1.0  0.35807  0.95808  0.47557  1.0000
  H   H1664     1.0  0.29336  0.86650  0.27204  1.0000
  H   H1665     1.0  0.11301  0.76210  0.31913  1.0000
  H   H1666     1.0  0.23693  0.76512  0.24269  1.0000
  H   H1667     1.0  0.07563  0.77454  0.30594  1.0000
  H   H1668     1.0  0.41243  0.98325  0.41033  1.0000
  H   H1669     1.0  0.14286  0.87825  0.28815  1.0000
  H   H1670     1.0  0.27599  0.90016  0.25554  1.0000
  H   H1671     1.0  0.31821  0.98194  0.36973  1.0000
  H   H1672     1.0  0.29895  0.88771  0.26843  1.0000
  H   H1673     1.0  0.05952  0.97833  0.34204  1.0000
  S   S430      1.0  0.19596  0.77814  0.26249  1.0000
  H   H1674     1.0  0.43750  0.96974  0.43950  1.0000
  H   H1675     1.0  0.12537  0.86933  0.26335  1.0000
  H   H1676     1.0  0.22457  0.74937  0.31490  1.0000
  C   C1058     1.0  0.45599  0.92331  0.43107  1.0000
  H   H1677     1.0  0.44000  0.92076  0.46167  1.0000
  H   H1678     1.0  0.30760  0.90313  0.24589  1.0000
  H   H1679     1.0  0.39345  0.94656  0.46291  1.0000
  C   C1059     1.0  0.17725  0.79968  0.29864  1.0000
  H   H1680     1.0  0.19028  0.79007  0.29697  1.0000
  C   C1060     1.0  0.02955  0.82450  0.35590  1.0000
  N   N102      1.0  0.13215  0.88774  0.27129  1.0000
  C   C1061     1.0  0.12472  0.90597  0.27352  1.0000
  C   C1062     1.0  0.12003  0.88290  0.26540  1.0000
  C   C1063     1.0  0.13370  0.87512  0.28349  1.0000
  C   C1064     1.0  0.15014  0.88692  0.26278  1.0000
  H   H1681     1.0  0.12388  0.91591  0.26447  1.0000
  H   H1682     1.0  0.13317  0.90986  0.27838  1.0000
  H   H1683     1.0  0.11088  0.90718  0.27955  1.0000
  H   H1684     1.0  0.07069  0.75300  0.31288  1.0000
  H   H1685     1.0  0.04502  0.78778  0.30363  1.0000
  H   H1686     1.0  0.11819  0.89235  0.25629  1.0000
  H   H1687     1.0  0.22137  0.77896  0.27710  1.0000
  S   S431      1.0  0.46608  0.95164  0.45234  1.0000
  C   C1065     1.0  0.33184  0.98131  0.34329  1.0000
  H   H1688     1.0  0.42826  0.95212  0.46423  1.0000
  H   H1689     1.0  0.15625  0.87329  0.26100  1.0000
  H   H1690     1.0  0.15956  0.89057  0.26698  1.0000
  H   H1691     1.0  0.42398  0.96062  0.42563  1.0000
  S   S432      1.0  0.15162  0.81469  0.26968  1.0000
  S   S433      1.0  0.39307  0.95981  0.40038  1.0000
  H   H1692     1.0  0.03408  0.77873  0.29545  1.0000
  C   C1066     1.0  0.48264  0.97959  0.39597  1.0000
  C   C1067     1.0  0.18876  0.82249  0.28182  1.0000
  H   H1693     1.0  0.23640  0.80079  0.27987  1.0000
  H   H1694     1.0  0.36351  0.98282  0.44550  1.0000
  C   C1068     1.0  0.27692  0.82312  0.24298  1.0000
  H   H1695     1.0  0.15479  0.82731  0.30758  1.0000
  C   C1069     1.0  0.19095  0.82011  0.30331  1.0000
  C   C1070     1.0  0.43041  0.91652  0.47060  1.0000
  H   H1696     1.0  0.43991  0.98815  0.41442  1.0000
  H   H1697     1.0  0.05571  0.87529  0.33797  1.0000
  H   H1698     1.0  0.15340  0.82921  0.29150  1.0000
  N   N103      1.0  0.20730  0.91330  0.31488  1.0000
  C   C1071     1.0  0.21446  0.90438  0.30401  1.0000
  C   C1072     1.0  0.19316  0.92912  0.31173  1.0000
  C   C1073     1.0  0.22193  0.91881  0.31770  1.0000
  C   C1074     1.0  0.19960  0.90086  0.32613  1.0000
  H   H1699     1.0  0.22506  0.89229  0.30613  1.0000
  H   H1700     1.0  0.22065  0.91326  0.29538  1.0000
  H   H1701     1.0  0.20372  0.90023  0.30154  1.0000
  H   H1702     1.0  0.18755  0.93620  0.31972  1.0000
  H   H1703     1.0  0.19838  0.93872  0.30317  1.0000
  H   H1704     1.0  0.18180  0.92542  0.30971  1.0000
  H   H1705     1.0  0.21686  0.92616  0.32556  1.0000
  H   H1706     1.0  0.22862  0.92761  0.30927  1.0000
  H   H1707     1.0  0.23245  0.90713  0.32066  1.0000
  H   H1708     1.0  0.18818  0.89680  0.32449  1.0000
  H   H1709     1.0  0.19443  0.90705  0.33458  1.0000
  H   H1710     1.0  0.20983  0.88862  0.32864  1.0000
  N   N104      1.0  0.07625  0.86904  0.34864  1.0000
  C   C1075     1.0  0.05847  0.87894  0.34606  1.0000
  C   C1076     1.0  0.07958  0.87470  0.35916  1.0000
  H   H1711     1.0  0.05754  0.89354  0.34366  1.0000
  H   H1712     1.0  0.04744  0.87596  0.35439  1.0000
  H   H1713     1.0  0.09289  0.86750  0.36138  1.0000
  H   H1714     1.0  0.06915  0.87208  0.36798  1.0000
  H   H1715     1.0  0.07942  0.88920  0.35676  1.0000
  H   H1716     1.0  0.10385  0.86507  0.33856  1.0000
  H   H1717     1.0  0.09088  0.88713  0.33448  1.0000
  H   H1718     1.0  0.07401  0.84506  0.34450  1.0000
  H   H1719     1.0  0.29378  0.85244  0.25457  1.0000
  Fe  Fe220     1.0  0.40114  0.94247  0.41806  1.0000
  C   C1077     1.0  0.49666  0.95273  0.38803  1.0000
  H   H1720     1.0  0.08971  0.84180  0.35429  1.0000
  H   H1721     1.0  0.33841  0.97195  0.35046  1.0000
  C   C1078     1.0  0.07461  0.76216  0.30369  1.0000
  H   H1722     1.0  0.26824  0.99159  0.37735  1.0000
  H   H1723     1.0  0.45410  0.96405  0.40483  1.0000
  N   N105      1.0  0.29858  0.87854  0.25212  1.0000
  C   C1079     1.0  0.27957  0.88740  0.25230  1.0000
  H   H1724     1.0  0.31665  0.85438  0.24776  1.0000
  H   H1725     1.0  0.47677  0.95734  0.41820  1.0000
  H   H1726     1.0  0.19038  0.83652  0.27890  1.0000
  S   S434      1.0  0.21003  0.74767  0.29473  1.0000
  C   C1080     1.0  0.31022  0.89015  0.24312  1.0000
  H   H1727     1.0  0.06592  0.84649  0.36076  1.0000
  C   C1081     1.0  0.31166  0.99020  0.37696  1.0000
  C   C1082     1.0  0.44814  0.98860  0.46963  1.0000
  C   C1083     1.0  0.40498  0.93508  0.46210  1.0000
  H   H1728     1.0  0.17066  0.79585  0.30879  1.0000
  H   H1729     1.0  0.40776  0.95760  0.47540  1.0000
  H   H1730     1.0  0.20231  0.81376  0.27987  1.0000
  C   C1084     1.0  0.11353  0.75090  0.31525  1.0000
  H   H1731     1.0  0.46144  0.96534  0.38807  1.0000
  H   H1732     1.0  0.10646  0.88300  0.27177  1.0000
  S   S435      1.0  0.26151  0.85866  0.24242  1.0000
  S   S436      1.0  0.00960  0.77311  0.36530  1.0000
  H   H1733     1.0  0.00689  0.83902  0.30392  1.0000
  S   S437      1.0  0.49984  0.97828  0.42885  1.0000
  H   H1734     1.0  0.28219  0.97671  0.38778  1.0000
  H   H1735     1.0  0.50015  0.95191  0.41119  1.0000
  H   H1736     1.0  0.08826  0.75592  0.29904  1.0000
  C   C1085     1.0  0.40206  0.92477  0.48478  1.0000
  H   H1737     1.0  0.03836  0.76686  0.31072  1.0000
  H   H1738     1.0  0.49412  0.95937  0.37839  1.0000
  C   C1086     1.0  0.06000  0.74875  0.29360  1.0000
  C   C1087     1.0  0.04400  0.77522  0.30159  1.0000
  H   H1739     1.0  0.00213  0.82252  0.34361  1.0000
  C   C1088     1.0  0.36454  0.97812  0.45530  1.0000
  H   H1740     1.0  0.29970  0.86358  0.23844  1.0000
  C   C1089     1.0  0.01845  0.79214  0.36212  1.0000
  C   C1090     1.0  0.12369  0.74963  0.30303  1.0000
  H   H1741     1.0  0.35260  0.94674  0.48133  1.0000
  H   H1742     1.0  0.24146  0.78653  0.24129  1.0000
  H   H1743     1.0  0.31223  0.98127  0.38644  1.0000
  H   H1744     1.0  0.18571  0.98651  0.34467  1.0000
  H   H1745     1.0  0.05896  0.77970  0.27655  1.0000
  H   H1746     1.0  0.06932  0.79001  0.28419  1.0000
  H   H1747     1.0  0.05008  0.75085  0.28767  1.0000
  N   N106      1.0  0.48269  0.96052  0.39798  1.0000
  C   C1091     1.0  0.01682  0.82042  0.36703  1.0000
  H   H1748     1.0  0.27054  0.87887  0.25890  1.0000
  C   C1092     1.0  0.38454  0.98606  0.36548  1.0000
  C   C1093     1.0  0.30242  0.86150  0.24805  1.0000
  H   H1749     1.0  0.28983  0.79563  0.24292  1.0000
  H   H1750     1.0  0.01088  0.82994  0.37307  1.0000
  H   H1751     1.0  0.41409  0.93865  0.45277  1.0000
  S   S438      1.0  0.30146  0.98031  0.31989  1.0000
  C   C1094     1.0  0.37377  0.98138  0.47343  1.0000
  H   H1752     1.0  0.38403  0.97542  0.37428  1.0000
  H   H1753     1.0  0.46285  0.98339  0.46892  1.0000
  C   C1095     1.0  0.37279  0.98689  0.46064  1.0000
  C   C1096     1.0  0.41965  0.94679  0.47335  1.0000
  H   H1754     1.0  0.42688  0.90434  0.46984  1.0000
  H   H1755     1.0  0.28816  0.97667  0.37120  1.0000
  C   C1097     1.0  0.06781  0.98325  0.34640  1.0000
  H   H1756     1.0  0.47237  0.98587  0.40340  1.0000
  C   C1098     1.0  0.28639  0.80876  0.23714  1.0000
  H   H1757     1.0  0.42735  0.94391  0.48091  1.0000
  H   H1758     1.0  0.27636  0.89013  0.24278  1.0000
  H   H1759     1.0  0.49721  0.93829  0.38939  1.0000
  H   H1760     1.0  0.44832  0.99141  0.44522  1.0000
  H   H1761     1.0  0.05926  0.91903  0.59893  1.0000
  S   S439      1.0  0.40530  0.97011  0.53164  1.0000
  H   H1762     1.0  0.29042  0.79242  0.65621  1.0000
  C   C1099     1.0  0.13306  0.76943  0.72716  1.0000
  S   S440      1.0  0.40388  0.95507  0.50713  1.0000
  C   C1100     1.0  0.05512  0.80826  0.66195  1.0000
  Fe  Fe221     1.0  0.38570  0.95985  0.52578  1.0000
  S   S441      1.0  0.36856  0.94123  0.53898  1.0000
  Fe  Fe222     1.0  0.42221  0.96797  0.51219  1.0000
  Fe  Fe223     1.0  0.15164  0.74825  0.69813  1.0000
  H   H1763     1.0  0.06666  0.95674  0.59236  1.0000
  Fe  Fe224     1.0  0.31667  0.95715  0.60418  1.0000
  S   S442      1.0  0.30639  0.96478  0.62324  1.0000
  S   S443      1.0  0.34627  0.95251  0.59546  1.0000
  H   H1764     1.0  0.18320  0.75184  0.70752  1.0000
  S   S444      1.0  0.26619  0.96969  0.61844  1.0000
  C   C1101     1.0  0.23000  0.97910  0.58285  1.0000
  C   C1102     1.0  0.11205  0.76276  0.61438  1.0000
  S   S445      1.0  0.10373  0.75961  0.67225  1.0000
  Fe  Fe225     1.0  0.28685  0.94738  0.62652  1.0000
  S   S446      1.0  0.27542  0.93249  0.64599  1.0000
  C   C1103     1.0  0.01645  0.78675  0.62724  1.0000
  S   S447      1.0  0.29875  0.93778  0.60827  1.0000
  S   S448      1.0  0.12305  0.81056  0.70066  1.0000
  Fe  Fe226     1.0  0.06895  0.87259  0.65471  1.0000
  S   S449      1.0  0.09585  0.86429  0.64245  1.0000
  S   S450      1.0  0.06642  0.87194  0.67524  1.0000
  Fe  Fe227     1.0  0.04966  0.88186  0.63278  1.0000
  S   S451      1.0  0.07526  0.87432  0.61885  1.0000
  S   S452      1.0  0.02384  0.89336  0.62587  1.0000
  Fe  Fe228     1.0  0.08117  0.85083  0.63453  1.0000
  S   S453      1.0  0.09080  0.82201  0.63343  1.0000
  Fe  Fe229     1.0  0.08692  0.88873  0.62837  1.0000
  S   S454      1.0  0.10496  0.90805  0.61813  1.0000
  S   S455      1.0  0.05483  0.85744  0.64793  1.0000
  S   S456      1.0  0.06083  0.89798  0.64115  1.0000
  Fe  Fe230     1.0  0.14680  0.95997  0.64787  1.0000
  S   S457      1.0  0.16200  0.95713  0.66293  1.0000
  S   S458      1.0  0.12178  0.94862  0.65368  1.0000
  Fe  Fe231     1.0  0.17330  0.97832  0.62720  1.0000
  C   C1104     1.0  0.28279  0.80897  0.73138  1.0000
  C   C1105     1.0  0.18407  0.74417  0.71686  1.0000
  Fe  Fe232     1.0  0.18629  0.94920  0.64826  1.0000
  S   S459      1.0  0.21081  0.92788  0.65108  1.0000
  H   H1765     1.0  0.36832  0.98866  0.55352  1.0000
  H   H1766     1.0  0.36562  0.98549  0.57039  1.0000
  S   S460      1.0  0.17116  0.94977  0.63392  1.0000
  H   H1767     1.0  0.07900  0.94564  0.61197  1.0000
  Fe  Fe233     1.0  0.25167  0.80534  0.68521  1.0000
  S   S461      1.0  0.23635  0.81208  0.70383  1.0000
  S   S462      1.0  0.25435  0.78025  0.67875  1.0000
  Fe  Fe234     1.0  0.26965  0.83706  0.67748  1.0000
  S   S463      1.0  0.25644  0.84628  0.69580  1.0000
  S   S464      1.0  0.28869  0.84837  0.65999  1.0000
  Fe  Fe235     1.0  0.26216  0.81725  0.70533  1.0000
  H   H1768     1.0  0.22875  0.95624  0.64771  1.0000
  Fe  Fe236     1.0  0.23182  0.84034  0.69282  1.0000
  S   S465      1.0  0.20485  0.85910  0.69466  1.0000
  S   S466      1.0  0.27776  0.80869  0.68732  1.0000
  S   S467      1.0  0.24467  0.83298  0.67397  1.0000
  H   H1769     1.0  0.29991  0.81204  0.65069  1.0000
  H   H1770     1.0  0.02130  0.81333  0.60676  1.0000
  H   H1771     1.0  0.23181  0.93331  0.66690  1.0000
  H   H1772     1.0  0.20181  0.75871  0.71902  1.0000
  S   S468      1.0  0.26413  0.96206  0.58582  1.0000
  C   C1106     1.0  0.20846  0.90905  0.66331  1.0000
  C   C1107     1.0  0.22383  0.89587  0.66507  1.0000
  C   C1108     1.0  0.22267  0.88063  0.67472  1.0000
  C   C1109     1.0  0.20610  0.87843  0.68268  1.0000
  C   C1110     1.0  0.19064  0.89164  0.68096  1.0000
  C   C1111     1.0  0.19181  0.90697  0.67124  1.0000
  H   H1773     1.0  0.23671  0.89743  0.65900  1.0000
  H   H1774     1.0  0.23466  0.87064  0.67605  1.0000
  H   H1775     1.0  0.17781  0.89000  0.68713  1.0000
  H   H1776     1.0  0.17987  0.91711  0.66991  1.0000
  C   C1112     1.0  0.48601  0.97105  0.52889  1.0000
  H   H1777     1.0  0.14369  0.75430  0.59878  1.0000
  C   C1113     1.0  0.48347  0.96345  0.50996  1.0000
  H   H1778     1.0  0.02352  0.78424  0.60262  1.0000
  C   C1114     1.0  0.24102  0.96911  0.59130  1.0000
  C   C1115     1.0  0.08786  0.74325  0.64669  1.0000
  H   H1779     1.0  0.15955  0.79560  0.72869  1.0000
  C   C1116     1.0  0.19499  0.74782  0.72334  1.0000
  H   H1780     1.0  0.03107  0.85510  0.63455  1.0000
  H   H1781     1.0  0.11904  0.80279  0.73048  1.0000
  C   C1117     1.0  0.11687  0.93834  0.64329  1.0000
  C   C1118     1.0  0.12752  0.93777  0.63112  1.0000
  C   C1119     1.0  0.12367  0.92864  0.62338  1.0000
  C   C1120     1.0  0.10937  0.91979  0.62783  1.0000
  C   C1121     1.0  0.09869  0.92048  0.63996  1.0000
  C   C1122     1.0  0.10231  0.92987  0.64759  1.0000
  H   H1782     1.0  0.13869  0.94439  0.62766  1.0000
  H   H1783     1.0  0.13195  0.92826  0.61398  1.0000
  H   H1784     1.0  0.08763  0.91378  0.64352  1.0000
  H   H1785     1.0  0.09392  0.93037  0.65694  1.0000
  C   C1123     1.0  0.07931  0.81462  0.62513  1.0000
  C   C1124     1.0  0.07854  0.79664  0.62816  1.0000
  C   C1125     1.0  0.07145  0.78990  0.62071  1.0000
  C   C1126     1.0  0.06515  0.80105  0.61015  1.0000
  C   C1127     1.0  0.06510  0.81922  0.60748  1.0000
  C   C1128     1.0  0.07213  0.82603  0.61499  1.0000
  H   H1786     1.0  0.08386  0.78780  0.63610  1.0000
  H   H1787     1.0  0.07142  0.77594  0.62293  1.0000
  H   H1788     1.0  0.06009  0.82797  0.59939  1.0000
  H   H1789     1.0  0.07261  0.83995  0.61261  1.0000
  Fe  Fe237     1.0  0.16509  0.76957  0.67232  1.0000
  C   C1129     1.0  0.21877  0.78735  0.67712  1.0000
  C   C1130     1.0  0.00953  0.78424  0.60815  1.0000
  S   S469      1.0  0.27225  0.80085  0.72286  1.0000
  H   H1790     1.0  0.21592  0.79609  0.68363  1.0000
  H   H1791     1.0  0.49413  0.93143  0.53120  1.0000
  C   C1131     1.0  0.08172  0.85444  0.68236  1.0000
  C   C1132     1.0  0.08317  0.85360  0.69469  1.0000
  C   C1133     1.0  0.09582  0.83999  0.70032  1.0000
  C   C1134     1.0  0.10694  0.82713  0.69365  1.0000
  C   C1135     1.0  0.10534  0.82786  0.68139  1.0000
  C   C1136     1.0  0.09275  0.84151  0.67576  1.0000
  H   H1792     1.0  0.07460  0.86356  0.69985  1.0000
  H   H1793     1.0  0.09699  0.83947  0.70982  1.0000
  H   H1794     1.0  0.11396  0.81811  0.67615  1.0000
  H   H1795     1.0  0.09156  0.84194  0.66632  1.0000
  C   C1137     1.0  0.28004  0.90908  0.64982  1.0000
  C   C1138     1.0  0.27047  0.90050  0.66124  1.0000
  C   C1139     1.0  0.27312  0.88191  0.66441  1.0000
  C   C1140     1.0  0.28555  0.87172  0.65625  1.0000
  C   C1141     1.0  0.29538  0.88024  0.64488  1.0000
  C   C1142     1.0  0.29258  0.89892  0.64163  1.0000
  H   H1796     1.0  0.26080  0.90822  0.66765  1.0000
  H   H1797     1.0  0.26558  0.87549  0.67322  1.0000
  H   H1798     1.0  0.30518  0.87241  0.63859  1.0000
  H   H1799     1.0  0.30020  0.90543  0.63288  1.0000
  H   H1800     1.0  0.14159  0.74332  0.62224  1.0000
  H   H1801     1.0  0.11523  0.74879  0.61315  1.0000
  C   C1143     1.0  0.12361  0.78757  0.61482  1.0000
  H   H1802     1.0  0.38084  0.82667  0.72262  1.0000
  H   H1803     1.0  0.20219  0.95417  0.66593  1.0000
  H   H1804     1.0  0.04551  0.96671  0.60125  1.0000
  Fe  Fe238     1.0  0.28663  0.98625  0.61367  1.0000
  H   H1805     1.0  0.27553  0.83660  0.72249  1.0000
  C   C1144     1.0  0.10400  0.74835  0.66064  1.0000
  H   H1806     1.0  0.02940  0.94836  0.62028  1.0000
  C   C1145     1.0  0.46530  0.96318  0.51513  1.0000
  C   C1146     1.0  0.24001  0.76708  0.66471  1.0000
  C   C1147     1.0  0.46789  0.97058  0.53409  1.0000
  H   H1807     1.0  0.34965  0.84416  0.72184  1.0000
  C   C1148     1.0  0.13993  0.76813  0.60036  1.0000
  S   S470      1.0  0.13802  0.78690  0.67042  1.0000
  C   C1149     1.0  0.33345  0.99116  0.56431  1.0000
  C   C1150     1.0  0.21161  0.98530  0.58747  1.0000
  H   H1808     1.0  0.23069  0.93910  0.68154  1.0000
  H   H1809     1.0  0.16535  0.77804  0.72021  1.0000
  C   C1151     1.0  0.20472  0.78490  0.67272  1.0000
  H   H1810     1.0  0.06603  0.81836  0.68618  1.0000
  H   H1811     1.0  0.24892  0.91814  0.63871  1.0000
  H   H1812     1.0  0.26600  0.88560  0.61791  1.0000
  H   H1813     1.0  0.26122  0.92997  0.62457  1.0000
  S   S471      1.0  0.45231  0.95960  0.50595  1.0000
  H   H1814     1.0  0.26416  0.79140  0.64881  1.0000
  H   H1815     1.0  0.27790  0.90097  0.61932  1.0000
  C   C1152     1.0  0.36256  0.94370  0.55484  1.0000
  C   C1153     1.0  0.34537  0.94213  0.56211  1.0000
  C   C1154     1.0  0.34029  0.94450  0.57469  1.0000
  C   C1155     1.0  0.35259  0.94798  0.58014  1.0000
  C   C1156     1.0  0.36993  0.94902  0.57299  1.0000
  C   C1157     1.0  0.37483  0.94715  0.56032  1.0000
  H   H1816     1.0  0.33586  0.93939  0.55792  1.0000
  H   H1817     1.0  0.32687  0.94370  0.58013  1.0000
  H   H1818     1.0  0.37954  0.95155  0.57720  1.0000
  H   H1819     1.0  0.38824  0.94795  0.55490  1.0000
  C   C1158     1.0  0.23280  0.90357  0.62691  1.0000
  C   C1159     1.0  0.25032  0.91882  0.60797  1.0000
  H   H1820     1.0  0.22058  0.91442  0.62621  1.0000
  H   H1821     1.0  0.23169  0.89726  0.63718  1.0000
  H   H1822     1.0  0.23230  0.89356  0.62187  1.0000
  H   H1823     1.0  0.26205  0.92531  0.60379  1.0000
  H   H1824     1.0  0.23805  0.92920  0.60646  1.0000
  H   H1825     1.0  0.25155  0.90888  0.60233  1.0000
  H   H1826     1.0  0.26479  0.88947  0.63325  1.0000
  N   N107      1.0  0.12753  0.88321  0.66925  1.0000
  C   C1160     1.0  0.14499  0.87156  0.66505  1.0000
  C   C1161     1.0  0.11475  0.88329  0.66174  1.0000
  C   C1162     1.0  0.13006  0.90148  0.66737  1.0000
  C   C1163     1.0  0.12035  0.87646  0.68283  1.0000
  H   H1827     1.0  0.15497  0.87119  0.67053  1.0000
  H   H1828     1.0  0.15075  0.87630  0.65482  1.0000
  H   H1829     1.0  0.14357  0.85766  0.66634  1.0000
  H   H1830     1.0  0.10137  0.89192  0.66466  1.0000
  H   H1831     1.0  0.11972  0.88827  0.65141  1.0000
  H   H1832     1.0  0.11249  0.86973  0.66300  1.0000
  H   H1833     1.0  0.13549  0.90699  0.65721  1.0000
  H   H1834     1.0  0.13961  0.90198  0.67288  1.0000
  H   H1835     1.0  0.11716  0.91072  0.67037  1.0000
  H   H1836     1.0  0.12937  0.87667  0.68885  1.0000
  H   H1837     1.0  0.11886  0.86250  0.68459  1.0000
  H   H1838     1.0  0.10685  0.88455  0.68619  1.0000
  H   H1839     1.0  0.23704  0.93494  0.62804  1.0000
  H   H1840     1.0  0.06023  0.83310  0.67204  1.0000
  H   H1841     1.0  0.38418  0.80457  0.73227  1.0000
  Fe  Fe239     1.0  0.12800  0.76149  0.67834  1.0000
  H   H1842     1.0  0.44360  0.96633  0.53134  1.0000
  C   C1164     1.0  0.13829  0.75754  0.62293  1.0000
  H   H1843     1.0  0.06718  0.93286  0.62571  1.0000
  H   H1844     1.0  0.14401  0.75931  0.72294  1.0000
  H   H1845     1.0  0.00399  0.82149  0.61914  1.0000
  C   C1165     1.0  0.08860  0.75225  0.65563  1.0000
  H   H1846     1.0  0.25362  0.76005  0.66164  1.0000
  H   H1847     1.0  0.22906  0.75661  0.65333  1.0000
  H   H1848     1.0  0.10414  0.77112  0.60720  1.0000
  H   H1849     1.0  0.07071  0.78543  0.68852  1.0000
  H   H1850     1.0  0.19112  0.79198  0.67571  1.0000
  C   C1166     1.0  0.21512  0.97028  0.60877  1.0000
  H   H1851     1.0  0.00858  0.77012  0.61239  1.0000
  C   C1167     1.0  0.49385  0.96734  0.51684  1.0000
  S   S472      1.0  0.49818  0.97704  0.53747  1.0000
  S   S473      1.0  0.12315  0.76327  0.69873  1.0000
  N   N108      1.0  0.05567  0.93935  0.60926  1.0000
  C   C1168     1.0  0.05342  0.95419  0.59821  1.0000
  H   H1852     1.0  0.33394  0.98135  0.57344  1.0000
  C   C1169     1.0  0.06621  0.92307  0.60477  1.0000
  C   C1170     1.0  0.03783  0.93636  0.61676  1.0000
  H   H1853     1.0  0.04627  0.95124  0.59197  1.0000
  C   C1171     1.0  0.34497  0.83144  0.72556  1.0000
  H   H1854     1.0  0.34985  0.79579  0.73046  1.0000
  S   S474      1.0  0.29847  0.98026  0.59437  1.0000
  S   S475      1.0  0.37079  0.98664  0.51726  1.0000
  H   H1855     1.0  0.37597  0.80889  0.71803  1.0000
  N   N109      1.0  0.12849  0.76902  0.61311  1.0000
  H   H1856     1.0  0.06837  0.91180  0.61289  1.0000
  C   C1172     1.0  0.23357  0.96491  0.60424  1.0000
  H   H1857     1.0  0.03034  0.93264  0.61111  1.0000
  H   H1858     1.0  0.36638  0.96308  0.49099  1.0000
  H   H1859     1.0  0.03900  0.92525  0.62518  1.0000
  C   C1173     1.0  0.23218  0.96556  0.65204  1.0000
  H   H1860     1.0  0.01306  0.79443  0.63483  1.0000
  C   C1174     1.0  0.23169  0.97377  0.67135  1.0000
  S   S476      1.0  0.18158  0.98994  0.60644  1.0000
  C   C1175     1.0  0.24923  0.76712  0.73050  1.0000
  H   H1861     1.0  0.05753  0.82022  0.65447  1.0000
  H   H1862     1.0  0.13569  0.79308  0.61326  1.0000
  C   C1176     1.0  0.26136  0.80618  0.64604  1.0000
  H   H1863     1.0  0.05945  0.79691  0.65705  1.0000
  H   H1864     1.0  0.07588  0.74630  0.64300  1.0000
  H   H1865     1.0  0.10321  0.76304  0.62392  1.0000
  N   N110      1.0  0.24937  0.91059  0.62158  1.0000
  H   H1866     1.0  0.28606  0.83813  0.63626  1.0000
  C   C1177     1.0  0.26521  0.89597  0.62306  1.0000
  H   H1867     1.0  0.25399  0.81030  0.63820  1.0000
  C   C1178     1.0  0.24916  0.92403  0.62847  1.0000
  C   C1179     1.0  0.23508  0.94294  0.67105  1.0000
  C   C1180     1.0  0.23641  0.77829  0.67318  1.0000
  S   S477      1.0  0.19061  0.97697  0.64037  1.0000
  H   H1868     1.0  0.26473  0.83838  0.64693  1.0000
  C   C1181     1.0  0.01756  0.85946  0.63305  1.0000
  H   H1869     1.0  0.40857  0.92164  0.49300  1.0000
  C   C1182     1.0  0.27374  0.83259  0.63885  1.0000
  H   H1870     1.0  0.26693  0.83751  0.63070  1.0000
  H   H1871     1.0  0.30282  0.81073  0.62833  1.0000
  H   H1872     1.0  0.25207  0.81113  0.65438  1.0000
  H   H1873     1.0  0.12671  0.77840  0.71936  1.0000
  C   C1183     1.0  0.06529  0.94375  0.61726  1.0000
  C   C1184     1.0  0.22612  0.76510  0.66003  1.0000
  S   S478      1.0  0.19136  0.77044  0.65829  1.0000
  H   H1874     1.0  0.07978  0.92476  0.59906  1.0000
  C   C1185     1.0  0.24595  0.75694  0.71298  1.0000
  Fe  Fe240     1.0  0.27968  0.96167  0.59994  1.0000
  C   C1186     1.0  0.28723  0.80716  0.65308  1.0000
  N   N111      1.0  0.22639  0.96142  0.66603  1.0000
  H   H1875     1.0  0.20947  0.96627  0.61869  1.0000
  H   H1876     1.0  0.15101  0.76156  0.62213  1.0000
  H   H1877     1.0  0.03081  0.78650  0.62257  1.0000
  N   N112      1.0  0.27809  0.81295  0.64232  1.0000
  C   C1187     1.0  0.29007  0.80584  0.63136  1.0000
  H   H1878     1.0  0.24651  0.97267  0.66870  1.0000
  Fe  Fe241     1.0  0.06118  0.76254  0.60497  1.0000
  N   N113      1.0  0.25820  0.75566  0.72123  1.0000
  H   H1879     1.0  0.12282  0.76232  0.73391  1.0000
  H   H1880     1.0  0.14869  0.79744  0.71612  1.0000
  H   H1881     1.0  0.28359  0.80991  0.62305  1.0000
  H   H1882     1.0  0.48942  0.96107  0.50049  1.0000
  H   H1883     1.0  0.09281  0.80017  0.67336  1.0000
  H   H1884     1.0  0.04831  0.78914  0.68602  1.0000
  H   H1885     1.0  0.20179  0.96057  0.68014  1.0000
  H   H1886     1.0  0.06704  0.77708  0.67638  1.0000
  H   H1887     1.0  0.04040  0.81003  0.66587  1.0000
  C   C1188     1.0  0.28187  0.82713  0.72976  1.0000
  H   H1888     1.0  0.29369  0.79105  0.63371  1.0000
  C   C1189     1.0  0.27463  0.76160  0.71332  1.0000
  H   H1889     1.0  0.22522  0.98783  0.66779  1.0000
  S   S479      1.0  0.04589  0.74864  0.59793  1.0000
  H   H1890     1.0  0.22568  0.97929  0.64788  1.0000
  C   C1190     1.0  0.01085  0.87743  0.62834  1.0000
  C   C1191     1.0  0.08448  0.80414  0.66609  1.0000
  C   C1192     1.0  0.15400  0.78801  0.72424  1.0000
  H   H1891     1.0  0.27862  0.81254  0.66139  1.0000
  S   S480      1.0  0.15543  0.74393  0.67846  1.0000
  H   H1892     1.0  0.24700  0.96431  0.64902  1.0000
  S   S481      1.0  0.05793  0.79235  0.60000  1.0000
  C   C1193     1.0  0.45758  0.96656  0.52726  1.0000
  S   S482      1.0  0.08728  0.74341  0.60041  1.0000
  C   C1194     1.0  0.05856  0.82021  0.67864  1.0000
  H   H1893     1.0  0.08707  0.81705  0.65996  1.0000
  S   S483      1.0  0.14754  0.98894  0.63995  1.0000
  H   H1894     1.0  0.27137  0.77553  0.70791  1.0000
  S   S484      1.0  0.16272  0.77287  0.69189  1.0000
  H   H1895     1.0  0.11510  0.79646  0.60816  1.0000
  C   C1195     1.0  0.20665  0.96344  0.66966  1.0000
  H   H1896     1.0  0.08955  0.79423  0.65992  1.0000
  C   C1196     1.0  0.20842  0.77380  0.66413  1.0000
  H   H1897     1.0  0.24202  0.95714  0.61069  1.0000
  N   N114      1.0  0.06519  0.80530  0.67195  1.0000
  C   C1197     1.0  0.06264  0.78854  0.68114  1.0000
  H   H1898     1.0  0.04404  0.82157  0.68318  1.0000
  Fe  Fe242     1.0  0.13469  0.78760  0.69083  1.0000
  C   C1198     1.0  0.37521  0.81447  0.72629  1.0000
  H   H1899     1.0  0.05789  0.95606  0.62075  1.0000
  H   H1900     1.0  0.28190  0.75316  0.70629  1.0000
  H   H1901     1.0  0.23360  0.75219  0.71860  1.0000
  H   H1902     1.0  0.34468  0.82636  0.71731  1.0000
  H   H1903     1.0  0.25247  0.74891  0.70561  1.0000
  H   H1904     1.0  0.01521  0.77280  0.63183  1.0000
  H   H1905     1.0  0.22767  0.97093  0.68189  1.0000
  Fe  Fe243     1.0  0.39055  0.98283  0.49912  1.0000
  Fe  Fe244     1.0  0.16495  0.98522  0.65375  1.0000
  H   H1906     1.0  0.13280  0.77667  0.59279  1.0000
  N   N115      1.0  0.00475  0.79485  0.61799  1.0000
  H   H1907     1.0  0.15255  0.77266  0.59904  1.0000
  H   H1908     1.0  0.13005  0.75829  0.63264  1.0000
  H   H1909     1.0  0.19960  0.97719  0.66592  1.0000
  H   H1910     1.0  0.24500  0.78119  0.72567  1.0000
  H   H1911     1.0  0.24998  0.94106  0.66872  1.0000
  H   H1912     1.0  0.46176  0.97349  0.54340  1.0000
  H   H1913     1.0  0.11586  0.78853  0.62461  1.0000
  C   C1199     1.0  0.20416  0.98092  0.60047  1.0000
  H   H1914     1.0  0.28404  0.76128  0.71923  1.0000
  H   H1915     1.0  0.24170  0.77091  0.70791  1.0000
  H   H1916     1.0  0.07709  0.76218  0.65872  1.0000
  N   N116      1.0  0.13991  0.77945  0.73347  1.0000
  C   C1200     1.0  0.00677  0.84702  0.63584  1.0000
  C   C1201     1.0  0.00717  0.81318  0.61197  1.0000
  H   H1917     1.0  0.23574  0.98237  0.57280  1.0000
  H   H1918     1.0  0.49794  0.90656  0.52101  1.0000
  H   H1919     1.0  0.01197  0.83322  0.63975  1.0000
  N   N117      1.0  0.35658  0.81833  0.73367  1.0000
  H   H1920     1.0  0.33083  0.83458  0.73099  1.0000
  H   H1921     1.0  0.33851  0.98360  0.55656  1.0000
  S   S485      1.0  0.05422  0.74882  0.62533  1.0000
  H   H1922     1.0  0.38969  0.93519  0.48661  1.0000
  Fe  Fe245     1.0  0.42132  0.92765  0.92215  1.0000
  S   S486      1.0  0.41730  0.90108  0.93457  1.0000
  Fe  Fe246     1.0  0.45902  0.91249  0.90920  1.0000
  S   S487      1.0  0.45882  0.88522  0.92123  1.0000
  S   S488      1.0  0.48334  0.91938  0.89480  1.0000
  Fe  Fe247     1.0  0.43148  0.88986  0.91702  1.0000
  S   S489      1.0  0.42920  0.86485  0.91204  1.0000
  Fe  Fe248     1.0  0.44485  0.89846  0.93759  1.0000
  S   S490      1.0  0.43243  0.91686  0.90423  1.0000
  S   S491      1.0  0.44826  0.92505  0.92594  1.0000
  H   H1923     1.0  0.36168  0.85817  0.82601  1.0000
  C   C1202     1.0  0.41172  0.75216  0.76499  1.0000
  C   C1203     1.0  0.45196  0.90690  0.96430  1.0000
  C   C1204     1.0  0.48655  0.79155  0.86504  1.0000
  Fe  Fe249     1.0  0.32115  0.77073  0.78947  1.0000
  S   S492      1.0  0.33192  0.78070  0.76884  1.0000
  H   H1924     1.0  0.31700  0.74971  0.84972  1.0000
  Fe  Fe250     1.0  0.32977  0.80020  0.79755  1.0000
  S   S493      1.0  0.34099  0.81311  0.77763  1.0000
  S   S494      1.0  0.33054  0.80657  0.81576  1.0000
  Fe  Fe251     1.0  0.31759  0.80763  0.77267  1.0000
  C   C1205     1.0  0.38604  0.77488  0.80459  1.0000
  Fe  Fe252     1.0  0.35435  0.78545  0.77511  1.0000
  H   H1925     1.0  0.36900  0.75003  0.78094  1.0000
  S   S495      1.0  0.30481  0.79733  0.79301  1.0000
  S   S496      1.0  0.34511  0.77291  0.79542  1.0000
  C   C1206     1.0  0.46319  0.88865  0.88429  1.0000
  H   H1926     1.0  0.33790  0.75491  0.84018  1.0000
  H   H1927     1.0  0.43430  0.83473  0.90129  1.0000
  Fe  Fe253     1.0  0.41658  0.83192  0.85527  1.0000
  S   S497      1.0  0.43030  0.83836  0.83471  1.0000
  S   S498      1.0  0.40619  0.85618  0.86414  1.0000
  Fe  Fe254     1.0  0.41996  0.79329  0.85421  1.0000
  S   S499      1.0  0.43346  0.79729  0.83367  1.0000
  S   S500      1.0  0.41909  0.76463  0.86253  1.0000
  Fe  Fe255     1.0  0.44930  0.81232  0.83906  1.0000
  S   S501      1.0  0.47936  0.80656  0.83321  1.0000
  Fe  Fe256     1.0  0.41285  0.82266  0.83162  1.0000
  S   S502      1.0  0.39950  0.83293  0.81489  1.0000
  S   S503      1.0  0.43708  0.80686  0.85986  1.0000
  S   S504      1.0  0.39784  0.81765  0.85186  1.0000
  H   H1928     1.0  0.22013  0.78428  0.76834  1.0000
  C   C1207     1.0  0.48270  0.84814  0.84576  1.0000
  C   C1208     1.0  0.47604  0.83613  0.84218  1.0000
  C   C1209     1.0  0.48783  0.82183  0.83736  1.0000
  H   H1929     1.0  0.40618  0.91343  0.98374  1.0000
  H   H1930     1.0  0.49131  0.85075  0.87699  1.0000
  H   H1931     1.0  0.47350  0.85948  0.84909  1.0000
  H   H1932     1.0  0.46177  0.83813  0.84301  1.0000
  C   C1210     1.0  0.37910  0.94142  0.97792  1.0000
  H   H1933     1.0  0.41938  0.76115  0.75802  1.0000
  C   C1211     1.0  0.35005  0.81340  0.81539  1.0000
  C   C1212     1.0  0.35688  0.80905  0.82641  1.0000
  C   C1213     1.0  0.37239  0.81450  0.82628  1.0000
  C   C1214     1.0  0.38077  0.82484  0.81522  1.0000
  C   C1215     1.0  0.37396  0.82915  0.80420  1.0000
  C   C1216     1.0  0.35874  0.82330  0.80424  1.0000
  H   H1934     1.0  0.35022  0.80135  0.83505  1.0000
  H   H1935     1.0  0.37767  0.81091  0.83478  1.0000
  H   H1936     1.0  0.38040  0.83713  0.79562  1.0000
  H   H1937     1.0  0.35346  0.82686  0.79574  1.0000
  H   H1938     1.0  0.40586  0.79448  0.80869  1.0000
  H   H1939     1.0  0.47453  0.79867  0.86104  1.0000
  H   H1940     1.0  0.48872  0.88083  0.89783  1.0000
  H   H1941     1.0  0.34227  0.88892  0.83999  1.0000
  H   H1942     1.0  0.25182  0.77357  0.76901  1.0000
  H   H1943     1.0  0.45920  0.75854  0.85300  1.0000
  C   C1217     1.0  0.44743  0.91876  0.98312  1.0000
  H   H1944     1.0  0.46825  0.85386  0.88565  1.0000
  C   C1218     1.0  0.35993  0.85616  0.83648  1.0000
  H   H1945     1.0  0.31066  0.76203  0.81639  1.0000
  C   C1219     1.0  0.38821  0.74455  0.84211  1.0000
  C   C1220     1.0  0.40721  0.75696  0.85464  1.0000
  H   H1946     1.0  0.46723  0.77265  0.83821  1.0000
  H   H1947     1.0  0.45772  0.89309  0.87552  1.0000
  H   H1948     1.0  0.35799  0.89052  0.82496  1.0000
  S   S505      1.0  0.38261  0.77997  0.76390  1.0000
  C   C1221     1.0  0.49393  0.88492  0.87268  1.0000
  H   H1949     1.0  0.46300  0.94742  0.95642  1.0000
  H   H1950     1.0  0.36839  0.93419  0.97901  1.0000
  H   H1951     1.0  0.36470  0.81591  0.75100  1.0000
  H   H1952     1.0  0.42226  0.93952  0.96171  1.0000
  C   C1222     1.0  0.38367  0.76239  0.84308  1.0000
  H   H1953     1.0  0.45799  0.80372  0.88213  1.0000
  C   C1223     1.0  0.43334  0.97449  0.93730  1.0000
  S   S506      1.0  0.49820  0.98002  0.91362  1.0000
  C   C1224     1.0  0.41096  0.96913  0.92845  1.0000
  H   H1954     1.0  0.49431  0.78154  0.85924  1.0000
  S   S507      1.0  0.30425  0.82852  0.75798  1.0000
  H   H1955     1.0  0.46641  0.79113  0.89600  1.0000
  C   C1225     1.0  0.29745  0.80275  0.74904  1.0000
  H   H1956     1.0  0.21140  0.80742  0.76248  1.0000
  N   N118      1.0  0.39576  0.93449  0.96928  1.0000
  H   H1957     1.0  0.28068  0.77294  0.80023  1.0000
  H   H1958     1.0  0.30298  0.79327  0.75662  1.0000
  H   H1959     1.0  0.36190  0.89758  0.83774  1.0000
  C   C1226     1.0  0.48744  0.93805  0.89791  1.0000
  C   C1227     1.0  0.38612  0.86792  0.83356  1.0000
  S   S508      1.0  0.40218  0.95419  0.92394  1.0000
  H   H1960     1.0  0.42818  0.74918  0.80269  1.0000
  C   C1228     1.0  0.47648  0.96318  0.90819  1.0000
  C   C1229     1.0  0.47316  0.95008  0.90353  1.0000
  C   C1230     1.0  0.39337  0.76866  0.84912  1.0000
  H   H1961     1.0  0.46182  0.92366  0.94661  1.0000
  N   N119      1.0  0.48155  0.78316  0.87860  1.0000
  H   H1962     1.0  0.45950  0.94910  0.90448  1.0000
  C   C1231     1.0  0.42407  0.86307  0.89804  1.0000
  C   C1232     1.0  0.41572  0.87781  0.89005  1.0000
  C   C1233     1.0  0.41063  0.87554  0.87955  1.0000
  C   C1234     1.0  0.41419  0.85863  0.87678  1.0000
  C   C1235     1.0  0.42321  0.84400  0.88447  1.0000
  C   C1236     1.0  0.42795  0.84621  0.89511  1.0000
  H   H1963     1.0  0.41257  0.89084  0.89223  1.0000
  H   H1964     1.0  0.40364  0.88693  0.87368  1.0000
  H   H1965     1.0  0.42587  0.83091  0.88250  1.0000
  C   C1237     1.0  0.12499  0.79327  0.73835  1.0000
  N   N120      1.0  0.48064  0.87595  0.88248  1.0000
  H   H1966     1.0  0.24632  0.81561  0.74488  1.0000
  H   H1967     1.0  0.41451  0.90964  0.96791  1.0000
  C   C1238     1.0  0.40951  0.94456  0.96805  1.0000
  H   H1968     1.0  0.41267  0.94341  0.97738  1.0000
  H   H1969     1.0  0.36717  0.84235  0.83981  1.0000
  H   H1970     1.0  0.33573  0.80424  0.74393  1.0000
  C   C1239     1.0  0.29091  0.79682  0.74086  1.0000
  H   H1971     1.0  0.24924  0.77650  0.79885  1.0000
  C   C1240     1.0  0.49888  0.92071  0.93010  1.0000
  C   C1241     1.0  0.25908  0.76485  0.79659  1.0000
  H   H1972     1.0  0.48976  0.88970  0.86339  1.0000
  H   H1973     1.0  0.13728  0.76050  0.75129  1.0000
  H   H1974     1.0  0.47386  0.86498  0.86934  1.0000
  C   C1242     1.0  0.22358  0.79655  0.76152  1.0000
  C   C1243     1.0  0.41326  0.75227  0.80457  1.0000
  C   C1244     1.0  0.50111  0.84549  0.84506  1.0000
  H   H1975     1.0  0.37381  0.95578  0.97427  1.0000
  C   C1245     1.0  0.45850  0.93563  0.96234  1.0000
  C   C1246     1.0  0.40240  0.91546  0.97449  1.0000
  C   C1247     1.0  0.45779  0.92217  0.95675  1.0000
  C   C1248     1.0  0.47049  0.79693  0.88571  1.0000
  C   C1249     1.0  0.35681  0.88740  0.83543  1.0000
  H   H1976     1.0  0.37269  0.85211  0.85733  1.0000
  C   C1250     1.0  0.45303  0.93411  0.97551  1.0000
  H   H1977     1.0  0.39216  0.87717  0.83614  1.0000
  H   H1978     1.0  0.37042  0.87516  0.85656  1.0000
  H   H1979     1.0  0.25517  0.82081  0.75627  1.0000
  C   C1251     1.0  0.31463  0.76220  0.82515  1.0000
  H   H1980     1.0  0.38982  0.78246  0.84981  1.0000
  H   H1981     1.0  0.38819  0.87069  0.82303  1.0000
  H   H1982     1.0  0.49549  0.92474  0.93938  1.0000
  C   C1252     1.0  0.41268  0.77953  0.78862  1.0000
  H   H1983     1.0  0.42855  0.94884  0.93900  1.0000
  C   C1253     1.0  0.41127  0.77987  0.81035  1.0000
  N   N121      1.0  0.23901  0.80110  0.76403  1.0000
  C   C1254     1.0  0.25477  0.78624  0.76270  1.0000
  C   C1255     1.0  0.24324  0.81734  0.75484  1.0000
  C   C1256     1.0  0.23448  0.80424  0.77705  1.0000
  H   H1984     1.0  0.40830  0.74599  0.81464  1.0000
  H   H1985     1.0  0.26641  0.78871  0.76523  1.0000
  H   H1986     1.0  0.23182  0.82897  0.75572  1.0000
  H   H1987     1.0  0.35813  0.79158  0.74466  1.0000
  H   H1988     1.0  0.12961  0.80111  0.74320  1.0000
  H   H1989     1.0  0.49155  0.89430  0.95015  1.0000
  H   H1990     1.0  0.49706  0.95853  0.97889  1.0000
  H   H1991     1.0  0.22303  0.81576  0.77827  1.0000
  H   H1992     1.0  0.24610  0.80692  0.77948  1.0000
  H   H1993     1.0  0.23049  0.79250  0.78418  1.0000
  H   H1994     1.0  0.43639  0.98849  0.90602  1.0000
  H   H1995     1.0  0.48170  0.89373  0.93768  1.0000
  H   H1996     1.0  0.45876  0.77561  0.87618  1.0000
  C   C1257     1.0  0.47843  0.86066  0.87847  1.0000
  C   C1258     1.0  0.49801  0.77453  0.88359  1.0000
  H   H1997     1.0  0.37994  0.78931  0.80243  1.0000
  H   H1998     1.0  0.35077  0.86647  0.85882  1.0000
  H   H1999     1.0  0.40625  0.77429  0.82055  1.0000
  H   H2000     1.0  0.47795  0.80735  0.88478  1.0000
  C   C1259     1.0  0.49468  0.89106  0.94061  1.0000
  H   H2001     1.0  0.25903  0.78410  0.75283  1.0000
  H   H2002     1.0  0.47928  0.75904  0.87473  1.0000
  H   H2003     1.0  0.46077  0.75318  0.82668  1.0000
  C   C1260     1.0  0.47128  0.76048  0.84532  1.0000
  H   H2004     1.0  0.44282  0.89320  0.98346  1.0000
  S   S509      1.0  0.45017  0.89016  0.95744  1.0000
  C   C1261     1.0  0.27690  0.76284  0.79738  1.0000
  H   H2005     1.0  0.22657  0.79406  0.75178  1.0000
  H   H2006     1.0  0.48635  0.92429  0.92644  1.0000
  H   H2007     1.0  0.42761  0.77708  0.78626  1.0000
  N   N122      1.0  0.40583  0.77164  0.80204  1.0000
  C   C1262     1.0  0.44714  0.90508  0.97753  1.0000
  C   C1263     1.0  0.39321  0.75786  0.76922  1.0000
  H   H2008     1.0  0.38161  0.76838  0.79870  1.0000
  H   H2009     1.0  0.40515  0.95893  0.96391  1.0000
  C   C1264     1.0  0.29633  0.82088  0.74762  1.0000
  C   C1265     1.0  0.39208  0.93652  0.95665  1.0000
  H   H2010     1.0  0.46544  0.97175  0.91325  1.0000
  H   H2011     1.0  0.45304  0.88263  0.89202  1.0000
  H   H2012     1.0  0.49489  0.80143  0.86354  1.0000
  H   H2013     1.0  0.49799  0.89887  0.91561  1.0000
  H   H2014     1.0  0.49573  0.89660  0.87544  1.0000
  H   H2015     1.0  0.50023  0.86013  0.89339  1.0000
  H   H2016     1.0  0.37275  0.77142  0.83907  1.0000
  C   C1266     1.0  0.47120  0.76963  0.87997  1.0000
  C   C1267     1.0  0.25399  0.75179  0.79297  1.0000
  S   S510      1.0  0.21051  0.74332  0.74304  1.0000
  H   H2017     1.0  0.40739  0.79417  0.78643  1.0000
  H   H2018     1.0  0.36152  0.83803  0.74140  1.0000
  C   C1268     1.0  0.49465  0.74829  0.82917  1.0000
  N   N123      1.0  0.36695  0.86928  0.83980  1.0000
  C   C1269     1.0  0.48697  0.86960  0.89451  1.0000
  H   H2019     1.0  0.38714  0.95071  0.95233  1.0000
  H   H2020     1.0  0.44456  0.96929  0.94198  1.0000
  H   H2021     1.0  0.42613  0.77765  0.80870  1.0000
  C   C1270     1.0  0.35631  0.82559  0.74455  1.0000
  H   H2022     1.0  0.40443  0.93145  0.94991  1.0000
  C   C1271     1.0  0.42465  0.96278  0.93523  1.0000
  H   H2023     1.0  0.49480  0.76852  0.89391  1.0000
  H   H2024     1.0  0.34540  0.85692  0.84083  1.0000
  C   C1272     1.0  0.36504  0.86563  0.85372  1.0000
  H   H2025     1.0  0.40929  0.74560  0.79852  1.0000
  N   N124      1.0  0.47890  0.74486  0.83941  1.0000
  C   C1273     1.0  0.38338  0.74610  0.77812  1.0000
  H   H2026     1.0  0.46710  0.76307  0.89010  1.0000
  H   H2027     1.0  0.39393  0.85431  0.83647  1.0000
  C   C1274     1.0  0.49410  0.96465  0.90682  1.0000
  S   S511      1.0  0.23193  0.75529  0.79103  1.0000
  H   H2028     1.0  0.46445  0.90071  0.88679  1.0000
  S   S512      1.0  0.45278  0.95191  0.98202  1.0000
  H   H2029     1.0  0.29171  0.78274  0.74213  1.0000
  S   S513      1.0  0.31191  0.74484  0.79602  1.0000
  C   C1275     1.0  0.28962  0.74755  0.79487  1.0000
  H   H2030     1.0  0.38185  0.92905  0.95713  1.0000
  H   H2031     1.0  0.48134  0.76323  0.84941  1.0000
  H   H2032     1.0  0.40855  0.77383  0.78211  1.0000
  H   H2033     1.0  0.38030  0.76957  0.81472  1.0000
  H   H2034     1.0  0.34241  0.82881  0.75026  1.0000
  H   H2035     1.0  0.49098  0.76023  0.82176  1.0000
  H   H2036     1.0  0.45086  0.98124  0.89224  1.0000
  H   H2037     1.0  0.50037  0.87653  0.94171  1.0000
  H   H2038     1.0  0.32348  0.77190  0.82250  1.0000
  H   H2039     1.0  0.47730  0.86270  0.90214  1.0000
  H   H2040     1.0  0.30228  0.76746  0.83178  1.0000
  C   C1276     1.0  0.14756  0.76712  0.74409  1.0000
  N   N125      1.0  0.32384  0.74435  0.83095  1.0000
  H   H2041     1.0  0.34965  0.74708  0.81903  1.0000
  C   C1277     1.0  0.32895  0.74532  0.84246  1.0000
  C   C1278     1.0  0.40455  0.98757  0.92508  1.0000
  H   H2042     1.0  0.15313  0.77411  0.74899  1.0000
  H   H2043     1.0  0.15867  0.75640  0.74069  1.0000
  H   H2044     1.0  0.11402  0.78733  0.74525  1.0000
  C   C1279     1.0  0.28870  0.83306  0.73787  1.0000
  C   C1280     1.0  0.34979  0.80174  0.73838  1.0000
  H   H2045     1.0  0.39215  0.90753  0.97597  1.0000
  H   H2046     1.0  0.23704  0.76279  0.73686  1.0000
  H   H2047     1.0  0.28777  0.84714  0.73674  1.0000
  H   H2048     1.0  0.41670  0.98919  0.97962  1.0000
  H   H2049     1.0  0.42777  0.99166  0.89215  1.0000
  H   H2050     1.0  0.25833  0.76686  0.73660  1.0000
  Fe  Fe257     1.0  0.55693  0.13466  0.03207  1.0000
  S   S514      1.0  0.53346  0.12156  0.04003  1.0000
  Fe  Fe258     1.0  0.55591  0.14191  0.05772  1.0000
  S   S515      1.0  0.53239  0.12913  0.06760  1.0000
  S   S516      1.0  0.57009  0.15097  0.06916  1.0000
  Fe  Fe259     1.0  0.54645  0.10802  0.05642  1.0000
  S   S517      1.0  0.54591  0.07913  0.06418  1.0000
  Fe  Fe260     1.0  0.52160  0.14385  0.05025  1.0000
  H   H2051     1.0  0.53005  0.07735  0.03078  1.0000
  S   S518      1.0  0.57106  0.11936  0.04787  1.0000
  S   S519      1.0  0.54392  0.15835  0.04109  1.0000
  H   H2052     1.0  0.52883  0.04577  0.03716  1.0000
  H   H2053     1.0  0.60870  0.17949  0.03762  1.0000
  C   C1281     1.0  0.63792  0.20228  0.18267  1.0000
  S   S520      1.0  0.54679  0.22675  0.08374  1.0000
  S   S521      1.0  0.54424  0.21400  0.12166  1.0000
  H   H2054     1.0  0.63396  0.18937  0.18748  1.0000
  H   H2055     1.0  0.68534  0.20082  0.21724  1.0000
  C   C1282     1.0  0.65859  0.21758  0.16607  1.0000
  C   C1283     1.0  0.58985  0.15956  0.03304  1.0000
  S   S522      1.0  0.57966  0.21777  0.13982  1.0000
  C   C1284     1.0  0.70117  0.21773  0.21924  1.0000
  H   H2056     1.0  0.63541  0.14993  0.02486  1.0000
  Fe  Fe261     1.0  0.56356  0.01205  0.02291  1.0000
  C   C1285     1.0  0.61068  0.16537  0.04285  1.0000
  C   C1286     1.0  0.56912  0.06494  0.03040  1.0000
  H   H2057     1.0  0.57849  0.03491  0.99551  1.0000
  H   H2058     1.0  0.62420  0.13027  0.04517  1.0000
  C   C1287     1.0  0.51581  0.08056  0.02985  1.0000
  H   H2059     1.0  0.60068  0.13403  0.05226  1.0000
  H   H2060     1.0  0.67028  0.21657  0.15792  1.0000
  H   H2061     1.0  0.51082  0.20353  0.12582  1.0000
  S   S523      1.0  0.66364  0.22250  0.19917  1.0000
  H   H2062     1.0  0.51439  0.04863  0.02655  1.0000
  H   H2063     1.0  0.66241  0.22274  0.17303  1.0000
  H   H2064     1.0  0.55977  0.02513  0.04751  1.0000
  H   H2065     1.0  0.64484  0.18062  0.16652  1.0000
  Fe  Fe262     1.0  0.52794  0.00110  0.02908  1.0000
  N   N126      1.0  0.50579  0.06739  0.03874  1.0000
  H   H2066     1.0  0.50985  0.21830  0.09671  1.0000
  C   C1288     1.0  0.51457  0.04946  0.03626  1.0000
  H   H2067     1.0  0.64092  0.20752  0.18996  1.0000
  N   N127      1.0  0.65355  0.20023  0.17196  1.0000
  C   C1289     1.0  0.67979  0.22695  0.20536  1.0000
  C   C1290     1.0  0.68842  0.21389  0.21426  1.0000
  C   C1291     1.0  0.54300  0.11278  0.99945  1.0000
  H   H2068     1.0  0.67260  0.19217  0.18402  1.0000
  C   C1292     1.0  0.66886  0.18746  0.17675  1.0000
  S   S524      1.0  0.72129  0.24019  0.22085  1.0000
  H   H2069     1.0  0.60085  0.16490  0.05214  1.0000
  H   H2070     1.0  0.58722  0.15075  0.02786  1.0000
  H   H2071     1.0  0.62603  0.21166  0.17944  1.0000
  C   C1293     1.0  0.56795  0.04709  0.03305  1.0000
  C   C1294     1.0  0.70532  0.23460  0.21523  1.0000
  C   C1295     1.0  0.62141  0.15449  0.02336  1.0000
  Fe  Fe263     1.0  0.52064  0.23544  0.12728  1.0000
  C   C1296     1.0  0.61057  0.13516  0.04301  1.0000
  H   H2072     1.0  0.57957  0.15950  0.04205  1.0000
  S   S525      1.0  0.54933  0.99507  0.04011  1.0000
  H   H2073     1.0  0.59540  0.21657  0.16032  1.0000
  H   H2074     1.0  0.50598  0.13472  0.01129  1.0000
  H   H2075     1.0  0.51578  0.08115  0.01981  1.0000
  H   H2076     1.0  0.58760  0.17332  0.02722  1.0000
  H   H2077     1.0  0.57498  0.07127  0.02090  1.0000
  H   H2078     1.0  0.66562  0.17417  0.18127  1.0000
  C   C1297     1.0  0.56676  0.13563  0.98841  1.0000
  H   H2079     1.0  0.62435  0.16136  0.04493  1.0000
  C   C1298     1.0  0.50559  0.06768  0.05191  1.0000
  C   C1299     1.0  0.54952  0.06151  0.99329  1.0000
  H   H2080     1.0  0.66907  0.23786  0.23178  1.0000
  C   C1300     1.0  0.55507  0.06669  0.05229  1.0000
  C   C1301     1.0  0.55419  0.04873  0.05500  1.0000
  C   C1302     1.0  0.56257  0.07477  0.03997  1.0000
  H   H2081     1.0  0.54851  0.04241  0.06454  1.0000
  H   H2082     1.0  0.56342  0.08857  0.03780  1.0000
  C   C1303     1.0  0.56214  0.17169  0.07379  1.0000
  C   C1304     1.0  0.56751  0.17412  0.08407  1.0000
  C   C1305     1.0  0.56238  0.19075  0.08753  1.0000
  C   C1306     1.0  0.55224  0.20523  0.08049  1.0000
  C   C1307     1.0  0.54682  0.20279  0.07022  1.0000
  C   C1308     1.0  0.55154  0.18604  0.06698  1.0000
  H   H2083     1.0  0.57575  0.16309  0.08937  1.0000
  H   H2084     1.0  0.56668  0.19248  0.09542  1.0000
  H   H2085     1.0  0.53913  0.21397  0.06466  1.0000
  H   H2086     1.0  0.54746  0.18437  0.05898  1.0000
  Fe  Fe264     1.0  0.54787  0.23229  0.10240  1.0000
  H   H2087     1.0  0.63745  0.20312  0.15853  1.0000
  N   N128      1.0  0.60815  0.15365  0.03556  1.0000
  H   H2088     1.0  0.50760  0.21492  0.08211  1.0000
  C   C1309     1.0  0.64887  0.19364  0.16240  1.0000
  Fe  Fe265     1.0  0.56054  0.22973  0.12640  1.0000
  H   H2089     1.0  0.61958  0.14592  0.01763  1.0000
  S   S526      1.0  0.57138  0.13814  0.01141  1.0000
  S   S527      1.0  0.57575  0.03536  0.02075  1.0000
  H   H2090     1.0  0.53373  0.10401  0.00383  1.0000
  H   H2091     1.0  0.60871  0.12593  0.03782  1.0000
  H   H2092     1.0  0.50740  0.14286  0.08974  1.0000
  S   S528      1.0  0.54086  0.01988  0.01291  1.0000
  C   C1310     1.0  0.61033  0.23749  0.15407  1.0000
  H   H2093     1.0  0.54062  0.05394  0.99182  1.0000
  H   H2094     1.0  0.64737  0.22770  0.16244  1.0000
  H   H2095     1.0  0.66038  0.19187  0.15421  1.0000
  H   H2096     1.0  0.70807  0.20760  0.22592  1.0000
  C   C1311     1.0  0.55093  0.11827  0.00710  1.0000
  H   H2097     1.0  0.50767  0.03911  0.04303  1.0000
  H   H2098     1.0  0.54820  0.11316  0.01717  1.0000
  C   C1312     1.0  0.59307  0.23109  0.14140  1.0000
  C   C1313     1.0  0.56048  0.03898  0.04536  1.0000
  C   C1314     1.0  0.56246  0.13010  0.00169  1.0000
  H   H2099     1.0  0.68098  0.18569  0.16898  1.0000
  H   H2100     1.0  0.62001  0.16828  0.01753  1.0000
  H   H2101     1.0  0.51943  0.06446  0.05358  1.0000
  C   C1315     1.0  0.59929  0.22732  0.15266  1.0000
  H   H2102     1.0  0.50993  0.15238  0.02503  1.0000
  H   H2103     1.0  0.54234  0.07570  0.99229  1.0000
  H   H2104     1.0  0.55135  0.05662  0.00325  1.0000
  H   H2105     1.0  0.50980  0.09418  0.03166  1.0000
  H   H2106     1.0  0.61480  0.23469  0.16282  1.0000
  H   H2107     1.0  0.58076  0.06493  0.99635  1.0000
  Fe  Fe266     1.0  0.55438  0.99633  0.00414  1.0000
  C   C1316     1.0  0.62489  0.13249  0.43907  1.0000
  H   H2108     1.0  0.88775  0.23763  0.26998  1.0000
  Fe  Fe267     1.0  0.56989  0.07091  0.43209  1.0000
  C   C1317     1.0  0.73772  0.10147  0.29022  1.0000
  S   S529      1.0  0.57723  0.04502  0.42601  1.0000
  H   H2109     1.0  0.58771  0.00217  0.45065  1.0000
  H   H2110     1.0  0.75584  0.06431  0.30975  1.0000
  Fe  Fe268     1.0  0.57723  0.10763  0.42615  1.0000
  S   S530      1.0  0.59673  0.12416  0.41326  1.0000
  S   S531      1.0  0.59109  0.08115  0.43574  1.0000
  S   S532      1.0  0.92501  0.22576  0.27202  1.0000
  Fe  Fe269     1.0  0.71393  0.21318  0.26805  1.0000
  S   S533      1.0  0.78021  0.18783  0.25893  1.0000
  H   H2111     1.0  0.97783  0.19569  0.29325  1.0000
  H   H2112     1.0  0.64104  0.09881  0.43738  1.0000
  S   S534      1.0  0.73007  0.19985  0.25200  1.0000
  Fe  Fe270     1.0  0.79082  0.10668  0.30839  1.0000
  S   S535      1.0  0.80019  0.12373  0.31705  1.0000
  S   S536      1.0  0.76783  0.11747  0.29859  1.0000
  Fe  Fe271     1.0  0.81517  0.07262  0.31856  1.0000
  S   S537      1.0  0.82706  0.08649  0.32831  1.0000
  S   S538      1.0  0.82078  0.04272  0.32093  1.0000
  Fe  Fe272     1.0  0.79879  0.10130  0.33402  1.0000
  S   S539      1.0  0.78662  0.10726  0.35332  1.0000
  Fe  Fe273     1.0  0.82777  0.10795  0.31051  1.0000
  S   S540      1.0  0.85183  0.12086  0.30161  1.0000
  S   S541      1.0  0.78684  0.08561  0.32598  1.0000
  S   S542      1.0  0.81841  0.09269  0.30011  1.0000
  Fe  Fe274     1.0  0.87701  0.20480  0.31016  1.0000
  S   S543      1.0  0.90588  0.19271  0.30286  1.0000
  S   S544      1.0  0.85213  0.19375  0.31395  1.0000
  H   H2113     1.0  0.95414  0.23324  0.28956  1.0000
  S   S545      1.0  0.91546  0.22892  0.30617  1.0000
  H   H2114     1.0  0.74195  0.15484  0.33147  1.0000
  Fe  Fe275     1.0  0.90768  0.22014  0.29145  1.0000
  H   H2115     1.0  0.71193  0.08298  0.29997  1.0000
  Fe  Fe276     1.0  0.91150  0.20236  0.31816  1.0000
  S   S546      1.0  0.93260  0.18454  0.32858  1.0000
  S   S547      1.0  0.87832  0.23151  0.29730  1.0000
  S   S548      1.0  0.88241  0.21214  0.32661  1.0000
  H   H2116     1.0  0.72696  0.10536  0.28472  1.0000
  S   S549      1.0  0.66655  0.01660  0.32592  1.0000
  Fe  Fe277     1.0  0.68679  0.11374  0.32682  1.0000
  S   S550      1.0  0.67006  0.13019  0.34100  1.0000
  S   S551      1.0  0.69575  0.12221  0.30561  1.0000
  Fe  Fe278     1.0  0.69422  0.08018  0.34708  1.0000
  S   S552      1.0  0.67878  0.09375  0.36300  1.0000
  S   S553      1.0  0.70686  0.05100  0.35127  1.0000
  Fe  Fe279     1.0  0.65837  0.10603  0.35097  1.0000
  S   S554      1.0  0.62981  0.10337  0.35955  1.0000
  Fe  Fe280     1.0  0.69187  0.11646  0.35179  1.0000
  S   S555      1.0  0.70269  0.13092  0.36165  1.0000
  S   S556      1.0  0.67296  0.09089  0.33566  1.0000
  S   S557      1.0  0.70944  0.10156  0.33701  1.0000
  S   S558      1.0  0.58177  0.07545  0.47136  1.0000
  S   S559      1.0  0.77290  0.01467  0.29671  1.0000
  C   C1318     1.0  0.58569  0.08856  0.48023  1.0000
  Fe  Fe281     1.0  0.54022  0.10107  0.43989  1.0000
  H   H2117     1.0  0.61715  0.12088  0.46466  1.0000
  C   C1319     1.0  0.58347  0.02902  0.47067  1.0000
  C   C1320     1.0  0.72286  0.07925  0.30531  1.0000
  C   C1321     1.0  0.64590  0.22352  0.25120  1.0000
  S   S560      1.0  0.55137  0.07419  0.45069  1.0000
  C   C1322     1.0  0.67893  0.02494  0.33288  1.0000
  C   C1323     1.0  0.68272  0.01658  0.34484  1.0000
  C   C1324     1.0  0.69173  0.02433  0.35043  1.0000
  C   C1325     1.0  0.69684  0.04044  0.34406  1.0000
  C   C1326     1.0  0.69344  0.04848  0.33200  1.0000
  C   C1327     1.0  0.68455  0.04074  0.32640  1.0000
  H   H2118     1.0  0.81491  0.19641  0.26120  1.0000
  H   H2119     1.0  0.75727  0.00013  0.32477  1.0000
  H   H2120     1.0  0.69753  0.06079  0.32698  1.0000
  H   H2121     1.0  0.68166  0.04723  0.31714  1.0000
  C   C1328     1.0  0.94605  0.19680  0.33138  1.0000
  C   C1329     1.0  0.96395  0.18900  0.33223  1.0000
  H   H2122     1.0  0.96883  0.22268  0.27723  1.0000
  C   C1330     1.0  0.96806  0.21672  0.33491  1.0000
  C   C1331     1.0  0.95007  0.22439  0.33431  1.0000
  C   C1332     1.0  0.93919  0.21456  0.33236  1.0000
  H   H2123     1.0  0.64166  0.21295  0.25941  1.0000
  N   N129      1.0  0.98105  0.22188  0.29243  1.0000
  H   H2124     1.0  0.81005  0.99234  0.29017  1.0000
  H   H2125     1.0  0.92534  0.22063  0.33189  1.0000
  C   C1333     1.0  0.80774  0.03481  0.31407  1.0000
  C   C1334     1.0  0.80718  0.01670  0.31735  1.0000
  C   C1335     1.0  0.79665  0.01025  0.31204  1.0000
  C   C1336     1.0  0.78680  0.02188  0.30333  1.0000
  C   C1337     1.0  0.78771  0.03986  0.29986  1.0000
  C   C1338     1.0  0.79797  0.04637  0.30531  1.0000
  H   H2126     1.0  0.81480  0.00771  0.32410  1.0000
  C   C1339     1.0  0.61238  0.05998  0.36379  1.0000
  H   H2127     1.0  0.78061  0.04878  0.29283  1.0000
  H   H2128     1.0  0.79859  0.06028  0.30257  1.0000
  C   C1340     1.0  0.85212  0.14080  0.30545  1.0000
  C   C1341     1.0  0.86692  0.14885  0.29979  1.0000
  C   C1342     1.0  0.86726  0.16501  0.30241  1.0000
  C   C1343     1.0  0.85273  0.17321  0.31070  1.0000
  C   C1344     1.0  0.83798  0.16514  0.31637  1.0000
  C   C1345     1.0  0.83772  0.14895  0.31383  1.0000
  H   H2129     1.0  0.87807  0.14265  0.29323  1.0000
  H   H2130     1.0  0.87857  0.17127  0.29784  1.0000
  H   H2131     1.0  0.82669  0.17141  0.32280  1.0000
  H   H2132     1.0  0.82633  0.14282  0.31833  1.0000
  C   C1346     1.0  0.76367  0.11669  0.35472  1.0000
  C   C1347     1.0  0.75515  0.11803  0.34496  1.0000
  C   C1348     1.0  0.73638  0.12277  0.34696  1.0000
  C   C1349     1.0  0.72615  0.12666  0.35856  1.0000
  C   C1350     1.0  0.73473  0.12631  0.36805  1.0000
  C   C1351     1.0  0.75348  0.12116  0.36617  1.0000
  H   H2133     1.0  0.76298  0.11501  0.33599  1.0000
  H   H2134     1.0  0.72984  0.12361  0.33948  1.0000
  H   H2135     1.0  0.72683  0.12941  0.37702  1.0000
  H   H2136     1.0  0.76004  0.12017  0.37373  1.0000
  C   C1352     1.0  0.77720  0.16761  0.26922  1.0000
  C   C1353     1.0  0.76092  0.16230  0.27177  1.0000
  C   C1354     1.0  0.75836  0.14642  0.28042  1.0000
  C   C1355     1.0  0.77188  0.13616  0.28680  1.0000
  C   C1356     1.0  0.78825  0.14134  0.28416  1.0000
  C   C1357     1.0  0.79097  0.15697  0.27525  1.0000
  H   H2137     1.0  0.75032  0.17037  0.26705  1.0000
  H   H2138     1.0  0.74581  0.14230  0.28231  1.0000
  H   H2139     1.0  0.79885  0.13329  0.28893  1.0000
  H   H2140     1.0  0.80365  0.16093  0.27314  1.0000
  C   C1358     1.0  0.69188  0.18166  0.28880  1.0000
  C   C1359     1.0  0.82123  0.20869  0.28627  1.0000
  C   C1360     1.0  0.68210  0.15771  0.30583  1.0000
  C   C1361     1.0  0.69412  0.14513  0.29930  1.0000
  C   C1362     1.0  0.70504  0.15085  0.28753  1.0000
  C   C1363     1.0  0.70418  0.16908  0.28239  1.0000
  H   H2141     1.0  0.75036  0.10443  0.28357  1.0000
  H   H2142     1.0  0.67346  0.15343  0.31483  1.0000
  H   H2143     1.0  0.71429  0.14119  0.28240  1.0000
  H   H2144     1.0  0.71280  0.17335  0.27338  1.0000
  C   C1364     1.0  0.60618  0.11807  0.39843  1.0000
  C   C1365     1.0  0.59815  0.10792  0.39411  1.0000
  C   C1366     1.0  0.60544  0.10356  0.38215  1.0000
  C   C1367     1.0  0.62108  0.10896  0.37455  1.0000
  C   C1368     1.0  0.62939  0.11879  0.37896  1.0000
  C   C1369     1.0  0.62183  0.12350  0.39082  1.0000
  H   H2145     1.0  0.58608  0.10374  0.39983  1.0000
  H   H2146     1.0  0.59887  0.09606  0.37880  1.0000
  H   H2147     1.0  0.64141  0.12308  0.37312  1.0000
  H   H2148     1.0  0.62810  0.13140  0.39407  1.0000
  C   C1370     1.0  0.52860  0.01971  0.44009  1.0000
  H   H2149     1.0  0.56681  0.00209  0.48465  1.0000
  H   H2150     1.0  0.51961  0.11188  0.41732  1.0000
  C   C1371     1.0  0.55836  0.03565  0.43079  1.0000
  C   C1372     1.0  0.54145  0.04564  0.43528  1.0000
  C   C1373     1.0  0.52666  0.03757  0.44019  1.0000
  H   H2151     1.0  0.73387  0.11040  0.29706  1.0000
  N   N130      1.0  0.50782  0.04805  0.40683  1.0000
  H   H2152     1.0  0.53970  0.05964  0.43489  1.0000
  C   C1374     1.0  0.96825  0.23085  0.28403  1.0000
  S   S561      1.0  0.73743  0.21698  0.27382  1.0000
  S   S562      1.0  0.70940  0.24053  0.25575  1.0000
  H   H2153     1.0  0.73471  0.04276  0.36565  1.0000
  C   C1375     1.0  0.97676  0.20459  0.29966  1.0000
  C   C1376     1.0  0.63468  0.06207  0.34418  1.0000
  S   S563      1.0  0.69021  0.20459  0.28256  1.0000
  C   C1377     1.0  0.62612  0.10196  0.43917  1.0000
  H   H2154     1.0  0.71804  0.16273  0.33362  1.0000
  H   H2155     1.0  0.72301  0.07352  0.37983  1.0000
  S   S564      1.0  0.98133  0.22966  0.33711  1.0000
  H   H2156     1.0  0.62472  0.06275  0.33862  1.0000
  H   H2157     1.0  0.64815  0.05614  0.33898  1.0000
  H   H2158     1.0  0.60176  0.06053  0.35883  1.0000
  H   H2159     1.0  0.74999  0.08698  0.31156  1.0000
  C   C1378     1.0  0.73120  0.16549  0.32770  1.0000
  H   H2160     1.0  0.71603  0.07282  0.36602  1.0000
  S   S565      1.0  0.55884  0.11441  0.44430  1.0000
  H   H2161     1.0  0.59280  0.02371  0.44705  1.0000
  H   H2162     1.0  0.67923  0.99512  0.27324  1.0000
  C   C1379     1.0  0.72916  0.14968  0.31275  1.0000
  H   H2163     1.0  0.51124  0.06022  0.42072  1.0000
  H   H2164     1.0  0.72992  0.14990  0.30265  1.0000
  H   H2165     1.0  0.71558  0.14757  0.31814  1.0000
  H   H2166     1.0  0.73923  0.13786  0.31619  1.0000
  H   H2167     1.0  0.70517  0.18032  0.31429  1.0000
  H   H2168     1.0  0.71998  0.18270  0.29893  1.0000
  Fe  Fe282     1.0  0.65537  0.99266  0.33724  1.0000
  C   C1380     1.0  0.68078  0.17593  0.30048  1.0000
  H   H2169     1.0  0.73257  0.17821  0.32921  1.0000
  C   C1381     1.0  0.57742  0.99947  0.47613  1.0000
  S   S566      1.0  0.55737  0.09681  0.42093  1.0000
  H   H2170     1.0  0.84743  0.19153  0.26104  1.0000
  H   H2171     1.0  0.66473  0.01731  0.30060  1.0000
  H   H2172     1.0  0.94453  0.23803  0.33527  1.0000
  C   C1382     1.0  0.74479  0.04655  0.36912  1.0000
  H   H2173     1.0  0.98602  0.19754  0.30623  1.0000
  C   C1383     1.0  0.72660  0.07610  0.36928  1.0000
  H   H2174     1.0  0.63810  0.10780  0.45782  1.0000
  N   N131      1.0  0.57822  0.01583  0.46612  1.0000
  H   H2175     1.0  0.58455  0.04139  0.46324  1.0000
  H   H2176     1.0  0.62226  0.10576  0.42978  1.0000
  C   C1384     1.0  0.50703  0.10756  0.42092  1.0000
  H   H2177     1.0  0.82141  0.22294  0.28184  1.0000
  H   H2178     1.0  0.63482  0.07598  0.34419  1.0000
  C   C1385     1.0  0.62329  0.11057  0.45884  1.0000
  H   H2179     1.0  0.61904  0.14363  0.44416  1.0000
  C   C1386     1.0  0.82579  0.17908  0.28283  1.0000
  H   H2180     1.0  0.72584  0.09065  0.36582  1.0000
  N   N132      1.0  0.89660  0.14682  0.33260  1.0000
  C   C1387     1.0  0.88759  0.16508  0.33422  1.0000
  C   C1388     1.0  0.90878  0.14754  0.31995  1.0000
  C   C1389     1.0  0.88295  0.13668  0.33370  1.0000
  C   C1390     1.0  0.90715  0.13811  0.34252  1.0000
  H   H2181     1.0  0.87978  0.17220  0.32677  1.0000
  H   H2182     1.0  0.89751  0.17299  0.33366  1.0000
  H   H2183     1.0  0.87803  0.16513  0.34356  1.0000
  H   H2184     1.0  0.91594  0.13400  0.31841  1.0000
  H   H2185     1.0  0.90125  0.15397  0.31224  1.0000
  H   H2186     1.0  0.91913  0.15528  0.31878  1.0000
  H   H2187     1.0  0.87466  0.14308  0.32642  1.0000
  H   H2188     1.0  0.87355  0.13583  0.34315  1.0000
  H   H2189     1.0  0.88925  0.12289  0.33236  1.0000
  H   H2190     1.0  0.91754  0.14556  0.34187  1.0000
  H   H2191     1.0  0.91420  0.12430  0.34161  1.0000
  H   H2192     1.0  0.89841  0.13747  0.35220  1.0000
  H   H2193     1.0  0.79835  0.20356  0.27427  1.0000
  H   H2194     1.0  0.84518  0.00546  0.27842  1.0000
  H   H2195     1.0  0.67193  0.23731  0.26466  1.0000
  H   H2196     1.0  0.59312  0.10802  0.45314  1.0000
  H   H2197     1.0  0.67123  0.18561  0.30548  1.0000
  H   H2198     1.0  0.57349  0.00993  0.42755  1.0000
  H   H2199     1.0  0.85415  0.19460  0.27428  1.0000
  C   C1391     1.0  0.81212  0.20440  0.26855  1.0000
  N   N133      1.0  0.61823  0.11630  0.44634  1.0000
  H   H2200     1.0  0.82130  0.99511  0.27379  1.0000
  H   H2201     1.0  0.84402  0.21352  0.26368  1.0000
  Fe  Fe283     1.0  0.57146  0.08692  0.45342  1.0000
  H   H2202     1.0  0.80765  0.20812  0.29238  1.0000
  H   H2203     1.0  0.62014  0.03310  0.35164  1.0000
  C   C1392     1.0  0.56037  0.02336  0.46294  1.0000
  C   C1393     1.0  0.64390  0.05113  0.36421  1.0000
  H   H2204     1.0  0.71839  0.08731  0.31273  1.0000
  H   H2205     1.0  0.74889  0.08446  0.34684  1.0000
  H   H2206     1.0  0.56059  0.03561  0.45537  1.0000
  N   N134      1.0  0.74461  0.06573  0.36458  1.0000
  C   C1394     1.0  0.51326  0.06266  0.39636  1.0000
  C   C1395     1.0  0.74582  0.07121  0.28741  1.0000
  H   H2207     1.0  0.82935  0.17050  0.27578  1.0000
  H   H2208     1.0  0.75877  0.07343  0.28086  1.0000
  C   C1396     1.0  0.97504  0.19903  0.33378  1.0000
  H   H2209     1.0  0.64410  0.06478  0.36479  1.0000
  H   H2210     1.0  0.72401  0.06502  0.31018  1.0000
  H   H2211     1.0  0.51964  0.02173  0.41581  1.0000
  H   H2212     1.0  0.76243  0.06255  0.34666  1.0000
  C   C1397     1.0  0.75382  0.07839  0.30449  1.0000
  H   H2213     1.0  0.74148  0.04286  0.37967  1.0000
  H   H2214     1.0  0.64354  0.02655  0.35190  1.0000
  C   C1398     1.0  0.56039  0.01772  0.43093  1.0000
  C   C1399     1.0  0.57726  0.10652  0.47948  1.0000
  H   H2215     1.0  0.64113  0.04324  0.37409  1.0000
  H   H2216     1.0  0.63977  0.13012  0.43743  1.0000
  H   H2217     1.0  0.56813  0.11290  0.47315  1.0000
  S   S567      1.0  0.51000  0.10875  0.44461  1.0000
  N   N135      1.0  0.63030  0.05159  0.35725  1.0000
  H   H2218     1.0  0.76701  0.08073  0.29840  1.0000
  H   H2219     1.0  0.59416  0.12523  0.43902  1.0000
  H   H2220     1.0  0.81243  0.17735  0.28891  1.0000
  H   H2221     1.0  0.60872  0.05254  0.37373  1.0000
  H   H2222     1.0  0.96281  0.20631  0.30549  1.0000
  C   C1400     1.0  0.52343  0.03305  0.40810  1.0000
  N   N136      1.0  0.82567  0.19791  0.27654  1.0000
  H   H2223     1.0  0.75411  0.18030  0.30820  1.0000
  N   N137      1.0  0.74006  0.08258  0.29685  1.0000
  H   H2224     1.0  0.75191  0.16999  0.29652  1.0000
  C   C1401     1.0  0.84362  0.19945  0.26852  1.0000
  N   N138      1.0  0.73255  0.16628  0.31413  1.0000
  C   C1402     1.0  0.71910  0.18158  0.30919  1.0000
  H   H2225     1.0  0.62141  0.08951  0.44442  1.0000
  H   H2226     1.0  0.75566  0.06669  0.37992  1.0000
  H   H2227     1.0  0.76121  0.15655  0.30980  1.0000
  H   H2228     1.0  0.74781  0.05682  0.29207  1.0000
  H   H2229     1.0  0.73569  0.07404  0.28151  1.0000
  H   H2230     1.0  0.59195  0.13040  0.45407  1.0000
  H   H2231     1.0  0.73889  0.06695  0.34662  1.0000
  H   H2232     1.0  0.72109  0.19437  0.31016  1.0000
  H   H2233     1.0  0.62122  0.13704  0.42959  1.0000
  H   H2234     1.0  0.98886  0.19296  0.33437  1.0000
  C   C1403     1.0  0.75075  0.16837  0.30688  1.0000
  H   H2235     1.0  0.61195  0.07388  0.36418  1.0000
  C   C1404     1.0  0.63025  0.03326  0.35682  1.0000
  H   H2236     1.0  0.54371  0.07007  0.48070  1.0000
  H   H2237     1.0  0.66332  0.01944  0.28453  1.0000
  H   H2238     1.0  0.83104  0.20393  0.29259  1.0000
  Fe  Fe284     1.0  0.75345  0.20566  0.25688  1.0000
  H   H2239     1.0  0.69415  0.01815  0.35985  1.0000
  C   C1405     1.0  0.74890  0.07008  0.35055  1.0000
  H   H2240     1.0  0.75822  0.03836  0.36576  1.0000
  H   H2241     1.0  0.77204  0.06322  0.36558  1.0000
  C   C1406     1.0  0.59849  0.12018  0.44824  1.0000
  C   C1407     1.0  0.75816  0.07017  0.36937  1.0000
  H   H2242     1.0  0.75796  0.08461  0.36648  1.0000
  H   H2243     1.0  0.65762  0.04519  0.35942  1.0000
  H   H2244     1.0  0.61863  0.09823  0.46444  1.0000
  H   H2245     1.0  0.62698  0.02492  0.36652  1.0000
  H   H2246     1.0  0.64770  0.21875  0.24236  1.0000
  C   C1408     1.0  0.65960  0.23404  0.26377  1.0000
  H   H2247     1.0  0.73571  0.02114  0.33788  1.0000
  H   H2248     1.0  0.52910  0.02802  0.39918  1.0000
  S   S568      1.0  0.75247  0.23197  0.24332  1.0000
  N   N139      1.0  0.66259  0.22775  0.25195  1.0000
  H   H2249     1.0  0.85691  0.99211  0.29062  1.0000
  H   H2250     1.0  0.81177  0.21852  0.26352  1.0000
  H   H2251     1.0  0.59664  0.02369  0.47354  1.0000
  H   H2252     1.0  0.67850  0.00431  0.34985  1.0000
  Fe  Fe285     1.0  0.88591  0.23793  0.31314  1.0000
  H   H2253     1.0  0.72488  0.99889  0.33243  1.0000
  C   C1409     1.0  0.73943  0.01123  0.34639  1.0000
  H   H2254     1.0  0.51363  0.04532  0.44378  1.0000
  H   H2255     1.0  0.50348  0.10821  0.40236  1.0000
  C   C1410     1.0  0.59157  0.01155  0.45467  1.0000
  H   H2256     1.0  0.55592  0.01383  0.45944  1.0000
  H   H2257     1.0  0.96934  0.17526  0.33151  1.0000
  H   H2258     1.0  0.83377  0.00300  0.29478  1.0000
  H   H2259     1.0  0.63465  0.23543  0.25113  1.0000
  S   S569      1.0  0.50961  0.01036  0.44483  1.0000
  H   H2260     1.0  0.51831  0.05836  0.38714  1.0000
  C   C1411     1.0  0.97965  0.23309  0.30137  1.0000
  C   C1412     1.0  0.54552  0.00978  0.43560  1.0000
  H   H2261     1.0  0.72784  0.01304  0.35451  1.0000
  H   H2262     1.0  0.54996  0.02692  0.47132  1.0000
  H   H2263     1.0  0.96584  0.23571  0.30731  1.0000
  H   H2264     1.0  0.67404  0.20098  0.26054  1.0000
  H   H2265     1.0  0.53435  0.03705  0.41048  1.0000
  H   H2266     1.0  0.75092  0.01464  0.34845  1.0000
  H   H2267     1.0  0.83577  0.17378  0.28899  1.0000
  H   H2268     1.0  0.52404  0.06759  0.39814  1.0000
  C   C1413     1.0  0.84379  0.99582  0.28771  1.0000
  H   H2269     1.0  0.79611  0.99635  0.31475  1.0000
  H   H2270     1.0  0.68391  0.02050  0.28799  1.0000
  H   H2271     1.0  0.69004  0.21444  0.25212  1.0000
  Fe  Fe286     1.0  0.72740  0.22761  0.24012  1.0000
  C   C1414     1.0  0.67711  0.21159  0.25199  1.0000
  H   H2272     1.0  0.98895  0.22656  0.30798  1.0000
  N   N140      1.0  0.74398  0.99291  0.34432  1.0000
  H   H2273     1.0  0.57496  0.99883  0.39409  1.0000
  H   H2274     1.0  0.60512  0.00544  0.45680  1.0000
  C   C1415     1.0  0.67236  0.01377  0.29137  1.0000
  H   H2275     1.0  0.77168  0.99383  0.33590  1.0000
  H   H2276     1.0  0.65596  0.22367  0.27234  1.0000
  H   H2277     1.0  0.50176  0.07423  0.39525  1.0000
  H   H2278     1.0  0.67931  0.20608  0.24345  1.0000
  H   H2279     1.0  0.54726  0.99597  0.43582  1.0000
  H   H2280     1.0  0.57349  0.03296  0.47908  1.0000
  C   C1416     1.0  0.99955  0.21896  0.28470  1.0000
  H   H2281     1.0  0.79169  0.23888  0.27761  1.0000
  H   H2282     1.0  0.76310  0.24020  0.27202  1.0000
  H   H2283     1.0  0.59034  0.99395  0.47933  1.0000
  S   S570      1.0  0.62716  0.99320  0.33687  1.0000
  H   H2284     1.0  0.70016  0.99602  0.27630  1.0000
  N   N141      1.0  0.67849  0.99431  0.29274  1.0000
  H   H2285     1.0  0.70332  0.99259  0.29787  1.0000
  C   C1417     1.0  0.66770  0.24179  0.24085  1.0000
  C   C1418     1.0  0.50116  0.05451  0.41878  1.0000
  Fe  Fe287     1.0  0.58102  0.07920  0.54946  1.0000
  S   S571      1.0  0.59309  0.10334  0.54454  1.0000
  Fe  Fe288     1.0  0.61253  0.05908  0.53273  1.0000
  S   S572      1.0  0.62700  0.08141  0.52600  1.0000
  S   S573      1.0  0.62394  0.03208  0.52818  1.0000
  Fe  Fe289     1.0  0.61940  0.08369  0.54650  1.0000
  S   S574      1.0  0.64301  0.07858  0.55585  1.0000
  Fe  Fe290     1.0  0.59986  0.09886  0.52451  1.0000
  S   S575      1.0  0.60638  0.06010  0.55318  1.0000
  S   S576      1.0  0.58608  0.07614  0.52954  1.0000
  S   S577      1.0  0.56726  0.01599  0.50511  1.0000
  H   H2286     1.0  0.96510  0.15081  0.63567  1.0000
  H   H2287     1.0  0.81648  0.06123  0.57571  1.0000
  H   H2288     1.0  0.63816  0.19367  0.68096  1.0000
  Fe  Fe291     1.0  0.82216  0.10226  0.61774  1.0000
  S   S578      1.0  0.80913  0.07907  0.62571  1.0000
  S   S579      1.0  0.81663  0.11885  0.59903  1.0000
  Fe  Fe292     1.0  0.83922  0.09544  0.64037  1.0000
  S   S580      1.0  0.82711  0.07140  0.65034  1.0000
  S   S581      1.0  0.85444  0.10463  0.65109  1.0000
  Fe  Fe293     1.0  0.83503  0.06429  0.63118  1.0000
  S   S582      1.0  0.84616  0.03698  0.62668  1.0000
  Fe  Fe294     1.0  0.80236  0.08828  0.64379  1.0000
  S   S583      1.0  0.77347  0.09159  0.65335  1.0000
  S   S584      1.0  0.84917  0.08695  0.62159  1.0000
  S   S585      1.0  0.81350  0.11279  0.63554  1.0000
  Fe  Fe295     1.0  0.89589  0.18685  0.64255  1.0000
  S   S586      1.0  0.91017  0.17287  0.65843  1.0000
  S   S587      1.0  0.88856  0.17315  0.62996  1.0000
  Fe  Fe296     1.0  0.92769  0.19304  0.65022  1.0000
  S   S588      1.0  0.95813  0.18547  0.64569  1.0000
  S   S589      1.0  0.91476  0.20555  0.63346  1.0000
  H   H2289     1.0  0.81840  0.17089  0.64817  1.0000
  H   H2290     1.0  0.61594  0.05483  0.62081  1.0000
  C   C1419     1.0  0.97098  0.21491  0.66517  1.0000
  S   S590      1.0  0.71345  0.18084  0.64956  1.0000
  C   C1420     1.0  0.59094  0.01013  0.55506  1.0000
  C   C1421     1.0  0.56619  0.02726  0.56773  1.0000
  H   H2291     1.0  0.79477  0.21681  0.73257  1.0000
  S   S591      1.0  0.65533  0.01778  0.59708  1.0000
  C   C1422     1.0  0.77926  0.21889  0.71347  1.0000
  Fe  Fe297     1.0  0.68632  0.10518  0.60063  1.0000
  S   S592      1.0  0.68356  0.08928  0.62074  1.0000
  S   S593      1.0  0.66153  0.11712  0.59209  1.0000
  Fe  Fe298     1.0  0.72682  0.09971  0.59680  1.0000
  S   S594      1.0  0.72730  0.08283  0.61620  1.0000
  S   S595      1.0  0.75220  0.10455  0.58259  1.0000
  Fe  Fe299     1.0  0.70761  0.07021  0.61270  1.0000
  S   S596      1.0  0.70940  0.04066  0.61913  1.0000
  Fe  Fe300     1.0  0.70335  0.10343  0.62273  1.0000
  S   S597      1.0  0.70333  0.10858  0.64175  1.0000
  S   S598      1.0  0.70936  0.08510  0.59251  1.0000
  S   S599      1.0  0.70401  0.12133  0.60334  1.0000
  H   H2292     1.0  0.93243  0.12140  0.64281  1.0000
  H   H2293     1.0  0.76355  0.06914  0.64257  1.0000
  H   H2294     1.0  0.63868  0.05695  0.58651  1.0000
  H   H2295     1.0  0.85080  0.22115  0.72237  1.0000
  H   H2296     1.0  0.54638  0.01150  0.55971  1.0000
  H   H2297     1.0  0.59956  0.01998  0.55281  1.0000
  C   C1423     1.0  0.54082  0.09439  0.54113  1.0000
  C   C1424     1.0  0.95534  0.13365  0.62172  1.0000
  C   C1425     1.0  0.80888  0.16950  0.65757  1.0000
  C   C1426     1.0  0.67230  0.17651  0.67396  1.0000
  H   H2298     1.0  0.96067  0.11972  0.62634  1.0000
  C   C1427     1.0  0.74954  0.04192  0.65697  1.0000
  H   H2299     1.0  0.67901  0.18397  0.69409  1.0000
  C   C1428     1.0  0.67062  0.02383  0.60317  1.0000
  C   C1429     1.0  0.67285  0.04141  0.59963  1.0000
  C   C1430     1.0  0.68444  0.04666  0.60472  1.0000
  C   C1431     1.0  0.69409  0.03432  0.61327  1.0000
  C   C1432     1.0  0.69180  0.01674  0.61691  1.0000
  C   C1433     1.0  0.68007  0.01152  0.61188  1.0000
  H   H2300     1.0  0.66577  0.05102  0.59286  1.0000
  H   H2301     1.0  0.68593  0.06029  0.60197  1.0000
  H   H2302     1.0  0.69894  0.00719  0.62370  1.0000
  H   H2303     1.0  0.67801  0.99809  0.61500  1.0000
  C   C1434     1.0  0.97001  0.19658  0.65132  1.0000
  C   C1435     1.0  0.96122  0.20678  0.66046  1.0000
  H   H2304     1.0  0.67473  0.21830  0.67406  1.0000
  H   H2305     1.0  0.94806  0.13311  0.61465  1.0000
  H   H2306     1.0  0.73952  0.13474  0.63284  1.0000
  Fe  Fe301     1.0  0.71860  0.19532  0.68923  1.0000
  H   H2307     1.0  0.94696  0.20802  0.66418  1.0000
  H   H2308     1.0  0.81588  0.08241  0.57860  1.0000
  H   H2309     1.0  0.55233  0.10042  0.53873  1.0000
  C   C1436     1.0  0.70429  0.16072  0.63692  1.0000
  C   C1437     1.0  0.83075  0.02347  0.62896  1.0000
  C   C1438     1.0  0.83682  0.00707  0.62523  1.0000
  H   H2310     1.0  0.53272  0.09371  0.50715  1.0000
  C   C1439     1.0  0.80639  0.00214  0.63134  1.0000
  C   C1440     1.0  0.80031  0.01855  0.63503  1.0000
  C   C1441     1.0  0.81246  0.02911  0.63397  1.0000
  H   H2311     1.0  0.85096  0.00261  0.62138  1.0000
  H   H2312     1.0  0.64801  0.20480  0.66543  1.0000
  H   H2313     1.0  0.78620  0.02301  0.63887  1.0000
  H   H2314     1.0  0.80768  0.04156  0.63707  1.0000
  C   C1442     1.0  0.86420  0.12347  0.64491  1.0000
  C   C1443     1.0  0.86331  0.13382  0.63276  1.0000
  C   C1444     1.0  0.87084  0.14901  0.62831  1.0000
  C   C1445     1.0  0.87893  0.15420  0.63606  1.0000
  C   C1446     1.0  0.87966  0.14395  0.64826  1.0000
  C   C1447     1.0  0.87257  0.12849  0.65258  1.0000
  H   H2315     1.0  0.85697  0.13004  0.62676  1.0000
  H   H2316     1.0  0.87032  0.15682  0.61883  1.0000
  H   H2317     1.0  0.88575  0.14784  0.65435  1.0000
  H   H2318     1.0  0.87328  0.12053  0.66200  1.0000
  C   C1448     1.0  0.79831  0.11496  0.59488  1.0000
  C   C1449     1.0  0.78437  0.10835  0.60411  1.0000
  C   C1450     1.0  0.76991  0.10537  0.60051  1.0000
  C   C1451     1.0  0.76954  0.10873  0.58764  1.0000
  C   C1452     1.0  0.78351  0.11525  0.57846  1.0000
  C   C1453     1.0  0.79771  0.11856  0.58206  1.0000
  H   H2319     1.0  0.78448  0.10584  0.61403  1.0000
  H   H2320     1.0  0.75913  0.10040  0.60765  1.0000
  H   H2321     1.0  0.78322  0.11795  0.56850  1.0000
  H   H2322     1.0  0.80833  0.12381  0.57488  1.0000
  C   C1454     1.0  0.95353  0.14423  0.64039  1.0000
  H   H2323     1.0  0.71490  0.07134  0.64529  1.0000
  H   H2324     1.0  0.77993  0.20450  0.71451  1.0000
  H   H2325     1.0  0.54322  0.05302  0.51510  1.0000
  H   H2326     1.0  0.80864  0.18063  0.66186  1.0000
  S   S600      1.0  0.55458  0.07339  0.56145  1.0000
  C   C1455     1.0  0.70503  0.12905  0.64400  1.0000
  C   C1456     1.0  0.76452  0.12190  0.68416  1.0000
  C   C1457     1.0  0.78114  0.11062  0.68088  1.0000
  C   C1458     1.0  0.78398  0.10122  0.67136  1.0000
  C   C1459     1.0  0.76996  0.10266  0.66552  1.0000
  C   C1460     1.0  0.75327  0.11364  0.66899  1.0000
  C   C1461     1.0  0.75064  0.12355  0.67814  1.0000
  H   H2327     1.0  0.79190  0.10943  0.68550  1.0000
  H   H2328     1.0  0.79693  0.09272  0.66866  1.0000
  H   H2329     1.0  0.74254  0.11481  0.66438  1.0000
  H   H2330     1.0  0.73782  0.13232  0.68066  1.0000
  H   H2331     1.0  0.75363  0.03346  0.64981  1.0000
  C   C1462     1.0  0.70967  0.12939  0.65517  1.0000
  C   C1463     1.0  0.86168  0.20633  0.70752  1.0000
  S   S601      1.0  0.75577  0.17151  0.66516  1.0000
  H   H2332     1.0  0.74903  0.16579  0.61168  1.0000
  H   H2333     1.0  0.71163  0.11729  0.66232  1.0000
  H   H2334     1.0  0.56777  0.01727  0.57666  1.0000
  C   C1464     1.0  0.58449  0.02016  0.51030  1.0000
  H   H2335     1.0  0.68534  0.01481  0.53568  1.0000
  C   C1465     1.0  0.60895  0.00982  0.52154  1.0000
  C   C1466     1.0  0.60999  0.02737  0.52033  1.0000
  C   C1467     1.0  0.59896  0.04119  0.51355  1.0000
  C   C1468     1.0  0.58633  0.03763  0.50845  1.0000
  C   C1469     1.0  0.70183  0.21770  0.71288  1.0000
  C   C1470     1.0  0.80971  0.21646  0.70115  1.0000
  H   H2336     1.0  0.60027  0.05466  0.51217  1.0000
  H   H2337     1.0  0.57783  0.04852  0.50333  1.0000
  C   C1471     1.0  0.64813  0.09030  0.56528  1.0000
  C   C1472     1.0  0.66313  0.08249  0.57079  1.0000
  C   C1473     1.0  0.66750  0.09073  0.57882  1.0000
  C   C1474     1.0  0.65695  0.10697  0.58140  1.0000
  C   C1475     1.0  0.64201  0.11494  0.57577  1.0000
  C   C1476     1.0  0.63754  0.10660  0.56777  1.0000
  H   H2338     1.0  0.67142  0.06989  0.56892  1.0000
  H   H2339     1.0  0.67897  0.08443  0.58307  1.0000
  H   H2340     1.0  0.63380  0.12754  0.57769  1.0000
  H   H2341     1.0  0.62599  0.11280  0.56354  1.0000
  N   N142      1.0  0.81411  0.15206  0.66592  1.0000
  C   C1477     1.0  0.83216  0.15032  0.66808  1.0000
  C   C1478     1.0  0.81439  0.13767  0.65984  1.0000
  C   C1479     1.0  0.80102  0.15078  0.67819  1.0000
  H   H2342     1.0  0.84203  0.15246  0.65892  1.0000
  H   H2343     1.0  0.83714  0.13685  0.67360  1.0000
  H   H2344     1.0  0.83224  0.16028  0.67334  1.0000
  H   H2345     1.0  0.80089  0.13833  0.65830  1.0000
  H   H2346     1.0  0.82406  0.13827  0.65051  1.0000
  H   H2347     1.0  0.81861  0.12429  0.66580  1.0000
  H   H2348     1.0  0.78729  0.15219  0.67684  1.0000
  H   H2349     1.0  0.80037  0.16140  0.68309  1.0000
  H   H2350     1.0  0.80436  0.13770  0.68472  1.0000
  H   H2351     1.0  0.69244  0.19913  0.67257  1.0000
  H   H2352     1.0  0.75103  0.13336  0.61685  1.0000
  H   H2353     1.0  0.75823  0.17565  0.62049  1.0000
  C   C1480     1.0  0.51295  0.09309  0.53654  1.0000
  C   C1481     1.0  0.71960  0.21924  0.71087  1.0000
  H   H2354     1.0  0.74146  0.03492  0.66570  1.0000
  H   H2355     1.0  0.81141  0.20195  0.70193  1.0000
  S   S602      1.0  0.72589  0.20815  0.66863  1.0000
  C   C1482     1.0  0.68245  0.01912  0.54481  1.0000
  H   H2356     1.0  0.83672  0.06964  0.57142  1.0000
  H   H2357     1.0  0.77877  0.14556  0.60737  1.0000
  N   N143      1.0  0.73930  0.05978  0.65211  1.0000
  Fe  Fe302     1.0  0.74645  0.16168  0.68606  1.0000
  H   H2358     1.0  0.91974  0.13539  0.63126  1.0000
  H   H2359     1.0  0.72675  0.08425  0.65842  1.0000
  H   H2360     1.0  0.66045  0.03944  0.52935  1.0000
  H   H2361     1.0  0.82327  0.21901  0.70002  1.0000
  S   S603      1.0  0.74711  0.18616  0.69168  1.0000
  H   H2362     1.0  0.78760  0.15453  0.61688  1.0000
  H   H2363     1.0  0.59291  0.08353  0.59535  1.0000
  C   C1483     1.0  0.75727  0.23329  0.67924  1.0000
  H   H2364     1.0  0.71414  0.05143  0.65729  1.0000
  H   H2365     1.0  0.79521  0.17146  0.65585  1.0000
  N   N144      1.0  0.66612  0.19360  0.67816  1.0000
  C   C1484     1.0  0.93674  0.16221  0.62462  1.0000
  Fe  Fe303     1.0  0.72644  0.18151  0.66512  1.0000
  H   H2366     1.0  0.84092  0.06412  0.60456  1.0000
  C   C1485     1.0  0.72300  0.05809  0.64888  1.0000
  H   H2367     1.0  0.94497  0.15191  0.64763  1.0000
  S   S604      1.0  0.59393  0.11879  0.50677  1.0000
  C   C1486     1.0  0.85360  0.22180  0.71226  1.0000
  C   C1487     1.0  0.54230  0.06140  0.49037  1.0000
  C   C1488     1.0  0.52983  0.05954  0.51278  1.0000
  H   H2368     1.0  0.59533  0.00286  0.54720  1.0000
  H   H2369     1.0  0.54238  0.09486  0.49054  1.0000
  H   H2370     1.0  0.53613  0.05042  0.49045  1.0000
  H   H2371     1.0  0.52301  0.04881  0.51330  1.0000
  C   C1489     1.0  0.59134  0.10759  0.49606  1.0000
  C   C1490     1.0  0.84915  0.23807  0.70398  1.0000
  H   H2372     1.0  0.51442  0.08893  0.48782  1.0000
  H   H2373     1.0  0.77365  0.22618  0.70493  1.0000
  H   H2374     1.0  0.72676  0.01269  0.60146  1.0000
  H   H2375     1.0  0.50631  0.06961  0.49744  1.0000
  H   H2376     1.0  0.52106  0.06337  0.56368  1.0000
  H   H2377     1.0  0.96408  0.22244  0.67245  1.0000
  H   H2378     1.0  0.61769  0.99900  0.52660  1.0000
  H   H2379     1.0  0.80549  0.19803  0.72529  1.0000
  H   H2380     1.0  0.86509  0.19377  0.71397  1.0000
  H   H2381     1.0  0.74597  0.01246  0.58858  1.0000
  H   H2382     1.0  0.92415  0.23941  0.62758  1.0000
  H   H2383     1.0  0.76201  0.04275  0.65940  1.0000
  H   H2384     1.0  0.72510  0.06454  0.67062  1.0000
  C   C1491     1.0  0.75066  0.06863  0.64065  1.0000
  N   N145      1.0  0.79709  0.22238  0.71237  1.0000
  C   C1492     1.0  0.65215  0.01442  0.55004  1.0000
  H   H2385     1.0  0.66347  0.02155  0.56849  1.0000
  H   H2386     1.0  0.52186  0.06687  0.52036  1.0000
  N   N146      1.0  0.75199  0.00062  0.60705  1.0000
  H   H2387     1.0  0.72638  0.05030  0.64135  1.0000
  C   C1493     1.0  0.70961  0.16089  0.64787  1.0000
  S   S605      1.0  0.77734  0.21089  0.66337  1.0000
  H   H2388     1.0  0.84458  0.23889  0.63338  1.0000
  H   H2389     1.0  0.60911  0.08337  0.50285  1.0000
  H   H2390     1.0  0.94785  0.16935  0.61979  1.0000
  N   N147      1.0  0.57169  0.01883  0.55665  1.0000
  H   H2391     1.0  0.67315  0.17848  0.66359  1.0000
  C   C1494     1.0  0.64800  0.20219  0.67572  1.0000
  H   H2392     1.0  0.65534  0.00234  0.55744  1.0000
  H   H2393     1.0  0.74672  0.22619  0.68093  1.0000
  H   H2394     1.0  0.99558  0.18696  0.63972  1.0000
  H   H2395     1.0  0.76941  0.22320  0.72187  1.0000
  H   H2396     1.0  0.68664  0.00718  0.55205  1.0000
  H   H2397     1.0  0.56505  0.99862  0.55053  1.0000
  H   H2398     1.0  0.55443  0.03989  0.54617  1.0000
  H   H2399     1.0  0.73873  0.22652  0.71789  1.0000
  H   H2400     1.0  0.81738  0.21512  0.72339  1.0000
  C   C1495     1.0  0.74103  0.01396  0.59860  1.0000
  H   H2401     1.0  0.66628  0.05328  0.53733  1.0000
  H   H2402     1.0  0.77948  0.99278  0.60897  1.0000
  H   H2403     1.0  0.67955  0.20809  0.66060  1.0000
  H   H2404     1.0  0.53014  0.11094  0.52512  1.0000
  H   H2405     1.0  0.64299  0.21515  0.67874  1.0000
  H   H2406     1.0  0.65426  0.00997  0.54104  1.0000
  H   H2407     1.0  0.57704  0.04253  0.54313  1.0000
  H   H2408     1.0  0.65615  0.18167  0.69764  1.0000
  H   H2409     1.0  0.55189  0.03454  0.56894  1.0000
  H   H2410     1.0  0.66129  0.20309  0.69532  1.0000
  C   C1496     1.0  0.80397  0.21264  0.72392  1.0000
  H   H2411     1.0  0.66790  0.04288  0.55990  1.0000
  C   C1497     1.0  0.98865  0.19487  0.64676  1.0000
  H   H2412     1.0  0.57334  0.12981  0.48709  1.0000
  C   C1498     1.0  0.56869  0.03254  0.54513  1.0000
  H   H2413     1.0  0.64402  0.04953  0.54124  1.0000
  C   C1499     1.0  0.69464  0.22919  0.73217  1.0000
  C   C1500     1.0  0.59604  0.00625  0.51668  1.0000
  C   C1501     1.0  0.56097  0.00541  0.55866  1.0000
  H   H2414     1.0  0.96702  0.13980  0.61642  1.0000
  N   N148      1.0  0.82783  0.05992  0.59144  1.0000
  C   C1502     1.0  0.81067  0.05912  0.60077  1.0000
  C   C1503     1.0  0.83865  0.04170  0.59133  1.0000
  C   C1504     1.0  0.83789  0.07027  0.59500  1.0000
  C   C1505     1.0  0.82409  0.06865  0.57872  1.0000
  H   H2415     1.0  0.80223  0.07266  0.60119  1.0000
  H   H2416     1.0  0.81303  0.05255  0.61045  1.0000
  H   H2417     1.0  0.80269  0.05147  0.59837  1.0000
  H   H2418     1.0  0.85167  0.04176  0.58434  1.0000
  H   H2419     1.0  0.84184  0.03494  0.60080  1.0000
  H   H2420     1.0  0.83141  0.03334  0.58891  1.0000
  H   H2421     1.0  0.83014  0.08406  0.59524  1.0000
  H   H2422     1.0  0.85092  0.07119  0.58818  1.0000
  H   H2423     1.0  0.74596  0.01703  0.62066  1.0000
  H   H2424     1.0  0.61999  0.08565  0.61001  1.0000
  H   H2425     1.0  0.50506  0.08772  0.50443  1.0000
  H   H2426     1.0  0.63644  0.04720  0.61035  1.0000
  C   C1506     1.0  0.77996  0.14454  0.61724  1.0000
  C   C1507     1.0  0.75144  0.16480  0.62121  1.0000
  H   H2427     1.0  0.77232  0.13291  0.64267  1.0000
  C   C1508     1.0  0.62163  0.05133  0.61135  1.0000
  H   H2428     1.0  0.61687  0.03944  0.61134  1.0000
  C   C1509     1.0  0.62461  0.08129  0.60081  1.0000
  Fe  Fe304     1.0  0.75433  0.19683  0.67076  1.0000
  H   H2429     1.0  0.64554  0.03923  0.56378  1.0000
  H   H2430     1.0  0.61872  0.04915  0.58863  1.0000
  H   H2431     1.0  0.73813  0.16754  0.62767  1.0000
  C   C1510     1.0  0.62376  0.06082  0.58869  1.0000
  C   C1511     1.0  0.53833  0.08105  0.55204  1.0000
  H   H2432     1.0  0.63956  0.07754  0.59892  1.0000
  H   H2433     1.0  0.62089  0.09303  0.59329  1.0000
  S   S606      1.0  0.71721  0.16942  0.68564  1.0000
  H   H2434     1.0  0.74600  0.07178  0.66478  1.0000
  H   H2435     1.0  0.61982  0.07174  0.58073  1.0000
  N   N149      1.0  0.76217  0.14716  0.62592  1.0000
  N   N150      1.0  0.61676  0.06640  0.60099  1.0000
  H   H2436     1.0  0.78826  0.13120  0.62023  1.0000
  H   H2437     1.0  0.69852  0.14472  0.62630  1.0000
  H   H2438     1.0  0.75110  0.14808  0.64558  1.0000
  H   H2439     1.0  0.59066  0.06126  0.60329  1.0000
  C   C1512     1.0  0.92800  0.13539  0.63790  1.0000
  C   C1513     1.0  0.76435  0.14614  0.63882  1.0000
  H   H2440     1.0  0.91887  0.14267  0.64519  1.0000
  C   C1514     1.0  0.86165  0.22347  0.68611  1.0000
  C   C1515     1.0  0.65838  0.04306  0.53865  1.0000
  C   C1516     1.0  0.70226  0.14480  0.63489  1.0000
  Fe  Fe305     1.0  0.89136  0.19378  0.66852  1.0000
  C   C1517     1.0  0.59700  0.07221  0.60307  1.0000
  H   H2441     1.0  0.77126  0.15649  0.63890  1.0000
  H   H2442     1.0  0.95881  0.13064  0.64554  1.0000
  H   H2443     1.0  0.59122  0.07670  0.61220  1.0000
  H   H2444     1.0  0.76063  0.11965  0.63005  1.0000
  S   S607      1.0  0.76154  0.13540  0.69476  1.0000
  H   H2445     1.0  0.70211  0.17285  0.62982  1.0000
  C   C1518     1.0  0.73405  0.07051  0.66193  1.0000
  C   C1519     1.0  0.71221  0.14518  0.65703  1.0000
  H   H2446     1.0  0.71621  0.14516  0.66553  1.0000
  C   C1520     1.0  0.60013  0.08985  0.49642  1.0000
  N   N151      1.0  0.94342  0.14385  0.63116  1.0000
  C   C1521     1.0  0.65992  0.03294  0.56071  1.0000
  S   S608      1.0  0.87577  0.20637  0.65325  1.0000
  C   C1522     1.0  0.98961  0.21307  0.66073  1.0000
  H   H2447     1.0  0.75404  0.06151  0.63276  1.0000
  S   S609      1.0  0.87655  0.18772  0.68872  1.0000
  H   H2448     1.0  0.74379  0.08261  0.63725  1.0000
  S   S610      1.0  0.91019  0.21250  0.66201  1.0000
  S   S611      1.0  0.69521  0.20925  0.70224  1.0000
  H   H2449     1.0  0.57220  0.02657  0.53665  1.0000
  C   C1523     1.0  0.51356  0.07982  0.49732  1.0000
  C   C1524     1.0  0.66555  0.19042  0.69189  1.0000
  H   H2450     1.0  0.57437  0.03715  0.56660  1.0000
  C   C1525     1.0  0.77091  0.00239  0.60264  1.0000
  C   C1526     1.0  0.75296  0.13313  0.62639  1.0000
  C   C1527     1.0  0.77365  0.22852  0.67098  1.0000
  C   C1528     1.0  0.86594  0.20717  0.69444  1.0000
  H   H2451     1.0  0.66316  0.16724  0.67909  1.0000
  N   N152      1.0  0.66324  0.02735  0.54857  1.0000
  H   H2452     1.0  0.92918  0.16254  0.61747  1.0000
  Fe  Fe306     1.0  0.89614  0.22353  0.64585  1.0000
  H   H2453     1.0  0.69112  0.02858  0.54364  1.0000
  H   H2454     1.0  0.92732  0.16998  0.63148  1.0000
  C   C1529     1.0  0.67868  0.20537  0.67102  1.0000
  N   N153      1.0  0.53156  0.07160  0.50012  1.0000
  H   H2455     1.0  0.72922  0.21578  0.70258  1.0000
  C   C1530     1.0  0.71258  0.23023  0.73028  1.0000
  C   C1531     1.0  0.52308  0.07366  0.55521  1.0000
  C   C1532     1.0  0.52817  0.10041  0.53345  1.0000
  H   H2456     1.0  0.68597  0.16969  0.67562  1.0000
  H   H2457     1.0  0.86497  0.22419  0.67599  1.0000
  H   H2458     1.0  0.63758  0.02029  0.55274  1.0000
  H   H2459     1.0  0.74106  0.02778  0.59888  1.0000
  H   H2460     1.0  0.67548  0.22187  0.72505  1.0000
  H   H2461     1.0  0.73105  0.00235  0.62381  1.0000
  C   C1533     1.0  0.68928  0.22294  0.72346  1.0000
  C   C1534     1.0  0.85297  0.23886  0.69090  1.0000
  C   C1535     1.0  0.59730  0.08039  0.48855  1.0000
  C   C1536     1.0  0.72495  0.22542  0.71954  1.0000
  H   H2462     1.0  0.59385  0.00031  0.56378  1.0000
  H   H2463     1.0  0.77659  0.99991  0.59288  1.0000
  H   H2464     1.0  0.80490  0.22354  0.69227  1.0000
  C   C1537     1.0  0.99842  0.20318  0.65139  1.0000
  H   H2465     1.0  0.79987  0.23414  0.66246  1.0000
  C   C1538     1.0  0.78718  0.23788  0.66879  1.0000
  H   H2466     1.0  0.55417  0.07989  0.50216  1.0000
  H   H2467     1.0  0.60409  0.06660  0.48898  1.0000
  C   C1539     1.0  0.82470  0.99639  0.62646  1.0000
  H   H2468     1.0  0.55609  0.05535  0.49199  1.0000
  H   H2469     1.0  0.59517  0.99273  0.51789  1.0000
  C   C1540     1.0  0.74532  0.00350  0.62016  1.0000
  C   C1541     1.0  0.51043  0.07960  0.54740  1.0000
  H   H2470     1.0  0.77225  0.01592  0.60258  1.0000
  H   H2471     1.0  0.56281  0.99485  0.56730  1.0000
  C   C1542     1.0  0.54059  0.08563  0.49998  1.0000
  H   H2472     1.0  0.75342  0.99373  0.62676  1.0000
  H   H2473     1.0  0.82176  0.24063  0.64216  1.0000
  C   C1543     1.0  0.58018  0.11607  0.48737  1.0000
  C   C1544     1.0  0.79545  0.24163  0.71094  1.0000
  H   H2474     1.0  0.00060  0.24181  0.63986  1.0000
  Fe  Fe307     1.0  0.55817  0.12697  0.92789  1.0000
  S   S612      1.0  0.53350  0.13780  0.94146  1.0000
  S   S613      1.0  0.57288  0.14740  0.91428  1.0000
  Fe  Fe308     1.0  0.55404  0.08897  0.93782  1.0000
  S   S614      1.0  0.52883  0.09688  0.95172  1.0000
  H   H2475     1.0  0.61306  0.19800  0.83187  1.0000
  Fe  Fe309     1.0  0.52120  0.11953  0.93620  1.0000
  H   H2476     1.0  0.55157  0.00955  0.92957  1.0000
  Fe  Fe310     1.0  0.54313  0.11439  0.95607  1.0000
  H   H2477     1.0  0.52413  0.16252  0.88152  1.0000
  S   S615      1.0  0.54507  0.11013  0.92156  1.0000
  S   S616      1.0  0.56914  0.10501  0.94312  1.0000
  H   H2478     1.0  0.54792  0.02945  0.94399  1.0000
  C   C1545     1.0  0.61514  0.16421  0.81816  1.0000
  S   S617      1.0  0.57008  0.01085  0.90323  1.0000
  H   H2479     1.0  0.50251  0.14452  0.89618  1.0000
  H   H2480     1.0  0.63008  0.17808  0.83101  1.0000
  C   C1546     1.0  0.59524  0.23815  0.80544  1.0000
  H   H2481     1.0  0.62196  0.16984  0.80836  1.0000
  H   H2482     1.0  0.56383  0.19091  0.87511  1.0000
  H   H2483     1.0  0.57810  0.04522  0.89884  1.0000
  C   C1547     1.0  0.55422  0.03303  0.93409  1.0000
  Fe  Fe311     1.0  0.54672  0.23846  0.85455  1.0000
  H   H2484     1.0  0.60699  0.16033  0.84355  1.0000
  N   N154      1.0  0.60116  0.99831  0.94325  1.0000
  H   H2485     1.0  0.50239  0.09804  0.97681  1.0000
  H   H2486     1.0  0.59859  0.19772  0.80911  1.0000
  Fe  Fe312     1.0  0.54941  0.20128  0.85173  1.0000
  S   S618      1.0  0.53928  0.21109  0.83364  1.0000
  S   S619      1.0  0.55610  0.17171  0.85929  1.0000
  H   H2487     1.0  0.57061  0.18103  0.89663  1.0000
  H   H2488     1.0  0.51656  0.00966  0.90708  1.0000
  C   C1548     1.0  0.60407  0.23318  0.81548  1.0000
  S   S620      1.0  0.57240  0.23771  0.80819  1.0000
  S   S621      1.0  0.56937  0.21883  0.84566  1.0000
  S   S622      1.0  0.52771  0.21980  0.86234  1.0000
  H   H2489     1.0  0.50636  0.18196  0.88034  1.0000
  H   H2490     1.0  0.57175  0.08414  0.98543  1.0000
  S   S623      1.0  0.72002  0.23815  0.74074  1.0000
  C   C1549     1.0  0.62263  0.23198  0.81306  1.0000
  C   C1550     1.0  0.56517  0.02592  0.91324  1.0000
  C   C1551     1.0  0.57120  0.04191  0.90865  1.0000
  H   H2491     1.0  0.50325  0.09237  0.90392  1.0000
  H   H2492     1.0  0.61264  0.00418  0.92321  1.0000
  H   H2493     1.0  0.58925  0.03853  0.97903  1.0000
  H   H2494     1.0  0.59038  0.18054  0.84411  1.0000
  C   C1552     1.0  0.56919  0.05319  0.91688  1.0000
  H   H2495     1.0  0.60540  0.15703  0.81733  1.0000
  H   H2496     1.0  0.58527  0.20201  0.82406  1.0000
  H   H2497     1.0  0.59157  0.06866  0.97980  1.0000
  C   C1553     1.0  0.56117  0.04845  0.92971  1.0000
  C   C1554     1.0  0.59243  0.19122  0.81886  1.0000
  N   N155      1.0  0.60606  0.17830  0.82540  1.0000
  H   H2498     1.0  0.57685  0.06484  0.96389  1.0000
  H   H2499     1.0  0.57814  0.99317  0.93936  1.0000
  C   C1555     1.0  0.51863  0.02253  0.90784  1.0000
  C   C1556     1.0  0.52172  0.15708  0.90667  1.0000
  S   S624      1.0  0.53603  0.11150  0.97733  1.0000
  H   H2500     1.0  0.53149  0.01976  0.91094  1.0000
  C   C1557     1.0  0.61944  0.18747  0.82627  1.0000
  S   S625      1.0  0.56307  0.05916  0.94091  1.0000
  H   H2501     1.0  0.62950  0.22762  0.82086  1.0000
  H   H2502     1.0  0.50335  0.20144  0.84912  1.0000
  H   H2503     1.0  0.62552  0.15421  0.82283  1.0000
  C   C1558     1.0  0.50690  0.04817  0.91736  1.0000
  C   C1559     1.0  0.63240  0.23621  0.80060  1.0000
  H   H2504     1.0  0.52045  0.03108  0.89814  1.0000
  H   H2505     1.0  0.62618  0.99700  0.94788  1.0000
  H   H2506     1.0  0.51961  0.04613  0.92056  1.0000
  C   C1560     1.0  0.56401  0.06622  0.97108  1.0000
  H   H2507     1.0  0.52598  0.18228  0.88527  1.0000
  C   C1561     1.0  0.55905  0.12986  0.98067  1.0000
  H   H2508     1.0  0.51392  0.01691  0.93335  1.0000
  Fe  Fe313     1.0  0.55733  0.23043  0.82845  1.0000
  H   H2509     1.0  0.57478  0.06499  0.91345  1.0000
  H   H2510     1.0  0.54469  0.00546  0.96057  1.0000
  C   C1562     1.0  0.59722  0.17030  0.83832  1.0000
  H   H2511     1.0  0.56733  0.12786  0.89780  1.0000
  H   H2512     1.0  0.58205  0.18482  0.81805  1.0000
  S   S626      1.0  0.65581  0.23311  0.79805  1.0000
  H   H2513     1.0  0.57583  0.14463  0.98411  1.0000
  H   H2514     1.0  0.61239  0.02059  0.93162  1.0000
  N   N156      1.0  0.50350  0.03115  0.91675  1.0000
  H   H2515     1.0  0.56087  0.13762  0.87620  1.0000
  H   H2516     1.0  0.58676  0.16352  0.83809  1.0000
  H   H2517     1.0  0.56221  0.13437  0.97047  1.0000
  C   C1563     1.0  0.55621  0.02179  0.92590  1.0000
  H   H2518     1.0  0.52951  0.14523  0.90272  1.0000
  H   H2519     1.0  0.62619  0.19396  0.81670  1.0000
  C   C1564     1.0  0.56915  0.15383  0.89874  1.0000
  C   C1565     1.0  0.56848  0.17154  0.89218  1.0000
  C   C1566     1.0  0.56466  0.17714  0.87999  1.0000
  C   C1567     1.0  0.56188  0.16493  0.87422  1.0000
  C   C1568     1.0  0.56296  0.14713  0.88065  1.0000
  C   C1569     1.0  0.56648  0.14161  0.89291  1.0000
  C   C1570     1.0  0.51641  0.17387  0.88609  1.0000
  Fe  Fe314     1.0  0.51896  0.23101  0.84381  1.0000
  H   H2520     1.0  0.51184  0.11106  0.91468  1.0000
  H   H2521     1.0  0.59670  0.22997  0.82512  1.0000
  H   H2522     1.0  0.50806  0.05744  0.90791  1.0000
  S   S627      1.0  0.70144  0.24114  0.77682  1.0000
  C   C1571     1.0  0.54690  0.11864  0.98625  1.0000
  C   C1572     1.0  0.60481  0.01107  0.93104  1.0000
  H   H2523     1.0  0.58771  0.99891  0.96265  1.0000
  H   H2524     1.0  0.55733  0.08051  0.96946  1.0000
  H   H2525     1.0  0.55535  0.05889  0.96903  1.0000
  H   H2526     1.0  0.53145  0.16501  0.90644  1.0000
  H   H2527     1.0  0.51569  0.15221  0.91682  1.0000
  N   N157      1.0  0.50782  0.16768  0.89948  1.0000
  H   H2528     1.0  0.68498  0.23294  0.74040  1.0000
  H   H2529     1.0  0.57707  0.01556  0.95113  1.0000
  C   C1573     1.0  0.59035  0.00809  0.95324  1.0000
  H   H2530     1.0  0.56776  0.03247  0.98412  1.0000
  S   S628      1.0  0.55556  0.00260  0.98315  1.0000
  H   H2531     1.0  0.59717  0.01796  0.95422  1.0000
  H   H2532     1.0  0.59215  0.01911  0.92822  1.0000
  N   N158      1.0  0.56698  0.05951  0.98416  1.0000
  C   C1574     1.0  0.57604  0.04053  0.98576  1.0000
  H   H2533     1.0  0.50700  0.19181  0.90481  1.0000
  H   H2534     1.0  0.50173  0.12608  0.96032  1.0000
  C   C1575     1.0  0.50166  0.01946  0.92953  1.0000
  C   C1576     1.0  0.57830  0.06975  0.98652  1.0000
  H   H2535     1.0  0.65299  0.33331  0.14307  1.0000
  C   C1577     1.0  0.87340  0.45414  0.00075  1.0000
  H   H2536     1.0  0.83657  0.47873  0.98933  1.0000
  C   C1578     1.0  0.53460  0.36162  0.10393  1.0000
  Fe  Fe315     1.0  0.93328  0.45456  0.02150  1.0000
  S   S629      1.0  0.94057  0.46935  0.00156  1.0000
  S   S630      1.0  0.91764  0.47889  0.02918  1.0000
  C   C1579     1.0  0.76431  0.33341  0.23358  1.0000
  Fe  Fe316     1.0  0.91534  0.46516  0.99886  1.0000
  H   H2537     1.0  0.94314  0.43087  0.99989  1.0000
  C   C1580     1.0  0.97869  0.42624  0.99668  1.0000
  S   S631      1.0  0.90922  0.44798  0.01826  1.0000
  Fe  Fe317     1.0  0.78074  0.45270  0.10810  1.0000
  S   S632      1.0  0.76833  0.46184  0.12633  1.0000
  S   S633      1.0  0.76578  0.44128  0.09900  1.0000
  Fe  Fe318     1.0  0.81644  0.46193  0.10536  1.0000
  S   S634      1.0  0.80703  0.47141  0.12369  1.0000
  S   S635      1.0  0.84479  0.46409  0.09472  1.0000
  Fe  Fe319     1.0  0.79477  0.44747  0.13151  1.0000
  S   S636      1.0  0.79338  0.43274  0.15184  1.0000
  H   H2538     1.0  0.86799  0.48756  0.09807  1.0000
  H   H2539     1.0  0.66274  0.31547  0.11389  1.0000
  S   S637      1.0  0.80638  0.43656  0.11385  1.0000
  S   S638      1.0  0.79175  0.47710  0.09802  1.0000
  S   S639      1.0  0.64065  0.27342  0.19483  1.0000
  S   S640      1.0  0.58802  0.28477  0.20041  1.0000
  Fe  Fe320     1.0  0.66791  0.47474  0.12811  1.0000
  H   H2540     1.0  0.52733  0.36945  0.07421  1.0000
  S   S641      1.0  0.68174  0.46948  0.10876  1.0000
  Fe  Fe321     1.0  0.63166  0.47469  0.14621  1.0000
  H   H2541     1.0  0.81268  0.32061  0.22024  1.0000
  S   S642      1.0  0.60478  0.46763  0.14882  1.0000
  C   C1581     1.0  0.99569  0.46620  0.03131  1.0000
  Fe  Fe322     1.0  0.66516  0.46815  0.15628  1.0000
  S   S643      1.0  0.67909  0.45285  0.17209  1.0000
  C   C1582     1.0  0.74463  0.27627  0.21219  1.0000
  S   S644      1.0  0.65731  0.45423  0.14432  1.0000
  Fe  Fe323     1.0  0.57306  0.35186  0.13512  1.0000
  S   S645      1.0  0.54555  0.35604  0.14755  1.0000
  S   S646      1.0  0.58663  0.32569  0.12947  1.0000
  Fe  Fe324     1.0  0.57766  0.38932  0.13338  1.0000
  S   S647      1.0  0.55010  0.39681  0.14533  1.0000
  S   S648      1.0  0.60020  0.40441  0.12649  1.0000
  Fe  Fe325     1.0  0.55700  0.36961  0.15752  1.0000
  S   S649      1.0  0.55173  0.36402  0.17877  1.0000
  Fe  Fe326     1.0  0.54099  0.38253  0.13411  1.0000
  S   S650      1.0  0.51611  0.39363  0.12569  1.0000
  S   S651      1.0  0.58508  0.36305  0.14635  1.0000
  S   S652      1.0  0.56809  0.37745  0.12095  1.0000
  Fe  Fe327     1.0  0.77671  0.34501  0.17298  1.0000
  S   S653      1.0  0.75669  0.36746  0.18061  1.0000
  S   S654      1.0  0.80472  0.34921  0.16379  1.0000
  Fe  Fe328     1.0  0.74835  0.32258  0.17886  1.0000
  S   S655      1.0  0.72632  0.34365  0.18656  1.0000
  S   S656      1.0  0.74132  0.29684  0.17971  1.0000
  Fe  Fe329     1.0  0.73901  0.36243  0.16994  1.0000
  S   S657      1.0  0.72686  0.38319  0.15494  1.0000
  Fe  Fe330     1.0  0.74668  0.34587  0.19631  1.0000
  S   S658      1.0  0.53640  0.24938  0.13375  1.0000
  S   S659      1.0  0.75957  0.34107  0.16145  1.0000
  S   S660      1.0  0.76817  0.32373  0.18950  1.0000
  H   H2542     1.0  0.61379  0.26521  0.12500  1.0000
  H   H2543     1.0  0.75506  0.28208  0.20456  1.0000
  H   H2544     1.0  0.73514  0.31160  0.20540  1.0000
  C   C1583     1.0  0.72420  0.44842  0.18011  1.0000
  H   H2545     1.0  0.65501  0.29338  0.14799  1.0000
  H   H2546     1.0  0.75435  0.40914  0.18489  1.0000
  H   H2547     1.0  0.73926  0.42092  0.19657  1.0000
  H   H2548     1.0  0.51899  0.33521  0.10354  1.0000
  C   C1584     1.0  0.50402  0.36235  0.13487  1.0000
  H   H2549     1.0  0.72343  0.46104  0.17281  1.0000
  H   H2550     1.0  0.73602  0.48784  0.11566  1.0000
  C   C1585     1.0  0.81127  0.31657  0.21185  1.0000
  C   C1586     1.0  0.60956  0.25481  0.13282  1.0000
  C   C1587     1.0  0.71360  0.40228  0.15999  1.0000
  C   C1588     1.0  0.70864  0.41741  0.15088  1.0000
  C   C1589     1.0  0.69810  0.43295  0.15466  1.0000
  C   C1590     1.0  0.69232  0.43332  0.16754  1.0000
  C   C1591     1.0  0.69743  0.41823  0.17668  1.0000
  C   C1592     1.0  0.70820  0.40268  0.17290  1.0000
  H   H2551     1.0  0.71291  0.41711  0.14089  1.0000
  H   H2552     1.0  0.69448  0.44466  0.14758  1.0000
  H   H2553     1.0  0.69284  0.41849  0.18667  1.0000
  H   H2554     1.0  0.71198  0.39091  0.17993  1.0000
  C   C1593     1.0  0.60346  0.44884  0.14394  1.0000
  C   C1594     1.0  0.58666  0.44669  0.14343  1.0000
  C   C1595     1.0  0.58537  0.43275  0.13848  1.0000
  C   C1596     1.0  0.60092  0.42089  0.13401  1.0000
  C   C1597     1.0  0.61763  0.42267  0.13493  1.0000
  C   C1598     1.0  0.61890  0.43650  0.13996  1.0000
  H   H2555     1.0  0.57464  0.45615  0.14652  1.0000
  H   H2556     1.0  0.57241  0.43154  0.13777  1.0000
  H   H2557     1.0  0.62968  0.41336  0.13166  1.0000
  H   H2558     1.0  0.63186  0.43777  0.14053  1.0000
  C   C1599     1.0  0.72022  0.30010  0.17603  1.0000
  C   C1600     1.0  0.71147  0.31706  0.17066  1.0000
  H   H2559     1.0  0.68866  0.27709  0.17795  1.0000
  H   H2560     1.0  0.71783  0.32822  0.16842  1.0000
  H   H2561     1.0  0.75133  0.26349  0.21759  1.0000
  C   C1601     1.0  0.57797  0.30678  0.19437  1.0000
  C   C1602     1.0  0.58057  0.31352  0.18127  1.0000
  C   C1603     1.0  0.57215  0.33093  0.17646  1.0000
  C   C1604     1.0  0.56149  0.34189  0.18475  1.0000
  C   C1605     1.0  0.55884  0.33519  0.19787  1.0000
  C   C1606     1.0  0.56687  0.31757  0.20266  1.0000
  H   H2562     1.0  0.58853  0.30511  0.17482  1.0000
  H   H2563     1.0  0.57384  0.33577  0.16635  1.0000
  H   H2564     1.0  0.55047  0.34357  0.20432  1.0000
  H   H2565     1.0  0.56469  0.31237  0.21281  1.0000
  N   N159      1.0  0.73437  0.28871  0.22059  1.0000
  H   H2566     1.0  0.56908  0.27944  0.18035  1.0000
  H   H2567     1.0  0.56771  0.39280  0.16753  1.0000
  H   H2568     1.0  0.76535  0.36647  0.20705  1.0000
  C   C1607     1.0  0.54900  0.30251  0.11711  1.0000
  C   C1608     1.0  0.54256  0.31812  0.12177  1.0000
  C   C1609     1.0  0.55418  0.32540  0.12535  1.0000
  C   C1610     1.0  0.57221  0.31686  0.12460  1.0000
  C   C1611     1.0  0.57858  0.30090  0.12030  1.0000
  C   C1612     1.0  0.56696  0.29369  0.11658  1.0000
  H   H2569     1.0  0.52851  0.32453  0.12274  1.0000
  H   H2570     1.0  0.54912  0.33762  0.12870  1.0000
  H   H2571     1.0  0.59252  0.29420  0.11974  1.0000
  H   H2572     1.0  0.57200  0.28154  0.11305  1.0000
  C   C1613     1.0  0.79899  0.40935  0.15511  1.0000
  C   C1614     1.0  0.79361  0.40007  0.16754  1.0000
  C   C1615     1.0  0.79595  0.38156  0.17026  1.0000
  C   C1616     1.0  0.80414  0.37209  0.16064  1.0000
  C   C1617     1.0  0.81074  0.38118  0.14837  1.0000
  C   C1618     1.0  0.80796  0.39984  0.14556  1.0000
  H   H2573     1.0  0.78737  0.40716  0.17510  1.0000
  H   H2574     1.0  0.79135  0.37460  0.17983  1.0000
  H   H2575     1.0  0.81742  0.37384  0.14095  1.0000
  H   H2576     1.0  0.81267  0.40686  0.13603  1.0000
  C   C1619     1.0  0.74237  0.44877  0.10223  1.0000
  C   C1620     1.0  0.73283  0.45249  0.11406  1.0000
  C   C1621     1.0  0.71406  0.45837  0.11633  1.0000
  C   C1622     1.0  0.70492  0.46077  0.10669  1.0000
  C   C1623     1.0  0.71447  0.45687  0.09495  1.0000
  C   C1624     1.0  0.73311  0.45069  0.09278  1.0000
  H   H2577     1.0  0.73980  0.45046  0.12155  1.0000
  H   H2578     1.0  0.70669  0.46106  0.12549  1.0000
  H   H2579     1.0  0.70746  0.45866  0.08750  1.0000
  H   H2580     1.0  0.74042  0.44767  0.08367  1.0000
  C   C1625     1.0  0.68399  0.24373  0.20144  1.0000
  H   H2581     1.0  0.72182  0.45177  0.18953  1.0000
  H   H2582     1.0  0.58682  0.28566  0.14563  1.0000
  H   H2583     1.0  0.79691  0.32131  0.21114  1.0000
  C   C1626     1.0  0.74450  0.43247  0.16447  1.0000
  C   C1627     1.0  0.96560  0.46262  0.03299  1.0000
  C   C1628     1.0  0.85968  0.47376  0.05123  1.0000
  C   C1629     1.0  0.84172  0.47429  0.05765  1.0000
  C   C1630     1.0  0.83701  0.47113  0.07099  1.0000
  C   C1631     1.0  0.85024  0.46761  0.07799  1.0000
  C   C1632     1.0  0.86818  0.46723  0.07155  1.0000
  C   C1633     1.0  0.87292  0.47019  0.05822  1.0000
  Fe  Fe331     1.0  0.78161  0.48486  0.11689  1.0000
  H   H2584     1.0  0.82317  0.47142  0.07584  1.0000
  H   H2585     1.0  0.87850  0.46444  0.07690  1.0000
  H   H2586     1.0  0.59329  0.24807  0.12285  1.0000
  H   H2587     1.0  0.55001  0.30802  0.15283  1.0000
  H   H2588     1.0  0.66926  0.32932  0.12137  1.0000
  H   H2589     1.0  0.73931  0.30237  0.23302  1.0000
  H   H2590     1.0  0.55621  0.30085  0.17438  1.0000
  Fe  Fe332     1.0  0.61526  0.27581  0.18866  1.0000
  H   H2591     1.0  0.58121  0.30226  0.15489  1.0000
  N   N160      1.0  0.64855  0.31581  0.13314  1.0000
  H   H2592     1.0  0.85659  0.48577  0.98848  1.0000
  H   H2593     1.0  0.54607  0.28192  0.17973  1.0000
  C   C1634     1.0  0.82198  0.31731  0.18941  1.0000
  C   C1635     1.0  0.57945  0.39914  0.16476  1.0000
  H   H2594     1.0  0.80395  0.34820  0.19615  1.0000
  C   C1636     1.0  0.84571  0.46923  0.01233  1.0000
  H   H2595     1.0  0.74512  0.44485  0.15701  1.0000
  H   H2596     1.0  0.88014  0.46517  0.99960  1.0000
  H   H2597     1.0  0.81918  0.34904  0.20524  1.0000
  H   H2598     1.0  0.55467  0.29049  0.14445  1.0000
  H   H2599     1.0  0.99735  0.46202  0.98778  1.0000
  H   H2600     1.0  0.83925  0.48657  0.11343  1.0000
  H   H2601     1.0  0.97152  0.48466  0.03743  1.0000
  S   S661      1.0  0.62471  0.29053  0.16903  1.0000
  H   H2602     1.0  0.97989  0.41540  0.00527  1.0000
  H   H2603     1.0  0.54053  0.33431  0.09294  1.0000
  H   H2604     1.0  0.82602  0.30256  0.19103  1.0000
  N   N161      1.0  0.59186  0.39097  0.17351  1.0000
  C   C1637     1.0  0.59984  0.37230  0.17244  1.0000
  C   C1638     1.0  0.58181  0.39145  0.18667  1.0000
  C   C1639     1.0  0.60628  0.40099  0.17015  1.0000
  H   H2605     1.0  0.58619  0.39773  0.15489  1.0000
  H   H2606     1.0  0.60916  0.36564  0.17900  1.0000
  H   H2607     1.0  0.60754  0.37142  0.16263  1.0000
  H   H2608     1.0  0.59074  0.38546  0.19357  1.0000
  H   H2609     1.0  0.57542  0.40533  0.18779  1.0000
  H   H2610     1.0  0.61588  0.39532  0.17659  1.0000
  H   H2611     1.0  0.60074  0.41522  0.17068  1.0000
  H   H2612     1.0  0.61409  0.40078  0.16027  1.0000
  C   C1640     1.0  0.61627  0.46880  0.11218  1.0000
  C   C1641     1.0  0.50627  0.36991  0.09746  1.0000
  Fe  Fe333     1.0  0.54094  0.26510  0.11384  1.0000
  C   C1642     1.0  0.71199  0.28567  0.17855  1.0000
  C   C1643     1.0  0.97708  0.47232  0.03421  1.0000
  C   C1644     1.0  0.64131  0.47991  0.09747  1.0000
  H   H2613     1.0  0.83064  0.32289  0.18035  1.0000
  H   H2614     1.0  0.64358  0.48573  0.10472  1.0000
  H   H2615     1.0  0.71591  0.30231  0.20831  1.0000
  H   H2616     1.0  0.63194  0.34029  0.13793  1.0000
  N   N162      1.0  0.82335  0.32393  0.20015  1.0000
  C   C1645     1.0  0.64624  0.45046  0.11063  1.0000
  H   H2617     1.0  0.88681  0.46969  0.05338  1.0000
  C   C1646     1.0  0.69673  0.24751  0.20632  1.0000
  H   H2618     1.0  0.71752  0.31498  0.21898  1.0000
  C   C1647     1.0  0.69493  0.28826  0.17596  1.0000
  H   H2619     1.0  0.95129  0.46740  0.03547  1.0000
  C   C1648     1.0  0.74145  0.41893  0.18676  1.0000
  H   H2620     1.0  0.61793  0.47375  0.12011  1.0000
  H   H2621     1.0  0.67761  0.25380  0.19449  1.0000
  S   S662      1.0  0.52326  0.25278  0.10793  1.0000
  H   H2622     1.0  0.64796  0.45522  0.11861  1.0000
  H   H2623     1.0  0.67299  0.30448  0.14001  1.0000
  S   S663      1.0  0.86501  0.47788  0.03447  1.0000
  H   H2624     1.0  0.52038  0.34090  0.08681  1.0000
  S   S664      1.0  0.62320  0.24920  0.18339  1.0000
  Fe  Fe334     1.0  0.65102  0.28585  0.17453  1.0000
  H   H2625     1.0  0.97154  0.43863  0.00009  1.0000
  H   H2626     1.0  0.51635  0.35672  0.13815  1.0000
  N   N163      1.0  0.85394  0.46075  0.00130  1.0000
  Fe  Fe335     1.0  0.63471  0.26382  0.16408  1.0000
  H   H2627     1.0  0.75693  0.29973  0.21930  1.0000
  S   S665      1.0  0.63092  0.26298  0.14505  1.0000
  C   C1649     1.0  0.66144  0.30037  0.13856  1.0000
  H   H2628     1.0  0.63504  0.32226  0.15128  1.0000
  H   H2629     1.0  0.62143  0.46637  0.08795  1.0000
  C   C1650     1.0  0.61581  0.25101  0.14404  1.0000
  S   S666      1.0  0.66477  0.30897  0.16730  1.0000
  H   H2630     1.0  0.57097  0.26077  0.15257  1.0000
  C   C1651     1.0  0.78364  0.35947  0.21966  1.0000
  H   H2631     1.0  0.84764  0.43547  0.01139  1.0000
  H   H2632     1.0  0.88011  0.44753  0.99259  1.0000
  H   H2633     1.0  0.53754  0.29062  0.15868  1.0000
  H   H2634     1.0  0.55349  0.25954  0.16662  1.0000
  C   C1652     1.0  0.74671  0.29311  0.22654  1.0000
  H   H2635     1.0  0.65460  0.47667  0.09099  1.0000
  H   H2636     1.0  0.82667  0.34956  0.18849  1.0000
  N   N164      1.0  0.77076  0.39352  0.12644  1.0000
  C   C1653     1.0  0.78774  0.39599  0.11728  1.0000
  C   C1654     1.0  0.76475  0.40743  0.13401  1.0000
  C   C1655     1.0  0.77374  0.37578  0.13493  1.0000
  C   C1656     1.0  0.75678  0.39486  0.11955  1.0000
  H   H2637     1.0  0.79263  0.38576  0.11139  1.0000
  H   H2638     1.0  0.79851  0.39511  0.12222  1.0000
  H   H2639     1.0  0.78604  0.40921  0.11069  1.0000
  H   H2640     1.0  0.77478  0.40673  0.13950  1.0000
  H   H2641     1.0  0.76258  0.42095  0.12781  1.0000
  H   H2642     1.0  0.75188  0.40600  0.14094  1.0000
  H   H2643     1.0  0.76114  0.37326  0.14170  1.0000
  H   H2644     1.0  0.78367  0.37442  0.14067  1.0000
  H   H2645     1.0  0.77867  0.36497  0.12953  1.0000
  H   H2646     1.0  0.75419  0.40809  0.11305  1.0000
  H   H2647     1.0  0.74380  0.39307  0.12627  1.0000
  H   H2648     1.0  0.76077  0.38456  0.11375  1.0000
  H   H2649     1.0  0.73351  0.42689  0.16366  1.0000
  H   H2650     1.0  0.85173  0.48065  0.01162  1.0000
  H   H2651     1.0  0.75736  0.42279  0.16217  1.0000
  H   H2652     1.0  0.83140  0.47704  0.05232  1.0000
  N   N165      1.0  0.74158  0.43589  0.17729  1.0000
  C   C1657     1.0  0.84563  0.44570  0.00262  1.0000
  C   C1658     1.0  0.76919  0.35763  0.21551  1.0000
  C   C1659     1.0  0.64182  0.32853  0.14168  1.0000
  H   H2653     1.0  0.71278  0.44271  0.18036  1.0000
  H   H2654     1.0  0.60664  0.47942  0.10721  1.0000
  S   S667      1.0  0.74109  0.34256  0.21745  1.0000
  C   C1660     1.0  0.84204  0.31836  0.20196  1.0000
  H   H2655     1.0  0.80800  0.32126  0.18787  1.0000
  H   H2656     1.0  0.64829  0.33645  0.11627  1.0000
  C   C1661     1.0  0.65763  0.32466  0.12060  1.0000
  H   H2657     1.0  0.71136  0.27678  0.22642  1.0000
  H   H2658     1.0  0.62373  0.32094  0.12711  1.0000
  H   H2659     1.0  0.83091  0.45017  0.00312  1.0000
  H   H2660     1.0  0.73058  0.41266  0.18657  1.0000
  C   C1662     1.0  0.85109  0.47392  0.98950  1.0000
  C   C1663     1.0  0.97257  0.44654  0.02903  1.0000
  C   C1664     1.0  0.72085  0.28036  0.23058  1.0000
  S   S668      1.0  0.80837  0.34945  0.23446  1.0000
  H   H2661     1.0  0.64144  0.43786  0.11470  1.0000
  H   H2662     1.0  0.53343  0.38388  0.08142  1.0000
  H   H2663     1.0  0.63788  0.29950  0.12577  1.0000
  H   H2664     1.0  0.73570  0.27300  0.20736  1.0000
  H   H2665     1.0  0.59269  0.28007  0.16081  1.0000
  H   H2666     1.0  0.58930  0.36441  0.17480  1.0000
  H   H2667     1.0  0.57090  0.38387  0.18945  1.0000
  H   H2668     1.0  0.75430  0.44673  0.18731  1.0000
  H   H2669     1.0  0.66679  0.29048  0.13239  1.0000
  Fe  Fe336     1.0  0.89413  0.47368  0.02423  1.0000
  H   H2670     1.0  0.98202  0.39472  0.99134  1.0000
  C   C1665     1.0  0.68612  0.30527  0.17072  1.0000
  C   C1666     1.0  0.99125  0.44010  0.02635  1.0000
  C   C1667     1.0  0.75616  0.44377  0.17783  1.0000
  H   H2671     1.0  0.57411  0.41356  0.16465  1.0000
  S   S669      1.0  0.53448  0.29482  0.11150  1.0000
  C   C1668     1.0  0.55875  0.28640  0.17458  1.0000
  H   H2672     1.0  0.68782  0.33279  0.16387  1.0000
  H   H2673     1.0  0.53418  0.37559  0.10412  1.0000
  C   C1669     1.0  0.81807  0.34355  0.19740  1.0000
  C   C1670     1.0  0.69449  0.31962  0.16799  1.0000
  C   C1671     1.0  0.78892  0.34789  0.23050  1.0000
  H   H2674     1.0  0.85155  0.43907  0.99440  1.0000
  H   H2675     1.0  0.64373  0.45265  0.08687  1.0000
  H   H2676     1.0  0.60979  0.45719  0.11652  1.0000
  C   C1672     1.0  0.75939  0.34470  0.22253  1.0000
  H   H2677     1.0  0.54841  0.36309  0.07912  1.0000
  H   H2678     1.0  0.84345  0.32327  0.20999  1.0000
  N   N166      1.0  0.56459  0.28291  0.16161  1.0000
  C   C1673     1.0  0.56645  0.26381  0.16223  1.0000
  H   H2679     1.0  0.62562  0.30365  0.14099  1.0000
  C   C1674     1.0  0.58208  0.28793  0.15549  1.0000
  H   H2680     1.0  0.71880  0.27250  0.18256  1.0000
  N   N167      1.0  0.52532  0.36081  0.09436  1.0000
  N   N168      1.0  0.96909  0.42240  0.98844  1.0000
  C   C1675     1.0  0.55108  0.29348  0.15408  1.0000
  H   H2681     1.0  0.50488  0.38389  0.09814  1.0000
  H   H2682     1.0  0.98026  0.46543  0.00177  1.0000
  H   H2683     1.0  0.84783  0.45977  0.02141  1.0000
  C   C1676     1.0  0.63085  0.45656  0.09356  1.0000
  H   H2684     1.0  0.75694  0.45632  0.17055  1.0000
  S   S670      1.0  0.95787  0.43512  0.02683  1.0000
  S   S671      1.0  0.66202  0.26018  0.16797  1.0000
  H   H2685     1.0  0.76947  0.43467  0.17594  1.0000
  H   H2686     1.0  0.84644  0.30362  0.20416  1.0000
  H   H2687     1.0  0.81433  0.30179  0.21393  1.0000
  C   C1677     1.0  0.63331  0.30973  0.13167  1.0000
  N   N169      1.0  0.63366  0.46394  0.10346  1.0000
  H   H2688     1.0  0.52812  0.35546  0.11362  1.0000
  H   H2689     1.0  0.85154  0.32366  0.19331  1.0000
  H   H2690     1.0  0.57647  0.25542  0.16790  1.0000
  C   C1678     1.0  0.72525  0.30512  0.21303  1.0000
  C   C1679     1.0  0.52639  0.34203  0.09438  1.0000
  C   C1680     1.0  0.53401  0.36971  0.08170  1.0000
  H   H2691     1.0  0.79096  0.36973  0.21434  1.0000
  H   H2692     1.0  0.99675  0.42761  0.02331  1.0000
  H   H2693     1.0  0.71624  0.48994  0.12807  1.0000
  H   H2694     1.0  0.83100  0.47434  0.01314  1.0000
  Fe  Fe337     1.0  0.64963  0.24787  0.18791  1.0000
  H   H2695     1.0  0.50364  0.28710  0.13212  1.0000
  H   H2696     1.0  0.69992  0.26055  0.20316  1.0000
  S   S672      1.0  0.67851  0.48658  0.13978  1.0000
  H   H2697     1.0  0.50859  0.24557  0.07155  1.0000
  H   H2698     1.0  0.65982  0.44722  0.10450  1.0000
  S   S673      1.0  0.63862  0.48730  0.15952  1.0000
  N   N170      1.0  0.99101  0.48837  0.99123  1.0000
  H   H2699     1.0  0.63227  0.49040  0.09192  1.0000
  H   H2700     1.0  0.87609  0.44436  0.00956  1.0000
  S   S674      1.0  0.89873  0.49042  0.00446  1.0000
  H   H2701     1.0  0.75384  0.28099  0.23233  1.0000
  H   H2702     1.0  0.94351  0.41654  0.98994  1.0000
  H   H2703     1.0  0.51138  0.24983  0.08566  1.0000
  H   H2704     1.0  0.54893  0.35454  0.10215  1.0000
  C   C1681     1.0  0.95134  0.41916  0.99589  1.0000
  H   H2705     1.0  0.62502  0.44449  0.09784  1.0000
  S   S675      1.0  0.56620  0.24645  0.10657  1.0000
  H   H2706     1.0  0.95264  0.40763  0.00405  1.0000
  C   C1682     1.0  0.59796  0.24510  0.13158  1.0000
  C   C1683     1.0  0.99305  0.46896  0.99582  1.0000
  H   H2707     1.0  0.99251  0.42784  0.99164  1.0000
  H   H2708     1.0  0.72738  0.26794  0.23641  1.0000
  H   H2709     1.0  0.96508  0.49152  0.98732  1.0000
  H   H2710     1.0  0.87370  0.30963  0.27625  1.0000
  S   S676      1.0  0.90192  0.42234  0.42331  1.0000
  Fe  Fe338     1.0  0.94720  0.42386  0.39942  1.0000
  S   S677      1.0  0.93973  0.39819  0.41038  1.0000
  S   S678      1.0  0.97468  0.42455  0.38745  1.0000
  Fe  Fe339     1.0  0.91277  0.41094  0.40565  1.0000
  S   S679      1.0  0.89835  0.39356  0.40085  1.0000
  Fe  Fe340     1.0  0.92984  0.41157  0.42692  1.0000
  S   S680      1.0  0.93954  0.39890  0.44509  1.0000
  S   S681      1.0  0.92122  0.43568  0.39313  1.0000
  S   S682      1.0  0.93941  0.43630  0.41630  1.0000
  H   H2711     1.0  0.89842  0.45057  0.45977  1.0000
  H   H2712     1.0  0.89954  0.31305  0.29135  1.0000
  C   C1684     1.0  0.85526  0.41563  0.30624  1.0000
  S   S683      1.0  0.73778  0.26959  0.26085  1.0000
  C   C1685     1.0  0.96951  0.36033  0.37012  1.0000
  Fe  Fe341     1.0  0.82219  0.29064  0.26594  1.0000
  S   S684      1.0  0.83282  0.30047  0.24518  1.0000
  S   S685      1.0  0.81183  0.26538  0.27406  1.0000
  Fe  Fe342     1.0  0.83304  0.31891  0.27411  1.0000
  S   S686      1.0  0.84465  0.33129  0.25412  1.0000
  S   S687      1.0  0.83287  0.32547  0.29261  1.0000
  Fe  Fe343     1.0  0.82022  0.32761  0.24933  1.0000
  H   H2713     1.0  0.83644  0.29156  0.31109  1.0000
  Fe  Fe344     1.0  0.85623  0.30336  0.25145  1.0000
  H   H2714     1.0  0.87344  0.46461  0.38182  1.0000
  S   S688      1.0  0.80737  0.31759  0.26969  1.0000
  S   S689      1.0  0.84686  0.29120  0.27184  1.0000
  Fe  Fe345     1.0  0.90610  0.36113  0.33914  1.0000
  S   S690      1.0  0.92334  0.36290  0.31944  1.0000
  S   S691      1.0  0.89845  0.38742  0.34542  1.0000
  Fe  Fe346     1.0  0.90676  0.32203  0.34166  1.0000
  S   S692      1.0  0.92377  0.32118  0.32224  1.0000
  S   S693      1.0  0.90233  0.29485  0.35212  1.0000
  Fe  Fe347     1.0  0.93944  0.33659  0.32736  1.0000
  S   S694      1.0  0.96933  0.32775  0.32496  1.0000
  Fe  Fe348     1.0  0.90576  0.34733  0.31627  1.0000
  S   S695      1.0  0.89701  0.35474  0.29754  1.0000
  S   S696      1.0  0.92367  0.33584  0.34730  1.0000
  S   S697      1.0  0.88725  0.34725  0.33542  1.0000
  H   H2715     1.0  0.78324  0.32583  0.24585  1.0000
  H   H2716     1.0  0.92034  0.47404  0.44765  1.0000
  H   H2717     1.0  0.98118  0.39096  0.36337  1.0000
  H   H2718     1.0  0.95071  0.37019  0.39184  1.0000
  H   H2719     1.0  0.87693  0.27926  0.28915  1.0000
  C   C1686     1.0  0.97738  0.34358  0.32875  1.0000
  C   C1687     1.0  0.97062  0.36176  0.32473  1.0000
  C   C1688     1.0  0.97741  0.37432  0.32767  1.0000
  H   H2720     1.0  0.95511  0.47156  0.43310  1.0000
  H   H2721     1.0  0.93275  0.41769  0.48480  1.0000
  H   H2722     1.0  0.99327  0.45801  0.43682  1.0000
  H   H2723     1.0  0.96045  0.36616  0.31913  1.0000
  H   H2724     1.0  0.97238  0.38837  0.32436  1.0000
  H   H2725     1.0  0.95977  0.29151  0.33005  1.0000
  C   C1689     1.0  0.98613  0.46633  0.40285  1.0000
  H   H2726     1.0  0.93805  0.25324  0.25213  1.0000
  H   H2727     1.0  0.91009  0.46080  0.43403  1.0000
  H   H2728     1.0  0.92521  0.28012  0.28283  1.0000
  H   H2729     1.0  0.84243  0.25197  0.31146  1.0000
  H   H2730     1.0  0.87383  0.45263  0.41620  1.0000
  H   H2731     1.0  0.93597  0.26490  0.35904  1.0000
  C   C1690     1.0  0.85024  0.33441  0.29381  1.0000
  C   C1691     1.0  0.86110  0.34279  0.28306  1.0000
  C   C1692     1.0  0.87528  0.34916  0.28434  1.0000
  C   C1693     1.0  0.87884  0.34696  0.29634  1.0000
  C   C1694     1.0  0.86784  0.33879  0.30711  1.0000
  C   C1695     1.0  0.85340  0.33280  0.30585  1.0000
  H   H2732     1.0  0.85855  0.34439  0.27376  1.0000
  H   H2733     1.0  0.88365  0.35563  0.27597  1.0000
  H   H2734     1.0  0.87045  0.33702  0.31641  1.0000
  H   H2735     1.0  0.84490  0.32651  0.31421  1.0000
  C   C1696     1.0  0.88502  0.39698  0.30409  1.0000
  H   H2736     1.0  0.95881  0.47993  0.40211  1.0000
  C   C1697     1.0  0.95965  0.45705  0.43679  1.0000
  H   H2737     1.0  0.85470  0.47039  0.41500  1.0000
  H   H2738     1.0  0.95898  0.45800  0.46712  1.0000
  C   C1698     1.0  0.86673  0.39910  0.32493  1.0000
  C   C1699     1.0  0.88124  0.27285  0.32669  1.0000
  C   C1700     1.0  0.89278  0.26134  0.33434  1.0000
  H   H2739     1.0  0.85490  0.41581  0.29633  1.0000
  H   H2740     1.0  0.88553  0.39611  0.29423  1.0000
  C   C1701     1.0  0.89420  0.28620  0.34245  1.0000
  C   C1702     1.0  0.88298  0.29766  0.33459  1.0000
  H   H2741     1.0  0.84500  0.38469  0.31763  1.0000
  C   C1703     1.0  0.98258  0.46286  0.44465  1.0000
  H   H2742     1.0  0.89092  0.30234  0.26348  1.0000
  C   C1704     1.0  0.91135  0.47450  0.43107  1.0000
  H   H2743     1.0  0.87911  0.31168  0.33466  1.0000
  H   H2744     1.0  0.89279  0.31985  0.26991  1.0000
  H   H2745     1.0  0.92290  0.30251  0.27355  1.0000
  H   H2746     1.0  0.88015  0.30329  0.29775  1.0000
  C   C1705     1.0  0.75846  0.26839  0.26435  1.0000
  H   H2747     1.0  0.94193  0.40006  0.36133  1.0000
  H   H2748     1.0  0.92212  0.28098  0.23995  1.0000
  C   C1706     1.0  0.79133  0.26673  0.27019  1.0000
  C   C1707     1.0  0.78172  0.28296  0.26444  1.0000
  C   C1708     1.0  0.76519  0.28382  0.26167  1.0000
  N   N171      1.0  0.86110  0.45424  0.40112  1.0000
  H   H2749     1.0  0.99532  0.32392  0.33950  1.0000
  H   H2750     1.0  0.78688  0.29489  0.26227  1.0000
  H   H2751     1.0  0.75764  0.29643  0.25742  1.0000
  C   C1709     1.0  0.98002  0.44185  0.39154  1.0000
  H   H2752     1.0  0.97750  0.38331  0.38025  1.0000
  H   H2753     1.0  0.86076  0.42631  0.40732  1.0000
  H   H2754     1.0  0.94852  0.47510  0.45564  1.0000
  C   C1710     1.0  0.96956  0.46890  0.39971  1.0000
  C   C1711     1.0  0.96659  0.45676  0.39393  1.0000
  H   H2755     1.0  0.87503  0.38657  0.32941  1.0000
  C   C1712     1.0  0.80758  0.26348  0.32039  1.0000
  C   C1713     1.0  0.87627  0.29094  0.32692  1.0000
  H   H2756     1.0  0.95357  0.45858  0.39183  1.0000
  C   C1714     1.0  0.89963  0.39176  0.38522  1.0000
  C   C1715     1.0  0.90238  0.40583  0.37483  1.0000
  C   C1716     1.0  0.90219  0.40427  0.36264  1.0000
  C   C1717     1.0  0.89988  0.38845  0.36068  1.0000
  C   C1718     1.0  0.89783  0.37417  0.37101  1.0000
  C   C1719     1.0  0.89738  0.37595  0.38326  1.0000
  H   H2757     1.0  0.90412  0.41808  0.37622  1.0000
  H   H2758     1.0  0.90376  0.41537  0.35468  1.0000
  H   H2759     1.0  0.89589  0.36198  0.36964  1.0000
  H   H2760     1.0  0.89519  0.36503  0.39126  1.0000
  H   H2761     1.0  0.91179  0.43053  0.44470  1.0000
  H   H2762     1.0  0.85906  0.38283  0.30222  1.0000
  H   H2763     1.0  0.94599  0.39733  0.46968  1.0000
  C   C1720     1.0  0.97410  0.43439  0.45216  1.0000
  H   H2764     1.0  0.87265  0.41011  0.32520  1.0000
  H   H2765     1.0  0.97791  0.38618  0.40474  1.0000
  H   H2766     1.0  0.95400  0.25865  0.36737  1.0000
  N   N172      1.0  0.95876  0.37820  0.37156  1.0000
  H   H2767     1.0  0.88646  0.46207  0.39328  1.0000
  H   H2768     1.0  0.88264  0.43116  0.40197  1.0000
  C   C1721     1.0  0.95120  0.29270  0.35470  1.0000
  H   H2769     1.0  0.97516  0.36686  0.43900  1.0000
  C   C1722     1.0  0.95087  0.26176  0.35781  1.0000
  H   H2770     1.0  0.84117  0.41744  0.31182  1.0000
  H   H2771     1.0  0.98467  0.26015  0.34372  1.0000
  C   C1723     1.0  0.94477  0.37658  0.38335  1.0000
  C   C1724     1.0  0.97847  0.27215  0.34786  1.0000
  S   S698      1.0  0.89912  0.47515  0.41023  1.0000
  H   H2772     1.0  0.89107  0.40826  0.30357  1.0000
  H   H2773     1.0  0.80234  0.25603  0.31560  1.0000
  H   H2774     1.0  0.84296  0.45800  0.38895  1.0000
  H   H2775     1.0  0.97583  0.35336  0.37837  1.0000
  H   H2776     1.0  0.98055  0.36116  0.36155  1.0000
  H   H2777     1.0  0.79860  0.29636  0.30629  1.0000
  N   N173      1.0  0.96749  0.45371  0.44801  1.0000
  H   H2778     1.0  0.95611  0.24944  0.35397  1.0000
  C   C1725     1.0  0.88847  0.30698  0.27244  1.0000
  H   H2779     1.0  0.86052  0.42733  0.30598  1.0000
  H   H2780     1.0  0.86721  0.29980  0.32114  1.0000
  H   H2781     1.0  0.93647  0.38983  0.38479  1.0000
  C   C1726     1.0  0.95364  0.46053  0.45842  1.0000
  C   C1727     1.0  0.85903  0.38371  0.31199  1.0000
  C   C1728     1.0  0.97641  0.36840  0.42863  1.0000
  C   C1729     1.0  0.89159  0.27707  0.28493  1.0000
  C   C1730     1.0  0.84281  0.45945  0.39860  1.0000
  S   S699      1.0  0.88473  0.29599  0.24107  1.0000
  N   N174      1.0  0.86650  0.39886  0.31182  1.0000
  C   C1731     1.0  0.90887  0.43901  0.46195  1.0000
  H   H2782     1.0  0.96118  0.35180  0.36909  1.0000
  C   C1732     1.0  0.97057  0.38931  0.37220  1.0000
  C   C1733     1.0  0.86025  0.45635  0.41401  1.0000
  C   C1734     1.0  0.89474  0.30051  0.29335  1.0000
  H   H2783     1.0  0.86964  0.43327  0.39066  1.0000
  C   C1735     1.0  0.90672  0.48475  0.41973  1.0000
  C   C1736     1.0  0.91721  0.48203  0.43875  1.0000
  H   H2784     1.0  0.85183  0.44784  0.42143  1.0000
  C   C1737     1.0  0.98415  0.39703  0.42395  1.0000
  H   H2785     1.0  0.95434  0.29059  0.36416  1.0000
  H   H2786     1.0  0.94191  0.45415  0.46106  1.0000
  N   N175      1.0  0.89811  0.29371  0.28171  1.0000
  C   C1738     1.0  0.89907  0.26800  0.34237  1.0000
  N   N176      1.0  0.81989  0.27417  0.31112  1.0000
  C   C1739     1.0  0.91461  0.27151  0.24648  1.0000
  H   H2787     1.0  0.89390  0.27161  0.27640  1.0000
  C   C1740     1.0  0.99116  0.38069  0.40737  1.0000
  H   H2788     1.0  0.96039  0.38799  0.35150  1.0000
  C   C1741     1.0  0.91647  0.42771  0.45338  1.0000
  S   S700      1.0  0.90506  0.45045  0.48345  1.0000
  H   H2789     1.0  0.84523  0.26979  0.29797  1.0000
  C   C1742     1.0  0.82660  0.28386  0.31779  1.0000
  H   H2790     1.0  0.98469  0.28323  0.34149  1.0000
  H   H2791     1.0  0.97105  0.40416  0.42134  1.0000
  H   H2792     1.0  0.86737  0.47994  0.39227  1.0000
  H   H2793     1.0  0.90157  0.29069  0.30064  1.0000
  C   C1743     1.0  0.91756  0.29018  0.27610  1.0000
  C   C1744     1.0  0.93568  0.40901  0.46749  1.0000
  C   C1745     1.0  0.81018  0.28705  0.30173  1.0000
  H   H2794     1.0  0.98003  0.35489  0.42652  1.0000
  C   C1746     1.0  0.89589  0.27523  0.24837  1.0000
  C   C1747     1.0  0.92984  0.41269  0.45611  1.0000
  H   H2795     1.0  0.96288  0.40287  0.37339  1.0000
  C   C1748     1.0  0.95018  0.38656  0.36057  1.0000
  H   H2796     1.0  0.89388  0.38462  0.30818  1.0000
  N   N177      1.0  0.98980  0.37910  0.42105  1.0000
  N   N178      1.0  0.95874  0.27666  0.34927  1.0000
  H   H2797     1.0  0.89853  0.26670  0.29190  1.0000
  C   C1749     1.0  0.99075  0.36869  0.33478  1.0000
  C   C1750     1.0  0.92823  0.42050  0.47604  1.0000
  H   H2798     1.0  0.96306  0.42712  0.45450  1.0000
  H   H2799     1.0  0.85302  0.40057  0.33108  1.0000
  C   C1751     1.0  0.91470  0.43547  0.47328  1.0000
  H   H2800     1.0  0.92046  0.28501  0.26730  1.0000
  H   H2801     1.0  0.90779  0.25908  0.34841  1.0000
  H   H2802     1.0  0.86713  0.37087  0.31622  1.0000
  C   C1752     1.0  0.99999  0.45206  0.39969  1.0000
  C   C1753     1.0  0.95434  0.28012  0.33669  1.0000
  H   H2803     1.0  0.96280  0.37483  0.42675  1.0000
  C   C1754     1.0  0.83522  0.26228  0.30457  1.0000
  H   H2804     1.0  0.97978  0.43134  0.46076  1.0000
  H   H2805     1.0  0.98232  0.26933  0.35717  1.0000
  C   C1755     1.0  0.92361  0.25583  0.25336  1.0000
  Fe  Fe349     1.0  0.91263  0.44622  0.41110  1.0000
  H   H2806     1.0  0.87182  0.26537  0.25782  1.0000
  H   H2807     1.0  0.79584  0.27204  0.32551  1.0000
  H   H2808     1.0  0.81450  0.25358  0.32760  1.0000
  C   C1756     1.0  0.87254  0.46571  0.39168  1.0000
  H   H2809     1.0  0.94119  0.37854  0.35975  1.0000
  C   C1757     1.0  0.99049  0.33795  0.33601  1.0000
  H   H2810     1.0  0.93633  0.29642  0.35595  1.0000
  H   H2811     1.0  0.81908  0.29530  0.29462  1.0000
  H   H2812     1.0  0.96002  0.26829  0.33230  1.0000
  H   H2813     1.0  0.94788  0.45078  0.43904  1.0000
  H   H2814     1.0  0.81552  0.29349  0.32244  1.0000
  S   S701      1.0  0.99915  0.38437  0.33858  1.0000
  H   H2815     1.0  0.93552  0.36841  0.38314  1.0000
  C   C1758     1.0  0.78449  0.25137  0.27300  1.0000
  C   C1759     1.0  0.88623  0.26283  0.25666  1.0000
  C   C1760     1.0  0.86881  0.43548  0.40022  1.0000
  H   H2816     1.0  0.97804  0.47746  0.44129  1.0000
  H   H2817     1.0  0.93954  0.28337  0.33744  1.0000
  H   H2818     1.0  0.98239  0.39637  0.43426  1.0000
  S   S702      1.0  0.87265  0.26521  0.31673  1.0000
  H   H2819     1.0  0.83660  0.47355  0.39920  1.0000
  H   H2820     1.0  0.96960  0.45168  0.42886  1.0000
  H   H2821     1.0  0.80497  0.28026  0.29645  1.0000
  H   H2822     1.0  0.95668  0.30428  0.34845  1.0000
  H   H2823     1.0  0.99408  0.40541  0.41859  1.0000
  C   C1761     1.0  0.76824  0.25213  0.26990  1.0000
  H   H2824     1.0  0.98885  0.46068  0.45287  1.0000
  H   H2825     1.0  0.83385  0.45103  0.40557  1.0000
  H   H2826     1.0  0.64868  0.24616  0.26415  1.0000
  C   C1762     1.0  0.99699  0.35048  0.33915  1.0000
  H   H2827     1.0  0.89661  0.24732  0.33424  1.0000
  C   C1763     1.0  0.77926  0.33480  0.23746  1.0000
  C   C1764     1.0  0.89524  0.24714  0.26355  1.0000
  H   H2828     1.0  0.83081  0.25539  0.29890  1.0000
  H   H2829     1.0  0.98320  0.24611  0.29627  1.0000
  H   H2830     1.0  0.83361  0.27459  0.32518  1.0000
  H   H2831     1.0  0.75671  0.32344  0.23905  1.0000
  S   S703      1.0  0.98890  0.48025  0.41152  1.0000
  Fe  Fe350     1.0  0.73464  0.24301  0.25978  1.0000
  H   H2832     1.0  0.98481  0.42891  0.44460  1.0000
  H   H2833     1.0  0.91520  0.48789  0.47659  1.0000
  H   H2834     1.0  0.68081  0.24463  0.24064  1.0000
  C   C1765     1.0  0.99688  0.43978  0.39407  1.0000
  H   H2835     1.0  0.99576  0.48561  0.47962  1.0000
  H   H2836     1.0  0.71296  0.28931  0.23716  1.0000
  H   H2837     1.0  0.65748  0.25446  0.24085  1.0000
  H   H2838     1.0  0.99995  0.38994  0.40141  1.0000
  H   H2839     1.0  0.97113  0.24391  0.27836  1.0000
  H   H2840     1.0  0.99688  0.36766  0.40452  1.0000
  C   C1766     1.0  0.91389  0.24388  0.26215  1.0000
  C   C1767     1.0  0.88552  0.29578  0.67017  1.0000
  N   N179      1.0  0.71079  0.28644  0.71335  1.0000
  C   C1768     1.0  0.72734  0.27695  0.71802  1.0000
  S   S704      1.0  0.90488  0.41675  0.54651  1.0000
  S   S705      1.0  0.93227  0.42469  0.51206  1.0000
  C   C1769     1.0  0.80139  0.32804  0.72387  1.0000
  H   H2841     1.0  0.98812  0.41835  0.58723  1.0000
  N   N180      1.0  0.88433  0.39262  0.60942  1.0000
  S   S706      1.0  0.93489  0.46570  0.49744  1.0000
  H   H2842     1.0  0.68488  0.28159  0.71447  1.0000
  H   H2843     1.0  0.98416  0.28086  0.61584  1.0000
  C   C1770     1.0  0.98521  0.40504  0.59220  1.0000
  H   H2844     1.0  0.96009  0.41904  0.53216  1.0000
  N   N181      1.0  0.88601  0.27684  0.67121  1.0000
  H   H2845     1.0  0.95523  0.37296  0.53707  1.0000
  H   H2846     1.0  0.71232  0.31163  0.71597  1.0000
  S   S707      1.0  0.88772  0.25316  0.64044  1.0000
  H   H2847     1.0  0.80507  0.26836  0.64940  1.0000
  H   H2848     1.0  0.86955  0.27326  0.69013  1.0000
  H   H2849     1.0  0.98354  0.41383  0.53206  1.0000
  Fe  Fe351     1.0  0.82001  0.30179  0.67239  1.0000
  S   S708      1.0  0.82793  0.30563  0.68908  1.0000
  S   S709      1.0  0.83623  0.30633  0.65230  1.0000
  Fe  Fe352     1.0  0.78782  0.28617  0.68868  1.0000
  S   S710      1.0  0.79302  0.28888  0.70669  1.0000
  S   S711      1.0  0.76390  0.27462  0.69058  1.0000
  Fe  Fe353     1.0  0.79828  0.31554  0.69578  1.0000
  S   S712      1.0  0.78500  0.34030  0.70342  1.0000
  Fe  Fe354     1.0  0.82195  0.27868  0.69833  1.0000
  C   C1771     1.0  0.88111  0.40702  0.59828  1.0000
  S   S713      1.0  0.79073  0.31377  0.67826  1.0000
  S   S714      1.0  0.81640  0.27386  0.68119  1.0000
  Fe  Fe355     1.0  0.94644  0.35760  0.60315  1.0000
  S   S715      1.0  0.94232  0.36012  0.62329  1.0000
  S   S716      1.0  0.95218  0.38180  0.58799  1.0000
  Fe  Fe356     1.0  0.94482  0.31850  0.61125  1.0000
  S   S717      1.0  0.93995  0.31810  0.63192  1.0000
  S   S718      1.0  0.94967  0.29192  0.60650  1.0000
  Fe  Fe357     1.0  0.92112  0.34424  0.62734  1.0000
  S   S719      1.0  0.89474  0.35250  0.64048  1.0000
  Fe  Fe358     1.0  0.96148  0.33375  0.62587  1.0000
  S   S720      1.0  0.98503  0.32405  0.63526  1.0000
  S   S721      1.0  0.92391  0.34343  0.60698  1.0000
  S   S722      1.0  0.96760  0.33253  0.60541  1.0000
  C   C1772     1.0  0.99644  0.36997  0.63606  1.0000
  H   H2850     1.0  0.94389  0.39593  0.53514  1.0000
  C   C1773     1.0  0.98706  0.35709  0.63665  1.0000
  H   H2851     1.0  0.73779  0.28508  0.71465  1.0000
  H   H2852     1.0  0.85715  0.39870  0.62000  1.0000
  C   C1774     1.0  0.78938  0.34161  0.71767  1.0000
  H   H2853     1.0  0.73327  0.26428  0.71466  1.0000
  H   H2854     1.0  0.97256  0.35975  0.63953  1.0000
  H   H2855     1.0  0.96764  0.40879  0.54667  1.0000
  H   H2856     1.0  0.99896  0.40077  0.61268  1.0000
  C   C1775     1.0  0.84581  0.27307  0.63043  1.0000
  C   C1776     1.0  0.98580  0.45567  0.50716  1.0000
  H   H2857     1.0  0.85820  0.28160  0.67052  1.0000
  H   H2858     1.0  0.80892  0.31690  0.71956  1.0000
  C   C1777     1.0  0.85186  0.31990  0.64887  1.0000
  C   C1778     1.0  0.86503  0.32016  0.63760  1.0000
  C   C1779     1.0  0.87850  0.32981  0.63505  1.0000
  C   C1780     1.0  0.87839  0.33984  0.64356  1.0000
  C   C1781     1.0  0.86480  0.34015  0.65459  1.0000
  C   C1782     1.0  0.85169  0.33004  0.65731  1.0000
  H   H2859     1.0  0.86493  0.31271  0.63088  1.0000
  H   H2860     1.0  0.88879  0.32967  0.62645  1.0000
  H   H2861     1.0  0.86451  0.34808  0.66113  1.0000
  H   H2862     1.0  0.84132  0.33032  0.66587  1.0000
  C   C1783     1.0  0.97755  0.39202  0.52017  1.0000
  H   H2863     1.0  0.88385  0.25321  0.68582  1.0000
  H   H2864     1.0  0.69038  0.31022  0.71516  1.0000
  H   H2865     1.0  0.95920  0.27743  0.64246  1.0000
  Fe  Fe359     1.0  0.91764  0.47431  0.51510  1.0000
  Fe  Fe360     1.0  0.94921  0.44378  0.51062  1.0000
  C   C1784     1.0  0.97773  0.48632  0.50946  1.0000
  H   H2866     1.0  0.75937  0.32860  0.73365  1.0000
  H   H2867     1.0  0.72462  0.27351  0.72858  1.0000
  H   H2868     1.0  0.77055  0.36663  0.71848  1.0000
  C   C1785     1.0  0.90526  0.26354  0.63108  1.0000
  C   C1786     1.0  0.92183  0.25370  0.62585  1.0000
  C   C1787     1.0  0.93544  0.26244  0.61814  1.0000
  C   C1788     1.0  0.93264  0.28097  0.61596  1.0000
  C   C1789     1.0  0.91627  0.29073  0.62149  1.0000
  C   C1790     1.0  0.90255  0.28203  0.62889  1.0000
  C   C1791     1.0  0.96914  0.26563  0.63958  1.0000
  H   H2869     1.0  0.94815  0.25483  0.61393  1.0000
  H   H2870     1.0  0.91405  0.30503  0.61986  1.0000
  H   H2871     1.0  0.88985  0.28960  0.63300  1.0000
  S   S723      1.0  0.83891  0.25717  0.71021  1.0000
  H   H2872     1.0  0.96741  0.40179  0.51517  1.0000
  C   C1792     1.0  0.78426  0.25209  0.67473  1.0000
  C   C1793     1.0  0.76783  0.25695  0.68293  1.0000
  H   H2873     1.0  0.88532  0.48293  0.48953  1.0000
  H   H2874     1.0  0.95095  0.38440  0.54966  1.0000
  C   C1794     1.0  0.97284  0.47123  0.50862  1.0000
  H   H2875     1.0  0.79459  0.25943  0.67283  1.0000
  C   C1795     1.0  0.99688  0.37492  0.60232  1.0000
  H   H2876     1.0  0.87230  0.30256  0.67517  1.0000
  H   H2877     1.0  0.98330  0.28609  0.64806  1.0000
  H   H2878     1.0  0.69469  0.27004  0.72793  1.0000
  H   H2879     1.0  0.99140  0.36934  0.59644  1.0000
  H   H2880     1.0  0.99054  0.39634  0.51591  1.0000
  H   H2881     1.0  0.80855  0.24472  0.71038  1.0000
  N   N182      1.0  0.98743  0.26921  0.63501  1.0000
  H   H2882     1.0  0.84092  0.27935  0.62149  1.0000
  H   H2883     1.0  0.70316  0.29860  0.69542  1.0000
  H   H2884     1.0  0.88771  0.30308  0.66008  1.0000
  H   H2885     1.0  0.90543  0.38005  0.61961  1.0000
  Fe  Fe361     1.0  0.91622  0.44776  0.50049  1.0000
  H   H2886     1.0  0.88241  0.41994  0.59953  1.0000
  H   H2887     1.0  0.86743  0.40885  0.59660  1.0000
  H   H2888     1.0  0.81589  0.28660  0.64621  1.0000
  H   H2889     1.0  0.74169  0.25098  0.69163  1.0000
  C   C1796     1.0  0.75438  0.24745  0.68522  1.0000
  H   H2890     1.0  0.79079  0.24936  0.70215  1.0000
  C   C1797     1.0  0.91743  0.40762  0.55842  1.0000
  C   C1798     1.0  0.91486  0.39149  0.56680  1.0000
  C   C1799     1.0  0.92535  0.38345  0.57599  1.0000
  C   C1800     1.0  0.93828  0.39168  0.57696  1.0000
  C   C1801     1.0  0.94053  0.40801  0.56879  1.0000
  C   C1802     1.0  0.93020  0.41593  0.55952  1.0000
  H   H2891     1.0  0.90503  0.38497  0.56595  1.0000
  H   H2892     1.0  0.92366  0.37076  0.58212  1.0000
  H   H2893     1.0  0.95036  0.41455  0.56960  1.0000
  H   H2894     1.0  0.86856  0.37679  0.60621  1.0000
  H   H2895     1.0  0.89608  0.29739  0.67435  1.0000
  H   H2896     1.0  0.87325  0.38631  0.62947  1.0000
  S   S724      1.0  0.93362  0.45370  0.52824  1.0000
  S   S725      1.0  0.89777  0.45766  0.51741  1.0000
  C   C1803     1.0  0.97084  0.40897  0.53636  1.0000
  C   C1804     1.0  0.99561  0.48589  0.50899  1.0000
  H   H2897     1.0  0.89197  0.37208  0.59872  1.0000
  H   H2898     1.0  0.93206  0.42851  0.55327  1.0000
  H   H2899     1.0  0.95893  0.47178  0.50922  1.0000
  S   S726      1.0  0.97922  0.43675  0.50655  1.0000
  H   H2900     1.0  0.90424  0.25427  0.66452  1.0000
  C   C1805     1.0  0.90271  0.39055  0.61113  1.0000
  H   H2901     1.0  0.98916  0.38261  0.63844  1.0000
  H   H2902     1.0  0.70314  0.26265  0.71324  1.0000
  H   H2903     1.0  0.97808  0.29630  0.62605  1.0000
  N   N183      1.0  0.97235  0.39125  0.53399  1.0000
  H   H2904     1.0  0.72150  0.27955  0.69509  1.0000
  H   H2905     1.0  0.87193  0.26141  0.66592  1.0000
  C   C1806     1.0  0.88234  0.37580  0.60736  1.0000
  C   C1807     1.0  0.83949  0.25618  0.65194  1.0000
  H   H2906     1.0  0.80999  0.28122  0.63354  1.0000
  C   C1808     1.0  0.98779  0.28406  0.62378  1.0000
  H   H2907     1.0  0.90649  0.27531  0.65419  1.0000
  C   C1809     1.0  0.81520  0.27536  0.64239  1.0000
  C   C1810     1.0  0.69779  0.27470  0.71741  1.0000
  H   H2908     1.0  0.99276  0.26301  0.65376  1.0000
  C   C1811     1.0  0.90368  0.26842  0.66435  1.0000
  C   C1812     1.0  0.80332  0.32869  0.73585  1.0000
  C   C1813     1.0  0.87175  0.27550  0.66554  1.0000
  H   H2909     1.0  0.69882  0.29923  0.72918  1.0000
  H   H2910     1.0  0.97892  0.37890  0.51797  1.0000
  C   C1814     1.0  0.88304  0.26765  0.68473  1.0000
  H   H2911     1.0  0.89095  0.40413  0.58947  1.0000
  Fe  Fe362     1.0  0.91548  0.43605  0.52893  1.0000
  H   H2912     1.0  0.84159  0.26704  0.65549  1.0000
  H   H2913     1.0  0.87346  0.28245  0.65538  1.0000
  C   C1815     1.0  0.71529  0.29147  0.69934  1.0000
  H   H2914     1.0  0.91305  0.38679  0.60278  1.0000
  H   H2915     1.0  0.75468  0.30799  0.73337  1.0000
  C   C1816     1.0  0.78164  0.35664  0.73526  1.0000
  H   H2916     1.0  0.87240  0.40953  0.62289  1.0000
  H   H2917     1.0  0.90481  0.40306  0.61249  1.0000
  C   C1817     1.0  0.87119  0.39703  0.62092  1.0000
  C   C1818     1.0  0.99266  0.27400  0.64516  1.0000
  C   C1819     1.0  0.70277  0.30260  0.71863  1.0000
  H   H2918     1.0  0.85912  0.26416  0.62793  1.0000
  H   H2919     1.0  0.72520  0.30022  0.69595  1.0000
  H   H2920     1.0  0.85258  0.24654  0.65057  1.0000
  H   H2921     1.0  0.88483  0.36462  0.61557  1.0000
  H   H2922     1.0  0.91476  0.26871  0.66857  1.0000
  C   C1820     1.0  0.99648  0.34058  0.63391  1.0000
  C   C1821     1.0  0.98615  0.37816  0.54027  1.0000
  N   N184      1.0  0.83296  0.26324  0.63999  1.0000
  H   H2923     1.0  0.97447  0.40674  0.60084  1.0000
  H   H2924     1.0  0.84814  0.28381  0.63399  1.0000
  C   C1822     1.0  0.77975  0.35603  0.72330  1.0000
  H   H2925     1.0  0.97958  0.40045  0.58586  1.0000
  H   H2926     1.0  0.89323  0.26883  0.68944  1.0000
  C   C1823     1.0  0.95487  0.38589  0.53917  1.0000
  H   H2927     1.0  0.98764  0.36463  0.53868  1.0000
  H   H2928     1.0  0.98647  0.37620  0.61117  1.0000
  H   H2929     1.0  0.98257  0.37727  0.55073  1.0000
  H   H2930     1.0  0.96466  0.26233  0.63203  1.0000
  H   H2931     1.0  0.99642  0.24889  0.62409  1.0000
  H   H2932     1.0  0.84977  0.25139  0.68448  1.0000
  C   C1824     1.0  0.83138  0.24833  0.63521  1.0000
  H   H2933     1.0  0.82659  0.25316  0.62616  1.0000
  H   H2934     1.0  0.82984  0.24924  0.65953  1.0000
  H   H2935     1.0  0.78571  0.24672  0.71907  1.0000
  H   H2936     1.0  0.96854  0.25425  0.64791  1.0000
  H   H2937     1.0  0.99949  0.38186  0.53660  1.0000
  C   C1825     1.0  0.00021  0.25314  0.63151  1.0000
  Fe  Fe363     1.0  0.89692  0.46391  0.91509  1.0000
  S   S727      1.0  0.86846  0.46573  0.92637  1.0000
  S   S728      1.0  0.91924  0.44183  0.92143  1.0000
  Fe  Fe364     1.0  0.67127  0.24926  0.78087  1.0000
  N   N185      1.0  0.75200  0.31215  0.75205  1.0000
  H   H2938     1.0  0.50668  0.32485  0.78194  1.0000
  S   S729      1.0  0.91700  0.45554  0.98138  1.0000
  H   H2939     1.0  0.52043  0.30467  0.80690  1.0000
  C   C1826     1.0  0.96662  0.43770  0.97769  1.0000
  H   H2940     1.0  0.52707  0.26798  0.79037  1.0000
  H   H2941     1.0  0.55095  0.26137  0.78937  1.0000
  Fe  Fe365     1.0  0.64149  0.42531  0.82432  1.0000
  S   S730      1.0  0.63166  0.45377  0.81509  1.0000
  S   S731      1.0  0.62888  0.40149  0.82854  1.0000
  Fe  Fe366     1.0  0.67785  0.43159  0.82411  1.0000
  S   S732      1.0  0.67183  0.46007  0.81426  1.0000
  S   S733      1.0  0.70492  0.41850  0.82844  1.0000
  Fe  Fe367     1.0  0.64516  0.46085  0.82785  1.0000
  S   S734      1.0  0.66968  0.25617  0.76025  1.0000
  Fe  Fe368     1.0  0.65909  0.45078  0.80240  1.0000
  S   S735      1.0  0.66293  0.45996  0.78134  1.0000
  S   S736      1.0  0.65210  0.43255  0.83858  1.0000
  S   S737      1.0  0.66807  0.42202  0.81076  1.0000
  Fe  Fe369     1.0  0.56776  0.33565  0.79494  1.0000
  S   S738      1.0  0.58517  0.34351  0.80434  1.0000
  S   S739      1.0  0.57725  0.31315  0.78478  1.0000
  H   H2942     1.0  0.51968  0.34287  0.79060  1.0000
  S   S740      1.0  0.54776  0.36914  0.81675  1.0000
  C   C1827     1.0  0.90100  0.46247  0.96129  1.0000
  Fe  Fe370     1.0  0.56926  0.37114  0.79896  1.0000
  S   S741      1.0  0.58233  0.39491  0.79274  1.0000
  Fe  Fe371     1.0  0.56275  0.34095  0.82138  1.0000
  S   S742      1.0  0.56965  0.32946  0.84048  1.0000
  S   S743      1.0  0.55370  0.36353  0.78775  1.0000
  S   S744      1.0  0.54666  0.33054  0.81257  1.0000
  Fe  Fe372     1.0  0.77224  0.36127  0.76772  1.0000
  S   S745      1.0  0.75933  0.35097  0.78802  1.0000
  S   S746      1.0  0.79408  0.34217  0.75734  1.0000
  Fe  Fe373     1.0  0.74880  0.39803  0.76735  1.0000
  S   S747      1.0  0.73390  0.39072  0.78738  1.0000
  S   S748      1.0  0.74106  0.42533  0.75562  1.0000
  Fe  Fe374     1.0  0.76111  0.37693  0.79133  1.0000
  S   S749      1.0  0.76683  0.37844  0.80969  1.0000
  Fe  Fe375     1.0  0.73339  0.36576  0.78225  1.0000
  S   S750      1.0  0.77624  0.38602  0.77155  1.0000
  S   S751      1.0  0.74604  0.37414  0.76176  1.0000
  Fe  Fe376     1.0  0.75718  0.45675  0.85494  1.0000
  S   S752      1.0  0.75909  0.47374  0.83538  1.0000
  S   S753      1.0  0.72886  0.45361  0.86364  1.0000
  Fe  Fe377     1.0  0.79663  0.45400  0.85474  1.0000
  S   S754      1.0  0.80108  0.47101  0.83509  1.0000
  S   S755      1.0  0.82147  0.44248  0.86315  1.0000
  H   H2943     1.0  0.75446  0.31916  0.76868  1.0000
  H   H2944     1.0  0.63391  0.30759  0.80127  1.0000
  Fe  Fe378     1.0  0.78526  0.45474  0.83070  1.0000
  S   S756      1.0  0.79406  0.44477  0.81243  1.0000
  S   S757      1.0  0.77092  0.47211  0.86199  1.0000
  S   S758      1.0  0.78240  0.43653  0.84989  1.0000
  S   S759      1.0  0.50341  0.36568  0.80866  1.0000
  H   H2945     1.0  0.86170  0.48904  0.87869  1.0000
  H   H2946     1.0  0.60496  0.28637  0.83046  1.0000
  H   H2947     1.0  0.56608  0.27771  0.79779  1.0000
  H   H2948     1.0  0.77515  0.31471  0.75743  1.0000
  H   H2949     1.0  0.68922  0.30598  0.78167  1.0000
  C   C1828     1.0  0.55741  0.27448  0.85900  1.0000
  H   H2950     1.0  0.56461  0.30208  0.82989  1.0000
  H   H2951     1.0  0.74697  0.28626  0.75402  1.0000
  H   H2952     1.0  0.93012  0.47505  0.94146  1.0000
  C   C1829     1.0  0.77437  0.39702  0.81018  1.0000
  C   C1830     1.0  0.77258  0.40097  0.82197  1.0000
  C   C1831     1.0  0.77802  0.41592  0.82272  1.0000
  C   C1832     1.0  0.78619  0.42648  0.81172  1.0000
  C   C1833     1.0  0.78828  0.42236  0.79992  1.0000
  C   C1834     1.0  0.78213  0.40783  0.79912  1.0000
  H   H2953     1.0  0.76666  0.39260  0.83056  1.0000
  H   H2954     1.0  0.77603  0.41910  0.83184  1.0000
  H   H2955     1.0  0.79461  0.43046  0.79135  1.0000
  H   H2956     1.0  0.78371  0.40480  0.78998  1.0000
  C   C1835     1.0  0.69656  0.32833  0.78482  1.0000
  H   H2957     1.0  0.68451  0.33765  0.78261  1.0000
  C   C1836     1.0  0.69918  0.31040  0.78432  1.0000
  C   C1837     1.0  0.89262  0.48561  0.97322  1.0000
  H   H2958     1.0  0.88818  0.46760  0.94560  1.0000
  C   C1838     1.0  0.88930  0.47268  0.95331  1.0000
  H   H2959     1.0  0.76164  0.45687  0.79068  1.0000
  H   H2960     1.0  0.53980  0.38338  0.85044  1.0000
  H   H2961     1.0  0.55857  0.28035  0.87638  1.0000
  H   H2962     1.0  0.56570  0.30991  0.86611  1.0000
  C   C1839     1.0  0.63309  0.27353  0.81314  1.0000
  C   C1840     1.0  0.73274  0.32071  0.75341  1.0000
  H   H2963     1.0  0.90880  0.44958  0.95964  1.0000
  C   C1841     1.0  0.55992  0.28506  0.86622  1.0000
  H   H2964     1.0  0.72562  0.31426  0.74920  1.0000
  Fe  Fe379     1.0  0.77440  0.48791  0.84202  1.0000
  S   S760      1.0  0.98941  0.47332  0.94616  1.0000
  H   H2965     1.0  0.53581  0.25727  0.80443  1.0000
  H   H2966     1.0  0.74768  0.43165  0.79461  1.0000
  C   C1842     1.0  0.68507  0.45169  0.77413  1.0000
  C   C1843     1.0  0.69758  0.44217  0.78159  1.0000
  C   C1844     1.0  0.71498  0.43452  0.77586  1.0000
  C   C1845     1.0  0.71987  0.43623  0.76269  1.0000
  C   C1846     1.0  0.70755  0.44628  0.75519  1.0000
  C   C1847     1.0  0.69011  0.45396  0.76092  1.0000
  H   H2967     1.0  0.69386  0.44066  0.79177  1.0000
  H   H2968     1.0  0.72471  0.42751  0.78160  1.0000
  H   H2969     1.0  0.71137  0.44776  0.74498  1.0000
  H   H2970     1.0  0.68049  0.46142  0.75513  1.0000
  C   C1848     1.0  0.71096  0.42798  0.83867  1.0000
  C   C1849     1.0  0.72875  0.42327  0.84007  1.0000
  C   C1850     1.0  0.73428  0.43128  0.84763  1.0000
  C   C1851     1.0  0.72184  0.44359  0.85420  1.0000
  C   C1852     1.0  0.70390  0.44810  0.85300  1.0000
  C   C1853     1.0  0.69851  0.44051  0.84507  1.0000
  H   H2971     1.0  0.73831  0.41352  0.83520  1.0000
  H   H2972     1.0  0.74809  0.42763  0.84860  1.0000
  H   H2973     1.0  0.69421  0.45759  0.85809  1.0000
  H   H2974     1.0  0.68471  0.44425  0.84401  1.0000
  C   C1854     1.0  0.61793  0.39956  0.81736  1.0000
  C   C1855     1.0  0.61128  0.41441  0.80863  1.0000
  C   C1856     1.0  0.60083  0.41274  0.80083  1.0000
  C   C1857     1.0  0.59686  0.39628  0.80177  1.0000
  C   C1858     1.0  0.60421  0.38131  0.81009  1.0000
  C   C1859     1.0  0.61485  0.38294  0.81776  1.0000
  H   H2975     1.0  0.61363  0.42729  0.80821  1.0000
  H   H2976     1.0  0.59528  0.42436  0.79435  1.0000
  H   H2977     1.0  0.60157  0.36851  0.81071  1.0000
  H   H2978     1.0  0.62047  0.37130  0.82419  1.0000
  C   C1860     1.0  0.72532  0.32218  0.79055  1.0000
  H   H2979     1.0  0.73547  0.32661  0.79295  1.0000
  H   H2980     1.0  0.73984  0.29492  0.79252  1.0000
  C   C1861     1.0  0.63392  0.31066  0.76077  1.0000
  C   C1862     1.0  0.62684  0.29534  0.76540  1.0000
  C   C1863     1.0  0.60918  0.29633  0.77245  1.0000
  C   C1864     1.0  0.59881  0.31253  0.77526  1.0000
  C   C1865     1.0  0.60594  0.32783  0.77083  1.0000
  C   C1866     1.0  0.62343  0.32695  0.76340  1.0000
  H   H2981     1.0  0.63488  0.28275  0.76339  1.0000
  H   H2982     1.0  0.60370  0.28447  0.77589  1.0000
  H   H2983     1.0  0.59792  0.34038  0.77301  1.0000
  H   H2984     1.0  0.93546  0.46707  0.90098  1.0000
  H   H2985     1.0  0.55303  0.29553  0.80545  1.0000
  H   H2986     1.0  0.59918  0.27068  0.81605  1.0000
  H   H2987     1.0  0.72880  0.45574  0.82113  1.0000
  C   C1867     1.0  0.94995  0.44330  0.92783  1.0000
  H   H2988     1.0  0.99321  0.40865  0.97777  1.0000
  C   C1868     1.0  0.97104  0.46135  0.91443  1.0000
  C   C1869     1.0  0.83185  0.47016  0.89076  1.0000
  C   C1870     1.0  0.81583  0.47604  0.88631  1.0000
  C   C1871     1.0  0.81269  0.46787  0.87769  1.0000
  C   C1872     1.0  0.82547  0.45356  0.87353  1.0000
  C   C1873     1.0  0.84164  0.44782  0.87784  1.0000
  C   C1874     1.0  0.84489  0.45615  0.88637  1.0000
  H   H2989     1.0  0.50936  0.29332  0.80048  1.0000
  H   H2990     1.0  0.80026  0.47253  0.87440  1.0000
  H   H2991     1.0  0.85159  0.43674  0.87470  1.0000
  H   H2992     1.0  0.85726  0.45146  0.88976  1.0000
  S   S761      1.0  0.71953  0.27630  0.78523  1.0000
  H   H2993     1.0  0.53055  0.29836  0.77944  1.0000
  H   H2994     1.0  0.54063  0.31055  0.78595  1.0000
  Fe  Fe380     1.0  0.67183  0.28326  0.76108  1.0000
  H   H2995     1.0  0.60921  0.27535  0.79940  1.0000
  H   H2996     1.0  0.94613  0.43367  0.93637  1.0000
  N   N186      1.0  0.56852  0.38061  0.84595  1.0000
  C   C1875     1.0  0.56840  0.39409  0.83395  1.0000
  C   C1876     1.0  0.55236  0.37298  0.84936  1.0000
  C   C1877     1.0  0.56860  0.38907  0.85615  1.0000
  C   C1878     1.0  0.58476  0.36629  0.84435  1.0000
  H   H2997     1.0  0.55623  0.40500  0.83472  1.0000
  H   H2998     1.0  0.56860  0.38817  0.82597  1.0000
  H   H2999     1.0  0.58034  0.40023  0.83115  1.0000
  H   H3000     1.0  0.55214  0.36619  0.84198  1.0000
  H   H3001     1.0  0.55199  0.36278  0.85839  1.0000
  H   H3002     1.0  0.66581  0.40636  0.76013  1.0000
  H   H3003     1.0  0.58060  0.39508  0.85377  1.0000
  H   H3004     1.0  0.56893  0.37923  0.86530  1.0000
  H   H3005     1.0  0.59717  0.37128  0.84280  1.0000
  H   H3006     1.0  0.58585  0.36051  0.83610  1.0000
  N   N187      1.0  0.61762  0.28820  0.81067  1.0000
  H   H3007     1.0  0.80573  0.48697  0.88952  1.0000
  H   H3008     1.0  0.59805  0.30737  0.82038  1.0000
  H   H3009     1.0  0.74991  0.47605  0.79734  1.0000
  C   C1879     1.0  0.90259  0.46884  0.97132  1.0000
  H   H3010     1.0  0.74372  0.42945  0.81148  1.0000
  H   H3011     1.0  0.55647  0.39986  0.85768  1.0000
  S   S762      1.0  0.67070  0.27700  0.78197  1.0000
  C   C1880     1.0  0.54096  0.29704  0.78479  1.0000
  H   H3012     1.0  0.61237  0.31279  0.79715  1.0000
  Fe  Fe381     1.0  0.53360  0.35895  0.80618  1.0000
  H   H3013     1.0  0.97290  0.40311  0.97726  1.0000
  N   N188      1.0  0.73466  0.45591  0.80120  1.0000
  C   C1881     1.0  0.72625  0.46450  0.79015  1.0000
  C   C1882     1.0  0.72252  0.46139  0.81272  1.0000
  C   C1883     1.0  0.73804  0.43638  0.80292  1.0000
  S   S763      1.0  0.99146  0.46830  0.91080  1.0000
  H   H3014     1.0  0.55124  0.27304  0.81291  1.0000
  C   C1884     1.0  0.60387  0.28120  0.80799  1.0000
  C   C1885     1.0  0.93810  0.48227  0.94433  1.0000
  H   H3015     1.0  0.77408  0.36778  0.73954  1.0000
  S   S764      1.0  0.83480  0.48083  0.90179  1.0000
  C   C1886     1.0  0.50561  0.34235  0.79390  1.0000
  H   H3016     1.0  0.98357  0.48926  0.97389  1.0000
  H   H3017     1.0  0.70980  0.45664  0.81507  1.0000
  H   H3018     1.0  0.51808  0.28232  0.81457  1.0000
  C   C1887     1.0  0.56528  0.30814  0.84735  1.0000
  H   H3019     1.0  0.75906  0.33514  0.75425  1.0000
  H   H3020     1.0  0.81235  0.31802  0.74074  1.0000
  C   C1888     1.0  0.56395  0.30178  0.86041  1.0000
  S   S765      1.0  0.70706  0.35695  0.78733  1.0000
  C   C1889     1.0  0.75184  0.46137  0.79901  1.0000
  H   H3021     1.0  0.75816  0.45557  0.80738  1.0000
  S   S766      1.0  0.65617  0.30918  0.75228  1.0000
  C   C1890     1.0  0.56319  0.29744  0.84002  1.0000
  C   C1891     1.0  0.53792  0.26706  0.79524  1.0000
  Fe  Fe382     1.0  0.70061  0.26950  0.77640  1.0000
  C   C1892     1.0  0.71487  0.29835  0.78700  1.0000
  Fe  Fe383     1.0  0.86055  0.47952  0.90764  1.0000
  S   S767      1.0  0.70174  0.27825  0.75556  1.0000
  H   H3022     1.0  0.55788  0.27231  0.84016  1.0000
  H   H3023     1.0  0.71898  0.47609  0.81157  1.0000
  H   H3024     1.0  0.58458  0.35516  0.85284  1.0000
  C   C1893     1.0  0.55937  0.28056  0.84583  1.0000
  N   N189      1.0  0.53806  0.28456  0.79721  1.0000
  S   S768      1.0  0.63465  0.48346  0.83825  1.0000
  S   S769      1.0  0.88893  0.47507  0.89614  1.0000
  H   H3025     1.0  0.61973  0.30172  0.82425  1.0000
  C   C1894     1.0  0.60978  0.29625  0.82192  1.0000
  H   H3026     1.0  0.74846  0.29092  0.76839  1.0000
  H   H3027     1.0  0.95230  0.47489  0.94256  1.0000
  H   H3028     1.0  0.55433  0.29257  0.77876  1.0000
  H   H3029     1.0  0.97437  0.44432  0.93253  1.0000
  S   S770      1.0  0.55169  0.25389  0.86676  1.0000
  C   C1895     1.0  0.94387  0.46212  0.90790  1.0000
  H   H3030     1.0  0.62999  0.29599  0.79097  1.0000
  C   C1896     1.0  0.55271  0.28264  0.80364  1.0000
  H   H3031     1.0  0.72596  0.31988  0.76354  1.0000
  C   C1897     1.0  0.76069  0.31430  0.73843  1.0000
  C   C1898     1.0  0.62374  0.30175  0.79957  1.0000
  N   N190      1.0  0.70781  0.36712  0.82759  1.0000
  C   C1899     1.0  0.70159  0.36176  0.81815  1.0000
  C   C1900     1.0  0.72181  0.37744  0.82094  1.0000
  C   C1901     1.0  0.71543  0.35112  0.83632  1.0000
  C   C1902     1.0  0.69253  0.37817  0.83488  1.0000
  H   H3032     1.0  0.69077  0.35420  0.82272  1.0000
  H   H3033     1.0  0.71278  0.35316  0.81263  1.0000
  H   H3034     1.0  0.69627  0.37352  0.81117  1.0000
  H   H3035     1.0  0.72727  0.38142  0.82770  1.0000
  H   H3036     1.0  0.73329  0.36963  0.81509  1.0000
  H   H3037     1.0  0.71649  0.38990  0.81453  1.0000
  H   H3038     1.0  0.72023  0.35479  0.84354  1.0000
  H   H3039     1.0  0.72715  0.34266  0.83108  1.0000
  H   H3040     1.0  0.70532  0.34287  0.84143  1.0000
  H   H3041     1.0  0.69687  0.38278  0.84189  1.0000
  H   H3042     1.0  0.68172  0.37081  0.84011  1.0000
  H   H3043     1.0  0.68647  0.39032  0.82854  1.0000
  C   C1903     1.0  0.96586  0.44935  0.92568  1.0000
  Fe  Fe384     1.0  0.69989  0.25047  0.75629  1.0000
  H   H3044     1.0  0.64373  0.27828  0.81526  1.0000
  C   C1904     1.0  0.72774  0.30422  0.79036  1.0000
  C   C1905     1.0  0.93893  0.44967  0.91892  1.0000
  H   H3045     1.0  0.62902  0.26282  0.82129  1.0000
  H   H3046     1.0  0.72421  0.47922  0.78819  1.0000
  H   H3047     1.0  0.73463  0.45993  0.78140  1.0000
  H   H3048     1.0  0.71283  0.46136  0.79181  1.0000
  H   H3049     1.0  0.59191  0.29189  0.80625  1.0000
  C   C1906     1.0  0.52068  0.29152  0.80515  1.0000
  C   C1907     1.0  0.87892  0.48922  0.95545  1.0000
  C   C1908     1.0  0.96004  0.46767  0.90555  1.0000
  H   H3050     1.0  0.95926  0.43524  0.97136  1.0000
  C   C1909     1.0  0.70981  0.33429  0.78768  1.0000
  H   H3051     1.0  0.62895  0.33878  0.75990  1.0000
  H   H3052     1.0  0.72546  0.43185  0.80414  1.0000
  N   N191      1.0  0.83410  0.40945  0.83344  1.0000
  C   C1910     1.0  0.85221  0.40063  0.82750  1.0000
  C   C1911     1.0  0.83250  0.40633  0.84729  1.0000
  C   C1912     1.0  0.82043  0.40217  0.83092  1.0000
  C   C1913     1.0  0.83124  0.42875  0.82801  1.0000
  H   H3053     1.0  0.85377  0.40271  0.81705  1.0000
  H   H3054     1.0  0.85486  0.38603  0.83141  1.0000
  H   H3055     1.0  0.86282  0.40594  0.82916  1.0000
  H   H3056     1.0  0.81900  0.41288  0.85206  1.0000
  H   H3057     1.0  0.83456  0.39192  0.85177  1.0000
  H   H3058     1.0  0.84243  0.41190  0.84957  1.0000
  H   H3059     1.0  0.82238  0.38754  0.83454  1.0000
  H   H3060     1.0  0.82071  0.40496  0.82057  1.0000
  H   H3061     1.0  0.80666  0.40823  0.83557  1.0000
  H   H3062     1.0  0.83249  0.43170  0.81753  1.0000
  H   H3063     1.0  0.84089  0.43491  0.83005  1.0000
  H   H3064     1.0  0.81755  0.43563  0.83205  1.0000
  N   N192      1.0  0.66355  0.40346  0.78010  1.0000
  C   C1914     1.0  0.68188  0.40619  0.77837  1.0000
  C   C1915     1.0  0.65044  0.42051  0.78072  1.0000
  C   C1916     1.0  0.65925  0.39033  0.79200  1.0000
  C   C1917     1.0  0.66262  0.39677  0.76927  1.0000
  H   H3065     1.0  0.69217  0.39367  0.77769  1.0000
  H   H3066     1.0  0.68320  0.41107  0.78639  1.0000
  H   H3067     1.0  0.68548  0.41616  0.76954  1.0000
  H   H3068     1.0  0.63650  0.41906  0.78175  1.0000
  H   H3069     1.0  0.65052  0.42577  0.78895  1.0000
  H   H3070     1.0  0.65356  0.43094  0.77206  1.0000
  H   H3071     1.0  0.66901  0.37735  0.79192  1.0000
  H   H3072     1.0  0.64556  0.38786  0.79350  1.0000
  H   H3073     1.0  0.65955  0.39501  0.80042  1.0000
  H   H3074     1.0  0.64898  0.39455  0.77023  1.0000
  H   H3075     1.0  0.67239  0.38390  0.76856  1.0000
  C   C1918     1.0  0.76053  0.32064  0.75837  1.0000
  S   S771      1.0  0.89956  0.48992  0.91732  1.0000
  C   C1919     1.0  0.60489  0.24290  0.79298  1.0000
  H   H3076     1.0  0.59810  0.24690  0.78515  1.0000
  C   C1920     1.0  0.75408  0.29302  0.75800  1.0000
  H   H3077     1.0  0.76847  0.28609  0.75670  1.0000
  H   H3078     1.0  0.73079  0.33508  0.74876  1.0000
  S   S772      1.0  0.53600  0.25138  0.83696  1.0000
  H   H3079     1.0  0.93338  0.48150  0.95473  1.0000
  C   C1921     1.0  0.97975  0.40649  0.98349  1.0000
  H   H3080     1.0  0.63941  0.26735  0.80476  1.0000
  H   H3081     1.0  0.97972  0.44052  0.97181  1.0000
  H   H3082     1.0  0.95866  0.44997  0.98103  1.0000
  H   H3083     1.0  0.96397  0.47696  0.89684  1.0000
  H   H3084     1.0  0.70412  0.48778  0.85419  1.0000
  C   C1922     1.0  0.79322  0.34285  0.74166  1.0000
  H   H3085     1.0  0.89409  0.49090  0.98066  1.0000
  H   H3086     1.0  0.85948  0.48763  0.86350  1.0000
  H   H3087     1.0  0.72252  0.49084  0.86791  1.0000
  H   H3088     1.0  0.63093  0.24546  0.78091  1.0000
  H   H3089     1.0  0.85784  0.46823  0.98091  1.0000
  H   H3090     1.0  0.77531  0.30820  0.73704  1.0000
  C   C1923     1.0  0.62346  0.24211  0.79055  1.0000
  C   C1924     1.0  0.74824  0.58553  0.10847  1.0000
  Fe  Fe385     1.0  0.93883  0.60485  0.01462  1.0000
  S   S773      1.0  0.96436  0.58945  0.02068  1.0000
  C   C1925     1.0  0.94355  0.51368  0.02335  1.0000
  Fe  Fe386     1.0  0.91933  0.60850  0.04161  1.0000
  S   S774      1.0  0.94320  0.59302  0.04997  1.0000
  S   S775      1.0  0.89259  0.62166  0.05213  1.0000
  Fe  Fe387     1.0  0.95898  0.60883  0.03303  1.0000
  S   S776      1.0  0.98048  0.62209  0.03333  1.0000
  Fe  Fe388     1.0  0.94627  0.57518  0.03680  1.0000
  S   S777      1.0  0.95328  0.54564  0.04188  1.0000
  S   S778      1.0  0.93493  0.62579  0.02554  1.0000
  S   S779      1.0  0.92097  0.58908  0.02989  1.0000
  Fe  Fe389     1.0  0.84068  0.59903  0.11918  1.0000
  S   S780      1.0  0.83341  0.58335  0.13904  1.0000
  S   S781      1.0  0.86906  0.60303  0.11214  1.0000
  Fe  Fe390     1.0  0.80394  0.60414  0.11433  1.0000
  S   S782      1.0  0.79350  0.58873  0.13356  1.0000
  S   S783      1.0  0.78598  0.61584  0.10049  1.0000
  Fe  Fe391     1.0  0.80773  0.60375  0.14042  1.0000
  S   S784      1.0  0.79352  0.61145  0.15899  1.0000
  Fe  Fe392     1.0  0.81987  0.56975  0.13050  1.0000
  S   S785      1.0  0.82041  0.54074  0.13783  1.0000
  S   S786      1.0  0.81605  0.62097  0.12138  1.0000
  S   S787      1.0  0.82927  0.58355  0.11046  1.0000
  H   H3091     1.0  0.77641  0.66452  0.14251  1.0000
  Fe  Fe393     1.0  0.66960  0.62400  0.16790  1.0000
  S   S788      1.0  0.68662  0.59966  0.17781  1.0000
  S   S789      1.0  0.64077  0.63396  0.17680  1.0000
  Fe  Fe394     1.0  0.69917  0.63017  0.14504  1.0000
  S   S790      1.0  0.71871  0.60654  0.15276  1.0000
  S   S791      1.0  0.70673  0.64731  0.12592  1.0000
  Fe  Fe395     1.0  0.69600  0.59240  0.15870  1.0000
  S   S792      1.0  0.70331  0.56391  0.15646  1.0000
  Fe  Fe396     1.0  0.70785  0.61584  0.17105  1.0000
  H   H3092     1.0  0.72227  0.66779  0.16363  1.0000
  S   S793      1.0  0.67714  0.61535  0.14932  1.0000
  S   S794      1.0  0.69010  0.64087  0.16276  1.0000
  H   H3093     1.0  0.87391  0.50859  0.08999  1.0000
  H   H3094     1.0  0.53919  0.69101  0.16702  1.0000
  Fe  Fe397     1.0  0.58161  0.72384  0.15242  1.0000
  Fe  Fe398     1.0  0.65148  0.50495  0.14204  1.0000
  S   S795      1.0  0.60807  0.70751  0.14418  1.0000
  H   H3095     1.0  0.86300  0.49586  0.11882  1.0000
  H   H3096     1.0  0.50753  0.70223  0.12331  1.0000
  S   S796      1.0  0.55485  0.72322  0.14937  1.0000
  C   C1926     1.0  0.85743  0.50979  0.11432  1.0000
  S   S797      1.0  0.76011  0.70148  0.17892  1.0000
  S   S798      1.0  0.78677  0.71566  0.19039  1.0000
  Fe  Fe399     1.0  0.78577  0.69030  0.18574  1.0000
  S   S799      1.0  0.80890  0.67694  0.17224  1.0000
  H   H3097     1.0  0.69512  0.71543  0.21368  1.0000
  H   H3098     1.0  0.76282  0.63812  0.14903  1.0000
  H   H3099     1.0  0.73952  0.66961  0.17050  1.0000
  H   H3100     1.0  0.94244  0.50004  0.02526  1.0000
  H   H3101     1.0  0.83501  0.52993  0.09053  1.0000
  H   H3102     1.0  0.62864  0.72464  0.15760  1.0000
  C   C1927     1.0  0.73338  0.56237  0.12223  1.0000
  H   H3103     1.0  0.88910  0.53182  0.03470  1.0000
  H   H3104     1.0  0.99077  0.51677  0.03121  1.0000
  H   H3105     1.0  0.71134  0.58924  0.13248  1.0000
  H   H3106     1.0  0.83948  0.60733  0.15584  1.0000
  H   H3107     1.0  0.77440  0.58930  0.18027  1.0000
  H   H3108     1.0  0.76143  0.57612  0.10679  1.0000
  C   C1928     1.0  0.63127  0.65406  0.16759  1.0000
  C   C1929     1.0  0.61374  0.66304  0.17203  1.0000
  C   C1930     1.0  0.60628  0.67937  0.16481  1.0000
  C   C1931     1.0  0.61634  0.68664  0.15313  1.0000
  C   C1932     1.0  0.63375  0.67751  0.14867  1.0000
  C   C1933     1.0  0.64122  0.66127  0.15588  1.0000
  H   H3109     1.0  0.60598  0.65747  0.18108  1.0000
  H   H3110     1.0  0.59279  0.68634  0.16828  1.0000
  H   H3111     1.0  0.64156  0.68308  0.13963  1.0000
  H   H3112     1.0  0.65471  0.65441  0.15235  1.0000
  C   C1934     1.0  0.76547  0.67071  0.14964  1.0000
  H   H3113     1.0  0.75716  0.64064  0.16514  1.0000
  H   H3114     1.0  0.79528  0.57432  0.16325  1.0000
  N   N193      1.0  0.86270  0.61857  0.14625  1.0000
  H   H3115     1.0  0.72585  0.56293  0.11502  1.0000
  H   H3116     1.0  0.73159  0.68741  0.15839  1.0000
  H   H3117     1.0  0.78973  0.55654  0.15921  1.0000
  C   C1935     1.0  0.68819  0.55593  0.15154  1.0000
  C   C1936     1.0  0.67550  0.56755  0.14489  1.0000
  C   C1937     1.0  0.66391  0.56081  0.14078  1.0000
  H   H3118     1.0  0.67479  0.58170  0.14275  1.0000
  H   H3119     1.0  0.65426  0.56981  0.13549  1.0000
  C   C1938     1.0  0.79764  0.63000  0.16228  1.0000
  C   C1939     1.0  0.80781  0.64117  0.15306  1.0000
  C   C1940     1.0  0.81124  0.65566  0.15615  1.0000
  C   C1941     1.0  0.80406  0.65924  0.16833  1.0000
  C   C1942     1.0  0.79342  0.64838  0.17738  1.0000
  C   C1943     1.0  0.79046  0.63364  0.17440  1.0000
  H   H3120     1.0  0.81303  0.63862  0.14361  1.0000
  H   H3121     1.0  0.81925  0.66427  0.14910  1.0000
  H   H3122     1.0  0.78789  0.65107  0.18680  1.0000
  H   H3123     1.0  0.78277  0.62490  0.18158  1.0000
  C   C1944     1.0  0.76475  0.62687  0.10742  1.0000
  C   C1945     1.0  0.75191  0.63496  0.09999  1.0000
  C   C1946     1.0  0.73423  0.64196  0.10567  1.0000
  C   C1947     1.0  0.72930  0.64061  0.11880  1.0000
  C   C1948     1.0  0.74225  0.63305  0.12619  1.0000
  C   C1949     1.0  0.76003  0.62641  0.12047  1.0000
  H   H3124     1.0  0.75555  0.63547  0.08988  1.0000
  H   H3125     1.0  0.72425  0.64792  0.09993  1.0000
  H   H3126     1.0  0.73858  0.63240  0.13629  1.0000
  H   H3127     1.0  0.76999  0.62074  0.12619  1.0000
  H   H3128     1.0  0.64787  0.59809  0.16880  1.0000
  H   H3129     1.0  0.83170  0.53586  0.10550  1.0000
  C   C1950     1.0  0.79672  0.54485  0.12283  1.0000
  C   C1951     1.0  0.73489  0.67268  0.16146  1.0000
  H   H3130     1.0  0.79989  0.55775  0.11836  1.0000
  C   C1952     1.0  0.88630  0.61509  0.06878  1.0000
  C   C1953     1.0  0.86817  0.61958  0.07473  1.0000
  C   C1954     1.0  0.86277  0.61545  0.08802  1.0000
  C   C1955     1.0  0.87557  0.60732  0.09546  1.0000
  C   C1956     1.0  0.89375  0.60295  0.08954  1.0000
  C   C1957     1.0  0.89908  0.60655  0.07622  1.0000
  H   H3131     1.0  0.85822  0.62624  0.06904  1.0000
  H   H3132     1.0  0.84872  0.61890  0.09249  1.0000
  H   H3133     1.0  0.90368  0.59653  0.09526  1.0000
  H   H3134     1.0  0.91306  0.60285  0.07177  1.0000
  H   H3135     1.0  0.88471  0.60483  0.13389  1.0000
  C   C1958     1.0  0.94315  0.54253  0.00918  1.0000
  C   C1959     1.0  0.94677  0.54895  0.01847  1.0000
  C   C1960     1.0  0.94892  0.53768  0.03018  1.0000
  C   C1961     1.0  0.63597  0.59268  0.17467  1.0000
  C   C1962     1.0  0.72011  0.59315  0.12304  1.0000
  H   H3136     1.0  0.94137  0.55133  0.00016  1.0000
  H   H3137     1.0  0.94796  0.56261  0.01651  1.0000
  H   H3138     1.0  0.75444  0.58155  0.18884  1.0000
  H   H3139     1.0  0.99806  0.55186  0.00232  1.0000
  C   C1963     1.0  0.72271  0.66388  0.19685  1.0000
  S   S800      1.0  0.94005  0.61038  0.99367  1.0000
  C   C1964     1.0  0.92845  0.59817  0.98902  1.0000
  H   H3140     1.0  0.70007  0.51513  0.09869  1.0000
  H   H3141     1.0  0.90738  0.54045  0.02367  1.0000
  C   C1965     1.0  0.84875  0.61417  0.15770  1.0000
  H   H3142     1.0  0.52725  0.67220  0.15833  1.0000
  H   H3143     1.0  0.82766  0.50056  0.10143  1.0000
  C   C1966     1.0  0.80080  0.51723  0.13840  1.0000
  H   H3144     1.0  0.74133  0.58661  0.10079  1.0000
  H   H3145     1.0  0.75118  0.59876  0.10736  1.0000
  H   H3146     1.0  0.70692  0.72478  0.19835  1.0000
  H   H3147     1.0  0.51600  0.69692  0.13756  1.0000
  H   H3148     1.0  0.85477  0.60531  0.16570  1.0000
  C   C1967     1.0  0.74707  0.57852  0.13099  1.0000
  H   H3149     1.0  0.85929  0.54414  0.01188  1.0000
  H   H3150     1.0  0.74002  0.63962  0.15788  1.0000
  N   N194      1.0  0.84899  0.51035  0.10391  1.0000
  H   H3151     1.0  0.65229  0.68870  0.17969  1.0000
  C   C1968     1.0  0.52102  0.72937  0.12416  1.0000
  H   H3152     1.0  0.99159  0.53476  0.03752  1.0000
  H   H3153     1.0  0.61121  0.71352  0.16710  1.0000
  H   H3154     1.0  0.98764  0.58456  0.04523  1.0000
  C   C1969     1.0  0.62035  0.72170  0.16737  1.0000
  C   C1970     1.0  0.70972  0.64576  0.18895  1.0000
  H   H3155     1.0  0.87020  0.56235  0.02901  1.0000
  H   H3156     1.0  0.65190  0.69896  0.16330  1.0000
  C   C1971     1.0  0.78150  0.52175  0.12380  1.0000
  H   H3157     1.0  0.93908  0.65980  0.06711  1.0000
  H   H3158     1.0  0.90587  0.55174  0.00083  1.0000
  H   H3159     1.0  0.91040  0.65276  0.04216  1.0000
  H   H3160     1.0  0.86074  0.53546  0.02825  1.0000
  H   H3161     1.0  0.77967  0.54666  0.11023  1.0000
  C   C1972     1.0  0.78516  0.53867  0.11830  1.0000
  H   H3162     1.0  0.79625  0.55311  0.17399  1.0000
  H   H3163     1.0  0.77603  0.56802  0.19105  1.0000
  C   C1973     1.0  0.80476  0.53398  0.13276  1.0000
  H   H3164     1.0  0.75029  0.65346  0.19843  1.0000
  H   H3165     1.0  0.72317  0.53225  0.09558  1.0000
  H   H3166     1.0  0.88043  0.62109  0.15690  1.0000
  H   H3167     1.0  0.85259  0.53671  0.09421  1.0000
  C   C1974     1.0  0.51808  0.68155  0.16378  1.0000
  Fe  Fe400     1.0  0.77125  0.70496  0.20978  1.0000
  N   N195      1.0  0.73720  0.57989  0.12118  1.0000
  H   H3168     1.0  0.73282  0.50262  0.12599  1.0000
  H   H3169     1.0  0.61087  0.62309  0.17206  1.0000
  H   H3170     1.0  0.64058  0.57804  0.17768  1.0000
  H   H3171     1.0  0.98519  0.53530  0.01081  1.0000
  H   H3172     1.0  0.76531  0.59387  0.16035  1.0000
  C   C1975     1.0  0.75979  0.58160  0.16408  1.0000
  C   C1976     1.0  0.85407  0.62936  0.13566  1.0000
  H   H3173     1.0  0.86631  0.59395  0.14060  1.0000
  H   H3174     1.0  0.84547  0.62213  0.13348  1.0000
  H   H3175     1.0  0.86421  0.63251  0.12676  1.0000
  H   H3176     1.0  0.84551  0.64215  0.13789  1.0000
  H   H3177     1.0  0.72983  0.66472  0.14098  1.0000
  H   H3178     1.0  0.73964  0.68395  0.13609  1.0000
  H   H3179     1.0  0.65115  0.71744  0.18462  1.0000
  H   H3180     1.0  0.76060  0.57590  0.15587  1.0000
  H   H3181     1.0  0.75261  0.66319  0.13217  1.0000
  H   H3182     1.0  0.71240  0.59476  0.11571  1.0000
  H   H3183     1.0  0.76335  0.68540  0.14626  1.0000
  H   H3184     1.0  0.77042  0.66740  0.15859  1.0000
  C   C1977     1.0  0.87425  0.60199  0.14266  1.0000
  N   N196      1.0  0.74878  0.66439  0.15172  1.0000
  C   C1978     1.0  0.75235  0.64485  0.15611  1.0000
  H   H3185     1.0  0.72247  0.60647  0.12250  1.0000
  C   C1979     1.0  0.78850  0.56290  0.16721  1.0000
  H   H3186     1.0  0.76153  0.54641  0.17096  1.0000
  C   C1980     1.0  0.74244  0.66929  0.13972  1.0000
  N   N197      1.0  0.76952  0.56869  0.17344  1.0000
  H   H3187     1.0  0.68449  0.72211  0.20036  1.0000
  H   H3188     1.0  0.88441  0.63233  0.14048  1.0000
  C   C1981     1.0  0.87375  0.62879  0.14893  1.0000
  H   H3189     1.0  0.86540  0.64143  0.15163  1.0000
  H   H3190     1.0  0.88119  0.59353  0.15032  1.0000
  H   H3191     1.0  0.74598  0.55203  0.12089  1.0000
  H   H3192     1.0  0.84040  0.62633  0.16108  1.0000
  H   H3193     1.0  0.75010  0.59154  0.13048  1.0000
  C   C1982     1.0  0.76108  0.55311  0.17860  1.0000
  H   H3194     1.0  0.60525  0.62067  0.15820  1.0000
  H   H3195     1.0  0.63241  0.57458  0.15883  1.0000
  S   S801      1.0  0.64172  0.49443  0.12904  1.0000
  C   C1983     1.0  0.72596  0.63323  0.18791  1.0000
  C   C1984     1.0  0.73896  0.65135  0.19581  1.0000
  H   H3196     1.0  0.75287  0.62607  0.19101  1.0000
  S   S802      1.0  0.52138  0.71721  0.18237  1.0000
  H   H3197     1.0  0.94609  0.63350  0.05008  1.0000
  H   H3198     1.0  0.76800  0.54312  0.18576  1.0000
  H   H3199     1.0  0.72515  0.55773  0.13176  1.0000
  Fe  Fe401     1.0  0.75987  0.72586  0.18511  1.0000
  C   C1985     1.0  0.72962  0.52149  0.10262  1.0000
  H   H3200     1.0  0.74535  0.58582  0.16846  1.0000
  S   S803      1.0  0.77222  0.67855  0.20554  1.0000
  C   C1986     1.0  0.61602  0.61673  0.16369  1.0000
  H   H3201     1.0  0.62755  0.62267  0.15765  1.0000
  H   H3202     1.0  0.60953  0.57526  0.17894  1.0000
  H   H3203     1.0  0.73911  0.57419  0.14069  1.0000
  H   H3204     1.0  0.59468  0.59320  0.17082  1.0000
  H   H3205     1.0  0.74670  0.55707  0.18331  1.0000
  C   C1987     1.0  0.76859  0.57719  0.18388  1.0000
  H   H3206     1.0  0.76009  0.56872  0.12981  1.0000
  H   H3207     1.0  0.63149  0.59840  0.18334  1.0000
  C   C1988     1.0  0.72574  0.49749  0.12085  1.0000
  N   N198      1.0  0.62149  0.59719  0.16760  1.0000
  C   C1989     1.0  0.60590  0.59000  0.17584  1.0000
  C   C1990     1.0  0.74044  0.63590  0.19156  1.0000
  S   S804      1.0  0.57191  0.72635  0.17285  1.0000
  C   C1991     1.0  0.68929  0.53755  0.15397  1.0000
  C   C1992     1.0  0.66466  0.54246  0.14352  1.0000
  H   H3208     1.0  0.63978  0.59457  0.14980  1.0000
  H   H3209     1.0  0.61130  0.69849  0.18911  1.0000
  C   C1993     1.0  0.62807  0.58933  0.15623  1.0000
  C   C1994     1.0  0.70804  0.66095  0.19355  1.0000
  H   H3210     1.0  0.61748  0.59234  0.15068  1.0000
  H   H3211     1.0  0.69836  0.64361  0.18642  1.0000
  H   H3212     1.0  0.71698  0.49490  0.09999  1.0000
  S   S805      1.0  0.72874  0.61447  0.18166  1.0000
  H   H3213     1.0  0.69909  0.52848  0.15910  1.0000
  H   H3214     1.0  0.80696  0.50882  0.14610  1.0000
  Fe  Fe402     1.0  0.74647  0.69216  0.19897  1.0000
  H   H3215     1.0  0.60064  0.59564  0.18453  1.0000
  C   C1995     1.0  0.67741  0.53083  0.15011  1.0000
  S   S806      1.0  0.74430  0.71748  0.20477  1.0000
  H   H3216     1.0  0.88873  0.56957  0.01721  1.0000
  C   C1996     1.0  0.50505  0.70546  0.13278  1.0000
  S   S807      1.0  0.64961  0.53462  0.13841  1.0000
  C   C1997     1.0  0.86858  0.53646  0.01830  1.0000
  H   H3217     1.0  0.86861  0.51703  0.11085  1.0000
  H   H3218     1.0  0.87320  0.52270  0.01654  1.0000
  H   H3219     1.0  0.53250  0.72152  0.12866  1.0000
  H   H3220     1.0  0.69576  0.53593  0.11294  1.0000
  C   C1998     1.0  0.94123  0.52497  0.01171  1.0000
  C   C1999     1.0  0.84177  0.52904  0.09826  1.0000
  H   H3221     1.0  0.70920  0.53011  0.12472  1.0000
  S   S808      1.0  0.72051  0.68343  0.20198  1.0000
  C   C2000     1.0  0.70292  0.52461  0.11928  1.0000
  S   S809      1.0  0.76831  0.51342  0.11747  1.0000
  C   C2001     1.0  0.90059  0.59004  0.99002  1.0000
  H   H3222     1.0  0.93688  0.62945  0.06687  1.0000
  H   H3223     1.0  0.62769  0.70044  0.19677  1.0000
  C   C2002     1.0  0.94752  0.52000  0.03255  1.0000
  H   H3224     1.0  0.88672  0.58981  0.99456  1.0000
  S   S810      1.0  0.93488  0.51765  0.00056  1.0000
  H   H3225     1.0  0.93152  0.65948  0.03580  1.0000
  C   C2003     1.0  0.99978  0.52516  0.03149  1.0000
  C   C2004     1.0  0.91923  0.66054  0.04353  1.0000
  N   N199      1.0  0.71637  0.51205  0.11206  1.0000
  H   H3226     1.0  0.91198  0.67470  0.04222  1.0000
  H   H3227     1.0  0.84752  0.51603  0.12193  1.0000
  H   H3228     1.0  0.94821  0.66353  0.05033  1.0000
  H   H3229     1.0  0.94918  0.51129  0.04160  1.0000
  C   C2005     1.0  0.99962  0.60750  0.03816  1.0000
  H   H3230     1.0  0.67802  0.51667  0.15235  1.0000
  H   H3231     1.0  0.69244  0.51804  0.12626  1.0000
  C   C2006     1.0  0.93543  0.66451  0.05765  1.0000
  N   N200      1.0  0.92377  0.65388  0.05618  1.0000
  H   H3232     1.0  0.92496  0.62683  0.05622  1.0000
  N   N201      1.0  0.88394  0.54488  0.01613  1.0000
  H   H3233     1.0  0.89789  0.64758  0.06506  1.0000
  H   H3234     1.0  0.92870  0.67882  0.05668  1.0000
  C   C2007     1.0  0.90706  0.65525  0.06611  1.0000
  C   C2008     1.0  0.89363  0.54628  0.00272  1.0000
  C   C2009     1.0  0.93337  0.63510  0.05741  1.0000
  H   H3235     1.0  0.78608  0.49820  0.13839  1.0000
  H   H3236     1.0  0.98163  0.51187  0.99904  1.0000
  C   C2010     1.0  0.91090  0.59665  0.99539  1.0000
  H   H3237     1.0  0.90988  0.64984  0.07579  1.0000
  H   H3238     1.0  0.89954  0.66927  0.06561  1.0000
  H   H3239     1.0  0.69542  0.67054  0.19445  1.0000
  C   C2011     1.0  0.69345  0.72577  0.20490  1.0000
  H   H3240     1.0  0.74029  0.51223  0.09730  1.0000
  Fe  Fe403     1.0  0.54477  0.72794  0.16918  1.0000
  C   C2012     1.0  0.52485  0.69222  0.16866  1.0000
  H   H3241     1.0  0.90495  0.60157  0.00402  1.0000
  C   C2013     1.0  0.83422  0.50070  0.10902  1.0000
  C   C2014     1.0  0.98396  0.49713  0.00215  1.0000
  N   N202      1.0  0.63154  0.71230  0.17680  1.0000
  C   C2015     1.0  0.89618  0.53396  0.02455  1.0000
  C   C2016     1.0  0.99958  0.58960  0.04377  1.0000
  H   H3242     1.0  0.99755  0.60889  0.01084  1.0000
  C   C2017     1.0  0.86246  0.50177  0.09410  1.0000
  H   H3243     1.0  0.52404  0.72692  0.11441  1.0000
  C   C2018     1.0  0.78911  0.51116  0.13397  1.0000
  S   S811      1.0  0.77439  0.70669  0.22903  1.0000
  H   H3244     1.0  0.86800  0.57145  0.01281  1.0000
  H   H3245     1.0  0.80002  0.72612  0.21062  1.0000
  H   H3246     1.0  0.63533  0.68664  0.17271  1.0000
  H   H3247     1.0  0.73648  0.52758  0.10727  1.0000
  H   H3248     1.0  0.98307  0.55394  0.01741  1.0000
  H   H3249     1.0  0.61045  0.71940  0.19248  1.0000
  C   C2019     1.0  0.61975  0.70746  0.18935  1.0000
  C   C2020     1.0  0.64333  0.69597  0.17296  1.0000
  C   C2021     1.0  0.87738  0.56286  0.01893  1.0000
  H   H3250     1.0  0.90228  0.52066  0.02218  1.0000
  H   H3251     1.0  0.69711  0.49743  0.11227  1.0000
  H   H3252     1.0  0.88507  0.55510  0.99610  1.0000
  H   H3253     1.0  0.89812  0.53310  0.00004  1.0000
  C   C2022     1.0  0.79956  0.72782  0.21997  1.0000
  H   H3254     1.0  0.61182  0.73450  0.16961  1.0000
  H   H3255     1.0  0.65167  0.72788  0.16818  1.0000
  C   C2023     1.0  0.70726  0.50458  0.10545  1.0000
  H   H3256     1.0  0.82369  0.50680  0.11636  1.0000
  C   C2024     1.0  0.99284  0.54435  0.01196  1.0000
  H   H3257     1.0  0.66891  0.73493  0.22537  1.0000
  C   C2025     1.0  0.51308  0.70400  0.17599  1.0000
  H   H3258     1.0  0.51163  0.72042  0.14945  1.0000
  H   H3259     1.0  0.85643  0.50177  0.08620  1.0000
  C   C2026     1.0  0.78807  0.71988  0.23053  1.0000
  H   H3260     1.0  0.63414  0.73655  0.18032  1.0000
  C   C2027     1.0  0.64263  0.72405  0.17752  1.0000
  H   H3261     1.0  0.70009  0.73812  0.22286  1.0000
  C   C2028     1.0  0.81072  0.73774  0.22153  1.0000
  N   N203      1.0  0.50391  0.72455  0.13173  1.0000
  Fe  Fe404     1.0  0.92371  0.49311  0.00880  1.0000
  H   H3262     1.0  0.97090  0.49380  0.00771  1.0000
  C   C2029     1.0  0.81044  0.73990  0.23361  1.0000
  H   H3263     1.0  0.99332  0.49279  0.00876  1.0000
  H   H3264     1.0  0.65871  0.74157  0.21183  1.0000
  H   H3265     1.0  0.82025  0.67720  0.26248  1.0000
  C   C2030     1.0  0.78765  0.72220  0.24263  1.0000
  Fe  Fe405     1.0  0.91455  0.57191  0.44829  1.0000
  S   S812      1.0  0.92815  0.54599  0.45871  1.0000
  S   S813      1.0  0.88900  0.58793  0.45786  1.0000
  Fe  Fe406     1.0  0.94178  0.56985  0.42360  1.0000
  S   S814      1.0  0.95775  0.54362  0.43215  1.0000
  S   S815      1.0  0.95373  0.58283  0.40360  1.0000
  Fe  Fe407     1.0  0.93114  0.53614  0.44109  1.0000
  S   S816      1.0  0.92819  0.50777  0.44454  1.0000
  Fe  Fe408     1.0  0.95337  0.55573  0.44885  1.0000
  S   S817      1.0  0.97621  0.55039  0.45854  1.0000
  S   S818      1.0  0.91528  0.56145  0.43130  1.0000
  S   S819      1.0  0.93960  0.58258  0.43971  1.0000
  H   H3266     1.0  0.90651  0.65251  0.41246  1.0000
  C   C2031     1.0  0.99425  0.68556  0.33183  1.0000
  H   H3267     1.0  0.97564  0.52059  0.41173  1.0000
  S   S820      1.0  0.85362  0.74126  0.26093  1.0000
  N   N204      1.0  0.98174  0.68627  0.37275  1.0000
  C   C2032     1.0  0.96914  0.67486  0.38056  1.0000
  H   H3268     1.0  0.89544  0.60157  0.43213  1.0000
  H   H3269     1.0  0.82864  0.66851  0.27682  1.0000
  H   H3270     1.0  0.87081  0.72829  0.28270  1.0000
  S   S821      1.0  0.83712  0.71897  0.29656  1.0000
  Fe  Fe409     1.0  0.91898  0.69106  0.33034  1.0000
  S   S822      1.0  0.90069  0.69329  0.34934  1.0000
  S   S823      1.0  0.91278  0.70384  0.31088  1.0000
  Fe  Fe410     1.0  0.95258  0.67693  0.34162  1.0000
  S   S824      1.0  0.93706  0.67849  0.36142  1.0000
  H   H3271     1.0  0.87978  0.64985  0.43043  1.0000
  Fe  Fe411     1.0  0.91766  0.66672  0.35668  1.0000
  S   S825      1.0  0.90496  0.64542  0.37138  1.0000
  Fe  Fe412     1.0  0.92184  0.70462  0.35240  1.0000
  C   C2033     1.0  0.98719  0.70104  0.32375  1.0000
  S   S826      1.0  0.93424  0.66335  0.33729  1.0000
  S   S827      1.0  0.93902  0.70406  0.33310  1.0000
  C   C2034     1.0  0.85817  0.71400  0.30065  1.0000
  C   C2035     1.0  0.86064  0.70388  0.31266  1.0000
  C   C2036     1.0  0.87732  0.70063  0.31606  1.0000
  C   C2037     1.0  0.89166  0.70710  0.30729  1.0000
  C   C2038     1.0  0.88920  0.71684  0.29522  1.0000
  C   C2039     1.0  0.87249  0.72053  0.29199  1.0000
  H   H3272     1.0  0.84963  0.69870  0.31939  1.0000
  H   H3273     1.0  0.87916  0.69297  0.32536  1.0000
  H   H3274     1.0  0.90029  0.72156  0.28829  1.0000
  N   N205      1.0  0.90010  0.62800  0.42439  1.0000
  H   H3275     1.0  0.97169  0.52474  0.39611  1.0000
  H   H3276     1.0  0.87588  0.62819  0.43886  1.0000
  H   H3277     1.0  0.89340  0.53582  0.47357  1.0000
  C   C2040     1.0  0.91922  0.49970  0.43494  1.0000
  H   H3278     1.0  0.84122  0.71630  0.25155  1.0000
  H   H3279     1.0  0.85191  0.69534  0.24717  1.0000
  C   C2041     1.0  0.99194  0.54945  0.38540  1.0000
  C   C2042     1.0  0.90798  0.50269  0.41612  1.0000
  H   H3280     1.0  0.95580  0.68293  0.38423  1.0000
  H   H3281     1.0  0.92561  0.62156  0.42972  1.0000
  H   H3282     1.0  0.89858  0.63988  0.40489  1.0000
  C   C2043     1.0  0.97399  0.69858  0.36217  1.0000
  H   H3283     1.0  0.97520  0.70185  0.32062  1.0000
  H   H3284     1.0  0.99673  0.66663  0.36178  1.0000
  C   C2044     1.0  0.97429  0.58556  0.45753  1.0000
  H   H3285     1.0  0.84370  0.66743  0.26166  1.0000
  C   C2045     1.0  0.90123  0.60985  0.42304  1.0000
  H   H3286     1.0  0.98149  0.56156  0.38717  1.0000
  C   C2046     1.0  0.99883  0.67495  0.36756  1.0000
  C   C2047     1.0  0.94018  0.59988  0.39442  1.0000
  C   C2048     1.0  0.94763  0.61367  0.38578  1.0000
  C   C2049     1.0  0.93704  0.62759  0.37851  1.0000
  C   C2050     1.0  0.91893  0.62772  0.37980  1.0000
  C   C2051     1.0  0.91160  0.61370  0.38824  1.0000
  C   C2052     1.0  0.92221  0.59976  0.39546  1.0000
  H   H3287     1.0  0.96162  0.61368  0.38475  1.0000
  H   H3288     1.0  0.94290  0.63819  0.37191  1.0000
  H   H3289     1.0  0.89768  0.61359  0.38911  1.0000
  H   H3290     1.0  0.91653  0.58884  0.40176  1.0000
  C   C2053     1.0  0.83182  0.67585  0.26680  1.0000
  C   C2054     1.0  0.98538  0.56897  0.45619  1.0000
  H   H3291     1.0  0.97123  0.69117  0.35608  1.0000
  H   H3292     1.0  0.95985  0.58721  0.45959  1.0000
  H   H3293     1.0  0.82839  0.70398  0.24771  1.0000
  H   H3294     1.0  0.90434  0.72773  0.33748  1.0000
  H   H3295     1.0  0.86308  0.68302  0.26702  1.0000
  H   H3296     1.0  0.82133  0.71743  0.27249  1.0000
  H   H3297     1.0  0.99437  0.70555  0.37500  1.0000
  C   C2055     1.0  0.91444  0.51013  0.42364  1.0000
  H   H3298     1.0  0.89371  0.60998  0.41593  1.0000
  H   H3299     1.0  0.98603  0.51038  0.46154  1.0000
  H   H3300     1.0  0.97336  0.61268  0.45790  1.0000
  H   H3301     1.0  0.91583  0.52382  0.42065  1.0000
  H   H3302     1.0  0.90434  0.51074  0.40737  1.0000
  H   H3303     1.0  0.77866  0.71621  0.25082  1.0000
  H   H3304     1.0  0.96108  0.70740  0.36569  1.0000
  H   H3305     1.0  0.81577  0.69769  0.28314  1.0000
  C   C2056     1.0  0.88881  0.59313  0.47222  1.0000
  H   H3306     1.0  0.80723  0.70612  0.26880  1.0000
  H   H3307     1.0  0.87244  0.63667  0.42291  1.0000
  C   C2057     1.0  0.98193  0.59993  0.45662  1.0000
  H   H3308     1.0  0.91676  0.58164  0.47239  1.0000
  H   H3309     1.0  0.98916  0.58366  0.48123  1.0000
  C   C2058     1.0  0.90680  0.63878  0.41184  1.0000
  H   H3310     1.0  0.87200  0.53217  0.48310  1.0000
  H   H3311     1.0  0.99067  0.72719  0.31302  1.0000
  S   S828      1.0  0.91735  0.73049  0.35824  1.0000
  H   H3312     1.0  0.98342  0.70707  0.35594  1.0000
  S   S829      1.0  0.98265  0.66819  0.33858  1.0000
  C   C2059     1.0  0.88120  0.63607  0.42935  1.0000
  H   H3313     1.0  0.84785  0.68432  0.28213  1.0000
  N   N206      1.0  0.83527  0.69341  0.26603  1.0000
  H   H3314     1.0  0.91541  0.60297  0.42005  1.0000
  C   C2060     1.0  0.91109  0.50164  0.47833  1.0000
  C   C2061     1.0  0.83940  0.70263  0.25256  1.0000
  C   C2062     1.0  0.91118  0.62718  0.43333  1.0000
  C   C2063     1.0  0.99603  0.71531  0.31936  1.0000
  H   H3315     1.0  0.85353  0.70403  0.27158  1.0000
  H   H3316     1.0  0.96449  0.54240  0.40463  1.0000
  H   H3317     1.0  0.91024  0.64059  0.43490  1.0000
  H   H3318     1.0  0.97244  0.70504  0.38499  1.0000
  H   H3319     1.0  0.92089  0.63271  0.40769  1.0000
  C   C2064     1.0  0.97542  0.53071  0.40268  1.0000
  C   C2065     1.0  0.85062  0.69104  0.27191  1.0000
  H   H3320     1.0  0.90683  0.61861  0.44277  1.0000
  C   C2066     1.0  0.99764  0.54320  0.40644  1.0000
  H   H3321     1.0  0.83852  0.72887  0.32874  1.0000
  H   H3322     1.0  0.99822  0.53341  0.41559  1.0000
  C   C2067     1.0  0.88618  0.50812  0.46814  1.0000
  H   H3323     1.0  0.96270  0.73239  0.33540  1.0000
  C   C2068     1.0  0.90421  0.58863  0.47730  1.0000
  C   C2069     1.0  0.98508  0.69664  0.38067  1.0000
  H   H3324     1.0  0.98760  0.55541  0.40853  1.0000
  C   C2070     1.0  0.00063  0.59776  0.45420  1.0000
  H   H3325     1.0  0.91862  0.51012  0.47022  1.0000
  H   H3326     1.0  0.89273  0.51699  0.45968  1.0000
  C   C2071     1.0  0.79868  0.73231  0.24417  1.0000
  C   C2072     1.0  0.81915  0.70411  0.27290  1.0000
  H   H3327     1.0  0.87141  0.51260  0.46897  1.0000
  H   H3328     1.0  0.96697  0.66634  0.37495  1.0000
  H   H3329     1.0  0.86072  0.60565  0.47481  1.0000
  C   C2073     1.0  0.87267  0.60216  0.47865  1.0000
  C   C2074     1.0  0.88672  0.52673  0.48179  1.0000
  H   H3330     1.0  0.97441  0.66582  0.38883  1.0000
  N   N207      1.0  0.99297  0.53586  0.39726  1.0000
  N   N208      1.0  0.89150  0.50836  0.47975  1.0000
  H   H3331     1.0  0.89023  0.49449  0.46612  1.0000
  H   H3332     1.0  0.86651  0.73922  0.31641  1.0000
  H   H3333     1.0  0.98846  0.54436  0.37826  1.0000
  H   H3334     1.0  0.99156  0.68780  0.38848  1.0000
  H   H3335     1.0  0.92672  0.73177  0.28962  1.0000
  H   H3336     1.0  0.99136  0.51707  0.48008  1.0000
  H   H3337     1.0  0.79810  0.73422  0.25347  1.0000
  H   H3338     1.0  0.82723  0.74121  0.31616  1.0000
  C   C2075     1.0  0.90177  0.74154  0.33774  1.0000
  H   H3339     1.0  0.97779  0.55619  0.48429  1.0000
  C   C2076     1.0  0.00060  0.50885  0.45704  1.0000
  C   C2077     1.0  0.85990  0.54875  0.53579  1.0000
  H   H3340     1.0  0.90137  0.69812  0.64164  1.0000
  N   N209      1.0  0.98748  0.68179  0.56223  1.0000
  C   C2078     1.0  0.98839  0.70726  0.60527  1.0000
  H   H3341     1.0  0.95215  0.72518  0.64846  1.0000
  H   H3342     1.0  0.84851  0.55602  0.53108  1.0000
  N   N210      1.0  0.98933  0.56212  0.49761  1.0000
  Fe  Fe413     1.0  0.94609  0.61123  0.51490  1.0000
  S   S830      1.0  0.91840  0.62699  0.52114  1.0000
  S   S831      1.0  0.96723  0.62459  0.50109  1.0000
  Fe  Fe414     1.0  0.93709  0.57614  0.52960  1.0000
  S   S832      1.0  0.90891  0.58890  0.53760  1.0000
  S   S833      1.0  0.94716  0.54644  0.53380  1.0000
  Fe  Fe415     1.0  0.90917  0.60479  0.51774  1.0000
  Fe  Fe416     1.0  0.92066  0.60988  0.54040  1.0000
  S   S834      1.0  0.90858  0.62100  0.55822  1.0000
  S   S835      1.0  0.93665  0.59079  0.50961  1.0000
  S   S836      1.0  0.94911  0.59540  0.53434  1.0000
  Fe  Fe417     1.0  0.92619  0.69521  0.58491  1.0000
  S   S837      1.0  0.94069  0.67684  0.59961  1.0000
  S   S838      1.0  0.93147  0.68670  0.56617  1.0000
  H   H3343     1.0  0.87123  0.72967  0.63881  1.0000
  S   S839      1.0  0.92841  0.70898  0.61554  1.0000
  Fe  Fe418     1.0  0.95072  0.70035  0.59974  1.0000
  Fe  Fe419     1.0  0.91686  0.68724  0.61384  1.0000
  S   S840      1.0  0.90424  0.66830  0.63034  1.0000
  S   S841      1.0  0.93751  0.71852  0.58424  1.0000
  S   S842      1.0  0.90117  0.70384  0.59915  1.0000
  H   H3344     1.0  0.93840  0.72739  0.63749  1.0000
  S   S843      1.0  0.84288  0.70204  0.67165  1.0000
  C   C2079     1.0  0.97443  0.63755  0.50824  1.0000
  H   H3345     1.0  0.94697  0.66034  0.52906  1.0000
  H   H3346     1.0  0.96900  0.66448  0.56676  1.0000
  H   H3347     1.0  0.90159  0.68047  0.52243  1.0000
  H   H3348     1.0  0.93724  0.70687  0.51101  1.0000
  H   H3349     1.0  0.96366  0.69145  0.57492  1.0000
  H   H3350     1.0  0.92815  0.73173  0.65309  1.0000
  S   S844      1.0  0.99414  0.67145  0.52603  1.0000
  H   H3351     1.0  0.77392  0.71684  0.71420  1.0000
  H   H3352     1.0  0.85447  0.54599  0.54623  1.0000
  C   C2080     1.0  0.87207  0.73439  0.62846  1.0000
  C   C2081     1.0  0.81314  0.71566  0.71930  1.0000
  H   H3353     1.0  0.80245  0.69322  0.72005  1.0000
  C   C2082     1.0  0.97356  0.69662  0.56656  1.0000
  C   C2083     1.0  0.88830  0.67729  0.64253  1.0000
  C   C2084     1.0  0.87364  0.66934  0.64865  1.0000
  C   C2085     1.0  0.86008  0.67671  0.65791  1.0000
  C   C2086     1.0  0.86130  0.69183  0.66134  1.0000
  C   C2087     1.0  0.87646  0.69927  0.65576  1.0000
  C   C2088     1.0  0.88983  0.69221  0.64615  1.0000
  H   H3354     1.0  0.87254  0.65770  0.64599  1.0000
  H   H3355     1.0  0.84847  0.67082  0.66227  1.0000
  C   C2089     1.0  0.93990  0.73327  0.64501  1.0000
  C   C2090     1.0  0.91632  0.63774  0.56149  1.0000
  C   C2091     1.0  0.93275  0.64212  0.55483  1.0000
  C   C2092     1.0  0.93777  0.65657  0.55686  1.0000
  C   C2093     1.0  0.92654  0.66658  0.56570  1.0000
  C   C2094     1.0  0.91057  0.66156  0.57287  1.0000
  C   C2095     1.0  0.90548  0.64722  0.57075  1.0000
  H   H3356     1.0  0.94147  0.63452  0.54798  1.0000
  H   H3357     1.0  0.95024  0.66017  0.55133  1.0000
  H   H3358     1.0  0.90179  0.66914  0.57971  1.0000
  H   H3359     1.0  0.89285  0.64373  0.57608  1.0000
  C   C2096     1.0  0.92167  0.51492  0.51759  1.0000
  C   C2097     1.0  0.92135  0.53295  0.51220  1.0000
  C   C2098     1.0  0.92947  0.54264  0.51694  1.0000
  C   C2099     1.0  0.93828  0.53423  0.52694  1.0000
  C   C2100     1.0  0.93948  0.51595  0.53183  1.0000
  C   C2101     1.0  0.93111  0.50631  0.52722  1.0000
  H   H3360     1.0  0.91462  0.53953  0.50444  1.0000
  H   H3361     1.0  0.92868  0.55663  0.51295  1.0000
  H   H3362     1.0  0.94650  0.50933  0.53945  1.0000
  S   S845      1.0  0.86121  0.72652  0.69007  1.0000
  C   C2102     1.0  0.81383  0.72785  0.72596  1.0000
  H   H3363     1.0  0.88466  0.54611  0.54911  1.0000
  N   N211      1.0  0.92802  0.68321  0.52197  1.0000
  C   C2103     1.0  0.91244  0.68713  0.51604  1.0000
  C   C2104     1.0  0.92232  0.68958  0.53398  1.0000
  C   C2105     1.0  0.94216  0.69221  0.51329  1.0000
  C   C2106     1.0  0.93518  0.66382  0.52460  1.0000
  H   H3364     1.0  0.91629  0.68230  0.50702  1.0000
  H   H3365     1.0  0.86958  0.70554  0.62211  1.0000
  H   H3366     1.0  0.93395  0.68770  0.53835  1.0000
  H   H3367     1.0  0.91597  0.70398  0.53249  1.0000
  H   H3368     1.0  0.91250  0.68225  0.54112  1.0000
  H   H3369     1.0  0.95404  0.68951  0.51760  1.0000
  H   H3370     1.0  0.97432  0.61865  0.52609  1.0000
  H   H3371     1.0  0.93154  0.49237  0.53138  1.0000
  C   C2107     1.0  0.98659  0.55956  0.51153  1.0000
  H   H3372     1.0  0.93959  0.65853  0.51576  1.0000
  C   C2108     1.0  0.83973  0.74093  0.63238  1.0000
  H   H3373     1.0  0.90015  0.55603  0.53604  1.0000
  H   H3374     1.0  0.97614  0.65877  0.49163  1.0000
  H   H3375     1.0  0.87020  0.57176  0.51338  1.0000
  S   S846      1.0  0.98055  0.69720  0.59639  1.0000
  H   H3376     1.0  0.98694  0.66650  0.58130  1.0000
  H   H3377     1.0  0.97793  0.53992  0.49899  1.0000
  H   H3378     1.0  0.82024  0.71640  0.70951  1.0000
  C   C2109     1.0  0.88717  0.60257  0.49508  1.0000
  C   C2110     1.0  0.97810  0.65401  0.50127  1.0000
  H   H3379     1.0  0.96763  0.70323  0.62210  1.0000
  H   H3380     1.0  0.89240  0.56917  0.51555  1.0000
  H   H3381     1.0  0.98135  0.71488  0.63488  1.0000
  H   H3382     1.0  0.97298  0.56661  0.51569  1.0000
  H   H3383     1.0  0.96757  0.49827  0.51067  1.0000
  H   H3384     1.0  0.88490  0.72687  0.62355  1.0000
  H   H3385     1.0  0.98778  0.54522  0.51628  1.0000
  H   H3386     1.0  0.89489  0.53576  0.53575  1.0000
  H   H3387     1.0  0.96604  0.70450  0.55906  1.0000
  C   C2111     1.0  0.80306  0.70257  0.72527  1.0000
  C   C2112     1.0  0.97891  0.67019  0.55859  1.0000
  H   H3388     1.0  0.90667  0.70165  0.51383  1.0000
  C   C2113     1.0  0.88904  0.54880  0.53859  1.0000
  C   C2114     1.0  0.98753  0.71480  0.62503  1.0000
  C   C2115     1.0  0.97690  0.63145  0.52072  1.0000
  H   H3389     1.0  0.97158  0.67771  0.55092  1.0000
  H   H3390     1.0  0.91559  0.50151  0.48694  1.0000
  C   C2116     1.0  0.97627  0.55442  0.49470  1.0000
  C   C2117     1.0  0.86656  0.57615  0.53651  1.0000
  H   H3391     1.0  0.99421  0.69656  0.54309  1.0000
  H   H3392     1.0  0.85510  0.58418  0.53207  1.0000
  S   S847      1.0  0.88498  0.60861  0.50956  1.0000
  H   H3393     1.0  0.96221  0.56074  0.49860  1.0000
  H   H3394     1.0  0.76736  0.72264  0.69925  1.0000
  H   H3395     1.0  0.84563  0.71067  0.62366  1.0000
  H   H3396     1.0  0.87674  0.58449  0.53368  1.0000
  S   S848      1.0  0.90854  0.50410  0.51304  1.0000
  H   H3397     1.0  0.94702  0.68749  0.50421  1.0000
  H   H3398     1.0  0.78833  0.72639  0.70009  1.0000
  C   C2118     1.0  0.99663  0.67149  0.57266  1.0000
  H   H3399     1.0  0.88500  0.55020  0.51477  1.0000
  H   H3400     1.0  0.87766  0.71067  0.65866  1.0000
  Fe  Fe420     1.0  0.84569  0.72672  0.67597  1.0000
  C   C2119     1.0  0.77403  0.72693  0.70513  1.0000
  C   C2120     1.0  0.97981  0.70819  0.61783  1.0000
  N   N212      1.0  0.85643  0.73210  0.62474  1.0000
  H   H3401     1.0  0.83865  0.73493  0.64272  1.0000
  Fe  Fe421     1.0  0.91426  0.72516  0.59994  1.0000
  H   H3402     1.0  0.86522  0.53569  0.53289  1.0000
  H   H3403     1.0  0.97942  0.70576  0.56939  1.0000
  C   C2121     1.0  0.85665  0.71295  0.62701  1.0000
  N   N213      1.0  0.87405  0.55910  0.53233  1.0000
  C   C2122     1.0  0.98419  0.66440  0.50678  1.0000
  C   C2123     1.0  0.98687  0.65823  0.51919  1.0000
  C   C2124     1.0  0.88069  0.56267  0.51841  1.0000
  H   H3404     1.0  0.98548  0.63690  0.53575  1.0000
  H   H3405     1.0  0.86186  0.57409  0.54700  1.0000
  H   H3406     1.0  0.98702  0.67715  0.50139  1.0000
  H   H3407     1.0  0.92490  0.65657  0.53115  1.0000
  C   C2125     1.0  0.98338  0.64170  0.52614  1.0000
  H   H3408     1.0  0.98893  0.65897  0.55500  1.0000
  H   H3409     1.0  0.85493  0.70670  0.63727  1.0000
  H   H3410     1.0  0.74647  0.73520  0.72424  1.0000
  H   H3411     1.0  0.86726  0.50156  0.49224  1.0000
  H   H3412     1.0  0.99655  0.56465  0.51416  1.0000
  C   C2126     1.0  0.00062  0.68899  0.55122  1.0000
  C   C2127     1.0  0.90339  0.59338  0.48874  1.0000
  C   C2128     1.0  0.87184  0.60678  0.49002  1.0000
  H   H3413     1.0  0.84569  0.73883  0.60792  1.0000
  H   H3414     1.0  0.86978  0.73371  0.60515  1.0000
  C   C2129     1.0  0.85731  0.74015  0.61111  1.0000
  H   H3415     1.0  0.82763  0.73963  0.62977  1.0000
  H   H3416     1.0  0.88603  0.49649  0.49968  1.0000
  H   H3417     1.0  0.85926  0.61382  0.49487  1.0000
  H   H3418     1.0  0.97289  0.58857  0.49509  1.0000
  H   H3419     1.0  0.91528  0.58994  0.49259  1.0000
  H   H3420     1.0  0.73858  0.74036  0.70978  1.0000
  H   H3421     1.0  0.83267  0.68308  0.73528  1.0000
  C   C2130     1.0  0.98676  0.58130  0.49175  1.0000
  C   C2131     1.0  0.88208  0.49686  0.49078  1.0000
  H   H3422     1.0  0.99602  0.58763  0.49407  1.0000
  H   H3423     1.0  0.89097  0.52730  0.49036  1.0000
  H   H3424     1.0  0.77589  0.74084  0.72385  1.0000
  S   S849      1.0  0.00113  0.50500  0.51018  1.0000
  H   H3425     1.0  0.84317  0.65998  0.73651  1.0000
  C   C2132     1.0  0.90960  0.54436  0.91023  1.0000
  C   C2133     1.0  0.66796  0.51667  0.81767  1.0000
  H   H3426     1.0  0.69163  0.70276  0.79969  1.0000
  Fe  Fe422     1.0  0.92302  0.60835  0.92906  1.0000
  S   S850      1.0  0.89462  0.61285  0.94012  1.0000
  S   S851      1.0  0.93953  0.62884  0.92517  1.0000
  Fe  Fe423     1.0  0.92128  0.57306  0.92497  1.0000
  S   S852      1.0  0.89295  0.57394  0.93618  1.0000
  S   S853      1.0  0.93883  0.55288  0.91391  1.0000
  Fe  Fe424     1.0  0.88803  0.60240  0.92555  1.0000
  S   S854      1.0  0.86641  0.61724  0.91449  1.0000
  Fe  Fe425     1.0  0.90213  0.58423  0.94977  1.0000
  S   S855      1.0  0.89437  0.57781  0.97125  1.0000
  S   S856      1.0  0.91592  0.60073  0.91354  1.0000
  S   S857      1.0  0.93103  0.58043  0.93945  1.0000
  Fe  Fe426     1.0  0.80280  0.58897  0.88677  1.0000
  S   S858      1.0  0.82650  0.57653  0.87356  1.0000
  S   S859      1.0  0.80733  0.58343  0.90665  1.0000
  Fe  Fe427     1.0  0.77895  0.59828  0.86739  1.0000
  S   S860      1.0  0.80102  0.58599  0.85294  1.0000
  S   S861      1.0  0.75291  0.61187  0.86105  1.0000
  Fe  Fe428     1.0  0.80702  0.56429  0.86961  1.0000
  S   S862      1.0  0.81473  0.53519  0.87023  1.0000
  Fe  Fe429     1.0  0.81804  0.59969  0.85845  1.0000
  S   S863      1.0  0.83939  0.61321  0.84502  1.0000
  S   S864      1.0  0.78354  0.57522  0.88365  1.0000
  S   S865      1.0  0.79573  0.61356  0.87195  1.0000
  Fe  Fe430     1.0  0.79620  0.66136  0.78790  1.0000
  S   S866      1.0  0.79307  0.64899  0.77314  1.0000
  S   S867      1.0  0.82347  0.65793  0.79171  1.0000
  Fe  Fe431     1.0  0.75730  0.68046  0.79267  1.0000
  S   S868      1.0  0.73612  0.69727  0.80487  1.0000
  Fe  Fe432     1.0  0.76729  0.64429  0.78651  1.0000
  S   S869      1.0  0.75747  0.61921  0.79068  1.0000
  S   S870      1.0  0.77186  0.65414  0.80201  1.0000
  S   S871      1.0  0.78205  0.68883  0.77983  1.0000
  H   H3427     1.0  0.78972  0.53269  0.89679  1.0000
  S   S872      1.0  0.52577  0.69976  0.85525  1.0000
  Fe  Fe433     1.0  0.56887  0.70754  0.82940  1.0000
  S   S873      1.0  0.56569  0.70930  0.84950  1.0000
  S   S874      1.0  0.59570  0.71011  0.81626  1.0000
  Fe  Fe434     1.0  0.55452  0.68474  0.85431  1.0000
  S   S875      1.0  0.56602  0.66325  0.86943  1.0000
  Fe  Fe435     1.0  0.53757  0.72409  0.84848  1.0000
  N   N214      1.0  0.99135  0.56221  0.91615  1.0000
  S   S876      1.0  0.55931  0.68206  0.83416  1.0000
  S   S877      1.0  0.54171  0.72456  0.82785  1.0000
  Fe  Fe436     1.0  0.67149  0.56559  0.83236  1.0000
  S   S878      1.0  0.65909  0.56063  0.85306  1.0000
  S   S879      1.0  0.67927  0.54406  0.82118  1.0000
  Fe  Fe437     1.0  0.67109  0.60436  0.83139  1.0000
  S   S880      1.0  0.65867  0.60225  0.85211  1.0000
  S   S881      1.0  0.67690  0.63099  0.82058  1.0000
  Fe  Fe438     1.0  0.67831  0.57590  0.85437  1.0000
  S   S882      1.0  0.69745  0.56418  0.86754  1.0000
  Fe  Fe439     1.0  0.64093  0.58737  0.84843  1.0000
  S   S883      1.0  0.61081  0.59172  0.85264  1.0000
  S   S884      1.0  0.69198  0.57913  0.83388  1.0000
  S   S885      1.0  0.65209  0.59131  0.82746  1.0000
  H   H3428     1.0  0.69536  0.69871  0.76674  1.0000
  C   C2134     1.0  0.86363  0.52368  0.87220  1.0000
  H   H3429     1.0  0.66209  0.68684  0.79667  1.0000
  H   H3430     1.0  0.85181  0.65318  0.76863  1.0000
  H   H3431     1.0  0.78516  0.55512  0.90974  1.0000
  C   C2135     1.0  0.90144  0.53672  0.90400  1.0000
  H   H3432     1.0  0.90250  0.54776  0.91925  1.0000
  C   C2136     1.0  0.57819  0.64324  0.86487  1.0000
  C   C2137     1.0  0.59365  0.63401  0.86955  1.0000
  C   C2138     1.0  0.60402  0.61839  0.86559  1.0000
  C   C2139     1.0  0.59857  0.61164  0.85730  1.0000
  C   C2140     1.0  0.58303  0.62077  0.85272  1.0000
  C   C2141     1.0  0.57303  0.63672  0.85631  1.0000
  H   H3433     1.0  0.59767  0.63902  0.87617  1.0000
  H   H3434     1.0  0.61591  0.61131  0.86926  1.0000
  H   H3435     1.0  0.57873  0.61557  0.84633  1.0000
  H   H3436     1.0  0.56108  0.64375  0.85271  1.0000
  C   C2142     1.0  0.72535  0.71585  0.79508  1.0000
  H   H3437     1.0  0.96742  0.58152  0.92143  1.0000
  C   C2143     1.0  0.64825  0.49927  0.83375  1.0000
  N   N215      1.0  0.86755  0.51126  0.86365  1.0000
  C   C2144     1.0  0.73082  0.71821  0.78188  1.0000
  C   C2145     1.0  0.71540  0.52819  0.84498  1.0000
  H   H3438     1.0  0.68697  0.66080  0.79357  1.0000
  H   H3439     1.0  0.88811  0.53422  0.90827  1.0000
  C   C2146     1.0  0.73490  0.62287  0.79855  1.0000
  C   C2147     1.0  0.72733  0.63770  0.80408  1.0000
  C   C2148     1.0  0.70950  0.64012  0.81091  1.0000
  C   C2149     1.0  0.69922  0.62776  0.81219  1.0000
  C   C2150     1.0  0.70679  0.61292  0.80670  1.0000
  C   C2151     1.0  0.72461  0.61051  0.79984  1.0000
  H   H3440     1.0  0.73531  0.64712  0.80331  1.0000
  H   H3441     1.0  0.70381  0.65134  0.81543  1.0000
  H   H3442     1.0  0.69881  0.60342  0.80756  1.0000
  H   H3443     1.0  0.73036  0.59911  0.79548  1.0000
  C   C2152     1.0  0.97872  0.57938  0.91318  1.0000
  H   H3444     1.0  0.78762  0.71277  0.75444  1.0000
  H   H3445     1.0  0.94504  0.63757  0.94866  1.0000
  N   N216      1.0  0.71071  0.51216  0.85421  1.0000
  S   S886      1.0  0.76717  0.51743  0.84044  1.0000
  C   C2153     1.0  0.83444  0.62534  0.83028  1.0000
  C   C2154     1.0  0.84638  0.63555  0.82199  1.0000
  C   C2155     1.0  0.84287  0.64542  0.81019  1.0000
  C   C2156     1.0  0.82740  0.64514  0.80656  1.0000
  C   C2157     1.0  0.81551  0.63473  0.81475  1.0000
  C   C2158     1.0  0.81896  0.62493  0.82666  1.0000
  H   H3446     1.0  0.85837  0.63589  0.82471  1.0000
  H   H3447     1.0  0.85215  0.65336  0.80390  1.0000
  H   H3448     1.0  0.80387  0.63401  0.81182  1.0000
  H   H3449     1.0  0.80979  0.61692  0.83295  1.0000
  C   C2159     1.0  0.73769  0.59837  0.86294  1.0000
  C   C2160     1.0  0.72243  0.60554  0.85766  1.0000
  C   C2161     1.0  0.71018  0.59503  0.85889  1.0000
  C   C2162     1.0  0.71290  0.57740  0.86567  1.0000
  C   C2163     1.0  0.72822  0.57018  0.87088  1.0000
  C   C2164     1.0  0.74068  0.58060  0.86941  1.0000
  H   H3450     1.0  0.72003  0.61926  0.85262  1.0000
  H   H3451     1.0  0.69843  0.60068  0.85481  1.0000
  H   H3452     1.0  0.73046  0.55651  0.87605  1.0000
  H   H3453     1.0  0.75241  0.57493  0.87348  1.0000
  H   H3454     1.0  0.65810  0.52960  0.84571  1.0000
  C   C2165     1.0  0.00012  0.61104  0.92259  1.0000
  C   C2166     1.0  0.93629  0.54221  0.89342  1.0000
  N   N217      1.0  0.91783  0.64446  0.95901  1.0000
  H   H3455     1.0  0.94999  0.54379  0.88950  1.0000
  H   H3456     1.0  0.90836  0.64180  0.94352  1.0000
  C   C2167     1.0  0.90787  0.58466  0.97841  1.0000
  C   C2168     1.0  0.90449  0.63541  0.96869  1.0000
  H   H3457     1.0  0.94959  0.59298  0.97284  1.0000
  C   C2169     1.0  0.85016  0.60738  0.91257  1.0000
  C   C2170     1.0  0.84684  0.59106  0.92012  1.0000
  C   C2171     1.0  0.83351  0.58388  0.91835  1.0000
  C   C2172     1.0  0.82391  0.59267  0.90875  1.0000
  C   C2173     1.0  0.82758  0.60874  0.90100  1.0000
  C   C2174     1.0  0.84042  0.61620  0.90307  1.0000
  H   H3458     1.0  0.85423  0.58419  0.92750  1.0000
  H   H3459     1.0  0.83071  0.57145  0.92440  1.0000
  H   H3460     1.0  0.82016  0.61568  0.89365  1.0000
  H   H3461     1.0  0.84286  0.62889  0.89726  1.0000
  H   H3462     1.0  0.68268  0.52412  0.85890  1.0000
  H   H3463     1.0  0.82814  0.69741  0.75360  1.0000
  C   C2175     1.0  0.97446  0.62889  0.91378  1.0000
  C   C2176     1.0  0.96276  0.62122  0.92430  1.0000
  C   C2177     1.0  0.96973  0.60849  0.93413  1.0000
  H   H3464     1.0  0.81712  0.52071  0.92715  1.0000
  Fe  Fe440     1.0  0.87095  0.49239  0.92757  1.0000
  H   H3465     1.0  0.96916  0.63884  0.90623  1.0000
  H   H3466     1.0  0.96077  0.60254  0.94234  1.0000
  H   H3467     1.0  0.70943  0.68369  0.79764  1.0000
  C   C2178     1.0  0.94289  0.50109  0.92348  1.0000
  H   H3468     1.0  0.94091  0.62604  0.96496  1.0000
  C   C2179     1.0  0.92722  0.54664  0.90511  1.0000
  H   H3469     1.0  0.66510  0.69472  0.77977  1.0000
  C   C2180     1.0  0.80072  0.52964  0.86293  1.0000
  C   C2181     1.0  0.98458  0.54027  0.96605  1.0000
  H   H3470     1.0  0.62532  0.72519  0.80048  1.0000
  H   H3471     1.0  0.67529  0.51983  0.80796  1.0000
  C   C2182     1.0  0.80591  0.51364  0.85880  1.0000
  H   H3472     1.0  0.89833  0.66232  0.94869  1.0000
  C   C2183     1.0  0.88703  0.50344  0.86109  1.0000
  S   S887      1.0  0.90040  0.52263  0.88457  1.0000
  S   S888      1.0  0.51166  0.69976  0.82325  1.0000
  H   H3473     1.0  0.66567  0.70896  0.78955  1.0000
  C   C2184     1.0  0.93593  0.59210  0.97772  1.0000
  C   C2185     1.0  0.79536  0.50973  0.85212  1.0000
  C   C2186     1.0  0.98191  0.54755  0.91895  1.0000
  H   H3474     1.0  0.94260  0.50984  0.95162  1.0000
  S   S889      1.0  0.98312  0.52119  0.94951  1.0000
  Fe  Fe441     1.0  0.77691  0.67587  0.76610  1.0000
  H   H3475     1.0  0.93169  0.58065  0.96380  1.0000
  H   H3476     1.0  0.97004  0.54301  0.96819  1.0000
  Fe  Fe442     1.0  0.53153  0.69929  0.83456  1.0000
  H   H3477     1.0  0.74234  0.70920  0.77767  1.0000
  H   H3478     1.0  0.91533  0.52423  0.93451  1.0000
  N   N218      1.0  0.75816  0.66189  0.83977  1.0000
  C   C2187     1.0  0.77522  0.64873  0.83746  1.0000
  C   C2188     1.0  0.75334  0.66309  0.85326  1.0000
  C   C2189     1.0  0.74374  0.65627  0.83676  1.0000
  C   C2190     1.0  0.76036  0.67943  0.83161  1.0000
  H   H3479     1.0  0.77918  0.64729  0.82744  1.0000
  H   H3480     1.0  0.77416  0.63535  0.84353  1.0000
  H   H3481     1.0  0.78646  0.65262  0.83951  1.0000
  H   H3482     1.0  0.74059  0.67296  0.85538  1.0000
  H   H3483     1.0  0.75149  0.65003  0.85963  1.0000
  H   H3484     1.0  0.76401  0.66709  0.85592  1.0000
  H   H3485     1.0  0.73068  0.66587  0.83849  1.0000
  H   H3486     1.0  0.74182  0.64300  0.84265  1.0000
  H   H3487     1.0  0.74680  0.65538  0.82663  1.0000
  H   H3488     1.0  0.76419  0.67890  0.82136  1.0000
  H   H3489     1.0  0.77099  0.68422  0.83368  1.0000
  H   H3490     1.0  0.74765  0.68966  0.83289  1.0000
  N   N219      1.0  0.75935  0.58128  0.82603  1.0000
  C   C2191     1.0  0.74563  0.57091  0.83346  1.0000
  C   C2192     1.0  0.75179  0.60036  0.82592  1.0000
  C   C2193     1.0  0.76474  0.57842  0.81290  1.0000
  C   C2194     1.0  0.77524  0.57542  0.83183  1.0000
  H   H3491     1.0  0.75083  0.55644  0.83367  1.0000
  H   H3492     1.0  0.73343  0.57512  0.82937  1.0000
  H   H3493     1.0  0.74130  0.57266  0.84344  1.0000
  H   H3494     1.0  0.76101  0.60879  0.81930  1.0000
  H   H3495     1.0  0.73875  0.60480  0.82286  1.0000
  H   H3496     1.0  0.74928  0.60318  0.83551  1.0000
  H   H3497     1.0  0.77503  0.58610  0.80694  1.0000
  H   H3498     1.0  0.75311  0.58276  0.80822  1.0000
  H   H3499     1.0  0.77046  0.56412  0.81269  1.0000
  H   H3500     1.0  0.78166  0.56121  0.83170  1.0000
  H   H3501     1.0  0.77155  0.57679  0.84191  1.0000
  H   H3502     1.0  0.78558  0.58340  0.82667  1.0000
  H   H3503     1.0  0.78038  0.55359  0.86432  1.0000
  H   H3504     1.0  0.87150  0.53428  0.86813  1.0000
  C   C2195     1.0  0.79488  0.71339  0.74471  1.0000
  C   C2196     1.0  0.84575  0.65306  0.76077  1.0000
  H   H3505     1.0  0.78368  0.51641  0.91092  1.0000
  C   C2197     1.0  0.72557  0.50303  0.86084  1.0000
  C   C2198     1.0  0.69871  0.69929  0.77562  1.0000
  H   H3506     1.0  0.81402  0.54785  0.89496  1.0000
  C   C2199     1.0  0.80483  0.72662  0.73870  1.0000
  H   H3507     1.0  0.79650  0.54998  0.92247  1.0000
  C   C2200     1.0  0.69400  0.66956  0.78529  1.0000
  C   C2201     1.0  0.78462  0.54140  0.86087  1.0000
  C   C2202     1.0  0.99359  0.54645  0.97264  1.0000
  C   C2203     1.0  0.85748  0.49698  0.86977  1.0000
  C   C2204     1.0  0.65816  0.52235  0.83887  1.0000
  H   H3508     1.0  0.76122  0.54610  0.85320  1.0000
  H   H3509     1.0  0.90889  0.63004  0.97786  1.0000
  N   N220      1.0  0.60974  0.55607  0.83232  1.0000
  C   C2205     1.0  0.60394  0.57561  0.82878  1.0000
  C   C2206     1.0  0.62476  0.54980  0.82228  1.0000
  C   C2207     1.0  0.59459  0.54768  0.83377  1.0000
  C   C2208     1.0  0.61568  0.55116  0.84446  1.0000
  H   H3510     1.0  0.59279  0.58084  0.83626  1.0000
  H   H3511     1.0  0.61513  0.58227  0.82764  1.0000
  H   H3512     1.0  0.62096  0.55374  0.81289  1.0000
  H   H3513     1.0  0.63673  0.55529  0.82125  1.0000
  H   H3514     1.0  0.62903  0.53506  0.82443  1.0000
  H   H3515     1.0  0.59863  0.53290  0.83642  1.0000
  H   H3516     1.0  0.58974  0.55108  0.82480  1.0000
  H   H3517     1.0  0.58307  0.55206  0.84133  1.0000
  H   H3518     1.0  0.61948  0.53650  0.84770  1.0000
  H   H3519     1.0  0.60492  0.55636  0.85214  1.0000
  H   H3520     1.0  0.62751  0.55674  0.84360  1.0000
  N   N221      1.0  0.62395  0.65805  0.83229  1.0000
  C   C2209     1.0  0.62387  0.64191  0.82829  1.0000
  C   C2210     1.0  0.63387  0.66963  0.82166  1.0000
  C   C2211     1.0  0.63270  0.65288  0.84323  1.0000
  C   C2212     1.0  0.60531  0.66783  0.83595  1.0000
  H   H3521     1.0  0.61657  0.63286  0.83614  1.0000
  H   H3522     1.0  0.63775  0.63425  0.82538  1.0000
  H   H3523     1.0  0.61717  0.64527  0.82015  1.0000
  H   H3524     1.0  0.63399  0.68199  0.82438  1.0000
  H   H3525     1.0  0.64802  0.66269  0.81861  1.0000
  H   H3526     1.0  0.62744  0.67384  0.81331  1.0000
  H   H3527     1.0  0.63284  0.66471  0.84661  1.0000
  H   H3528     1.0  0.64684  0.64549  0.84076  1.0000
  H   H3529     1.0  0.62553  0.64409  0.85138  1.0000
  H   H3530     1.0  0.60474  0.68012  0.83905  1.0000
  H   H3531     1.0  0.59733  0.65960  0.84388  1.0000
  H   H3532     1.0  0.59838  0.67192  0.82788  1.0000
  N   N222      1.0  0.88019  0.58518  0.87898  1.0000
  C   C2213     1.0  0.89299  0.57597  0.86926  1.0000
  C   C2214     1.0  0.86936  0.60168  0.87267  1.0000
  C   C2215     1.0  0.89019  0.58958  0.88671  1.0000
  C   C2216     1.0  0.86819  0.57344  0.88728  1.0000
  H   H3533     1.0  0.90235  0.58441  0.86288  1.0000
  H   H3534     1.0  0.88586  0.57251  0.86326  1.0000
  H   H3535     1.0  0.90127  0.56338  0.87370  1.0000
  H   H3536     1.0  0.85959  0.60899  0.87971  1.0000
  H   H3537     1.0  0.87795  0.61088  0.86629  1.0000
  H   H3538     1.0  0.86149  0.59887  0.86682  1.0000
  H   H3539     1.0  0.88093  0.59649  0.89418  1.0000
  H   H3540     1.0  0.89935  0.59851  0.88082  1.0000
  H   H3541     1.0  0.89847  0.57741  0.89163  1.0000
  H   H3542     1.0  0.85853  0.57988  0.89482  1.0000
  H   H3543     1.0  0.87587  0.56079  0.89209  1.0000
  H   H3544     1.0  0.86029  0.56996  0.88184  1.0000
  N   N223      1.0  0.80360  0.52975  0.91156  1.0000
  C   C2217     1.0  0.81874  0.53702  0.90269  1.0000
  H   H3545     1.0  0.93525  0.49421  0.92004  1.0000
  C   C2218     1.0  0.86209  0.52093  0.85158  1.0000
  C   C2219     1.0  0.79037  0.54406  0.91717  1.0000
  C   C2220     1.0  0.83046  0.68379  0.75963  1.0000
  H   H3546     1.0  0.84276  0.50247  0.87235  1.0000
  N   N224      1.0  0.93624  0.50089  0.93717  1.0000
  H   H3547     1.0  0.99084  0.53442  0.92159  1.0000
  H   H3548     1.0  0.71750  0.53774  0.84980  1.0000
  H   H3549     1.0  0.98713  0.56335  0.93575  1.0000
  H   H3550     1.0  0.87294  0.50867  0.96689  1.0000
  H   H3551     1.0  0.94527  0.52438  0.93625  1.0000
  H   H3552     1.0  0.97009  0.54883  0.92703  1.0000
  C   C2221     1.0  0.92093  0.65869  0.96375  1.0000
  H   H3553     1.0  0.90871  0.50375  0.93641  1.0000
  C   C2222     1.0  0.65807  0.50327  0.82130  1.0000
  C   C2223     1.0  0.94683  0.51015  0.94125  1.0000
  C   C2224     1.0  0.92570  0.58534  0.97246  1.0000
  N   N225      1.0  0.84272  0.67080  0.75227  1.0000
  H   H3554     1.0  0.69501  0.71350  0.77637  1.0000
  H   H3555     1.0  0.90831  0.66873  0.96585  1.0000
  H   H3556     1.0  0.86505  0.51196  0.84487  1.0000
  C   C2225     1.0  0.71060  0.72778  0.80043  1.0000
  H   H3557     1.0  0.59923  0.57987  0.81971  1.0000
  C   C2226     1.0  0.64845  0.50877  0.84255  1.0000
  C   C2227     1.0  0.66966  0.69495  0.78828  1.0000
  C   C2228     1.0  0.69419  0.51739  0.86358  1.0000
  N   N226      1.0  0.68927  0.68816  0.78687  1.0000
  H   H3558     1.0  0.71997  0.49566  0.84043  1.0000
  C   C2229     1.0  0.99304  0.62355  0.91280  1.0000
  H   H3559     1.0  0.69593  0.52676  0.86872  1.0000
  C   C2230     1.0  0.79501  0.52232  0.90456  1.0000
  H   H3560     1.0  0.93294  0.62008  0.95342  1.0000
  H   H3561     1.0  0.71356  0.69495  0.77451  1.0000
  H   H3562     1.0  0.96140  0.50409  0.93914  1.0000
  C   C2231     1.0  0.83459  0.67003  0.74206  1.0000
  S   S890      1.0  0.86384  0.50189  0.94578  1.0000
  S   S891      1.0  0.75066  0.67004  0.77822  1.0000
  H   H3563     1.0  0.70870  0.66397  0.78435  1.0000
  C   C2232     1.0  0.93493  0.63147  0.95642  1.0000
  C   C2233     1.0  0.91105  0.65221  0.94720  1.0000
  H   H3564     1.0  0.92611  0.65317  0.97265  1.0000
  H   H3565     1.0  0.86911  0.53207  0.84683  1.0000
  C   C2234     1.0  0.66781  0.52645  0.82638  1.0000
  C   C2235     1.0  0.91714  0.51007  0.93959  1.0000
  H   H3566     1.0  0.99384  0.59395  0.94099  1.0000
  H   H3567     1.0  0.85817  0.68975  0.74019  1.0000
  H   H3568     1.0  0.69041  0.50561  0.87079  1.0000
  H   H3569     1.0  0.93487  0.53195  0.87786  1.0000
  H   H3570     1.0  0.92104  0.65864  0.93952  1.0000
  H   H3571     1.0  0.69030  0.66849  0.77666  1.0000
  S   S892      1.0  0.86045  0.50663  0.91006  1.0000
  H   H3572     1.0  0.97692  0.54732  0.91063  1.0000
  C   C2236     1.0  0.92777  0.53549  0.88685  1.0000
  H   H3573     1.0  0.90247  0.62402  0.96566  1.0000
  H   H3574     1.0  0.86960  0.66689  0.74098  1.0000
  C   C2237     1.0  0.77955  0.52174  0.84967  1.0000
  C   C2238     1.0  0.86003  0.67637  0.74664  1.0000
  C   C2239     1.0  0.69471  0.68888  0.79832  1.0000
  H   H3575     1.0  0.82567  0.54268  0.90760  1.0000
  H   H3576     1.0  0.93100  0.66570  0.95665  1.0000
  H   H3577     1.0  0.72803  0.52473  0.83792  1.0000
  H   H3578     1.0  0.77868  0.53911  0.92384  1.0000
  H   H3579     1.0  0.94171  0.51484  0.91775  1.0000
  H   H3580     1.0  0.68768  0.68084  0.80703  1.0000
  C   C2240     1.0  0.77389  0.53728  0.85442  1.0000
  C   C2241     1.0  0.99436  0.53018  0.95696  1.0000
  C   C2242     1.0  0.91049  0.53238  0.89227  1.0000
  H   H3581     1.0  0.80528  0.73611  0.74385  1.0000
  H   H3582     1.0  0.86703  0.51661  0.88153  1.0000
  H   H3583     1.0  0.84918  0.53024  0.87407  1.0000
  H   H3584     1.0  0.70460  0.53526  0.83965  1.0000
  H   H3585     1.0  0.79969  0.49755  0.84869  1.0000
  H   H3586     1.0  0.82115  0.66652  0.74594  1.0000
  C   C2243     1.0  0.59728  0.73224  0.80914  1.0000
  H   H3587     1.0  0.65751  0.49652  0.81431  1.0000
  C   C2244     1.0  0.98844  0.60368  0.93340  1.0000
  H   H3588     1.0  0.81823  0.50441  0.86052  1.0000
  H   H3589     1.0  0.97270  0.58001  0.90512  1.0000
  H   H3590     1.0  0.97568  0.50957  0.97953  1.0000
  H   H3591     1.0  0.95732  0.49445  0.92132  1.0000
  H   H3592     1.0  0.73818  0.49879  0.85406  1.0000
  H   H3593     1.0  0.82876  0.52659  0.89812  1.0000
  C   C2245     1.0  0.81034  0.51560  0.92180  1.0000
  H   H3594     1.0  0.69664  0.50651  0.84228  1.0000
  C   C2246     1.0  0.99825  0.56157  0.92731  1.0000
  H   H3595     1.0  0.70640  0.72607  0.81064  1.0000
  H   H3596     1.0  0.83586  0.68435  0.76770  1.0000
  C   C2247     1.0  0.79385  0.70148  0.73795  1.0000
  H   H3597     1.0  0.82029  0.50453  0.91794  1.0000
  H   H3598     1.0  0.89119  0.64460  0.97053  1.0000
  H   H3599     1.0  0.91165  0.50989  0.94987  1.0000
  H   H3600     1.0  0.98598  0.55414  0.97971  1.0000
  H   H3601     1.0  0.84740  0.52670  0.85316  1.0000
  H   H3602     1.0  0.79929  0.50978  0.92867  1.0000
  S   S893      1.0  0.78077  0.68545  0.74492  1.0000
  H   H3603     1.0  0.55161  0.73610  0.86807  1.0000
  H   H3604     1.0  0.89502  0.51385  0.85636  1.0000
  H   H3605     1.0  0.64096  0.50566  0.85221  1.0000
  H   H3606     1.0  0.86647  0.67712  0.75411  1.0000
  H   H3607     1.0  0.83290  0.64858  0.76531  1.0000
  H   H3608     1.0  0.85484  0.64284  0.75556  1.0000
  H   H3609     1.0  0.98552  0.59074  0.91061  1.0000
  H   H3610     1.0  0.81718  0.68016  0.76377  1.0000
  H   H3611     1.0  0.89167  0.49646  0.87005  1.0000
  H   H3612     1.0  0.72840  0.51186  0.86590  1.0000
  C   C2248     1.0  0.61381  0.73596  0.80193  1.0000
  H   H3613     1.0  0.80477  0.51169  0.90003  1.0000
  H   H3614     1.0  0.72542  0.73383  0.76383  1.0000
  Fe  Fe443     1.0  0.88897  0.50137  0.89964  1.0000
  C   C2249     1.0  0.70770  0.50002  0.84747  1.0000
  C   C2250     1.0  0.97835  0.49487  0.98259  1.0000
  C   C2251     1.0  0.72128  0.73220  0.77404  1.0000
  H   H3615     1.0  0.59651  0.74114  0.84358  1.0000
  H   H3616     1.0  0.89048  0.49363  0.85494  1.0000
  C   C2252     1.0  0.88069  0.49572  0.96537  1.0000
  Fe  Fe444     1.0  0.00085  0.49752  0.94200  1.0000
  C   C2253     1.0  0.70104  0.74180  0.79258  1.0000
  H   H3617     1.0  0.51750  0.93069  0.99752  1.0000
  C   C2254     1.0  0.52575  0.93069  0.06908  1.0000
  H   H3618     1.0  0.68046  0.77075  0.19731  1.0000
  Fe  Fe445     1.0  0.56184  0.97312  0.02933  1.0000
  S   S894      1.0  0.57307  0.77916  0.16933  1.0000
  S   S895      1.0  0.57164  0.94423  0.03788  1.0000
  C   C2255     1.0  0.51207  0.97568  0.98980  1.0000
  H   H3619     1.0  0.58041  0.83608  0.13547  1.0000
  H   H3620     1.0  0.70747  0.82845  0.22015  1.0000
  C   C2256     1.0  0.66835  0.74458  0.21617  1.0000
  S   S896      1.0  0.53919  0.97809  0.01940  1.0000
  N   N227      1.0  0.51270  0.93583  0.08040  1.0000
  Fe  Fe446     1.0  0.56389  0.85633  0.10912  1.0000
  S   S897      1.0  0.54251  0.85329  0.12677  1.0000
  S   S898      1.0  0.57872  0.83160  0.10207  1.0000
  Fe  Fe447     1.0  0.55968  0.89548  0.10733  1.0000
  S   S899      1.0  0.53798  0.89555  0.12510  1.0000
  S   S900      1.0  0.56684  0.92190  0.09723  1.0000
  Fe  Fe448     1.0  0.55547  0.87006  0.13315  1.0000
  S   S901      1.0  0.55829  0.85953  0.15351  1.0000
  C   C2257     1.0  0.60725  0.78871  0.18655  1.0000
  S   S902      1.0  0.57818  0.87127  0.11611  1.0000
  S   S903      1.0  0.54757  0.88053  0.09869  1.0000
  Fe  Fe449     1.0  0.63820  0.83132  0.18644  1.0000
  S   S904      1.0  0.63256  0.85054  0.16832  1.0000
  S   S905      1.0  0.65627  0.80424  0.18654  1.0000
  S   S906      1.0  0.65236  0.83834  0.19871  1.0000
  H   H3621     1.0  0.52799  0.79630  0.14709  1.0000
  H   H3622     1.0  0.53056  0.94841  0.08466  1.0000
  H   H3623     1.0  0.69379  0.76140  0.21584  1.0000
  C   C2258     1.0  0.73595  0.76698  0.18090  1.0000
  C   C2259     1.0  0.71132  0.79007  0.19550  1.0000
  H   H3624     1.0  0.52959  0.83076  0.16993  1.0000
  Fe  Fe450     1.0  0.63504  0.79563  0.20324  1.0000
  H   H3625     1.0  0.50332  0.94501  0.04425  1.0000
  H   H3626     1.0  0.61603  0.86374  0.20665  1.0000
  H   H3627     1.0  0.54141  0.83317  0.15372  1.0000
  C   C2260     1.0  0.60554  0.75783  0.19472  1.0000
  H   H3628     1.0  0.66304  0.88135  0.21719  1.0000
  H   H3629     1.0  0.59087  0.80343  0.17303  1.0000
  C   C2261     1.0  0.61246  0.82329  0.14157  1.0000
  H   H3630     1.0  0.59415  0.87008  0.20308  1.0000
  Fe  Fe451     1.0  0.55107  0.75283  0.14358  1.0000
  H   H3631     1.0  0.60864  0.91288  0.19606  1.0000
  H   H3632     1.0  0.60328  0.79185  0.15122  1.0000
  C   C2262     1.0  0.60611  0.89938  0.20086  1.0000
  H   H3633     1.0  0.61330  0.89432  0.20886  1.0000
  C   C2263     1.0  0.58391  0.82140  0.13879  1.0000
  C   C2264     1.0  0.61013  0.81839  0.12179  1.0000
  H   H3634     1.0  0.66249  0.75809  0.21824  1.0000
  H   H3635     1.0  0.61291  0.86013  0.19228  1.0000
  H   H3636     1.0  0.58801  0.74852  0.18729  1.0000
  C   C2265     1.0  0.70928  0.79053  0.18340  1.0000
  H   H3637     1.0  0.72020  0.77945  0.16665  1.0000
  C   C2266     1.0  0.73813  0.76672  0.19292  1.0000
  H   H3638     1.0  0.69812  0.79967  0.17972  1.0000
  Fe  Fe452     1.0  0.66781  0.81024  0.20080  1.0000
  C   C2267     1.0  0.58829  0.77607  0.17906  1.0000
  H   H3639     1.0  0.54926  0.81444  0.16538  1.0000
  C   C2268     1.0  0.61243  0.77236  0.19452  1.0000
  Fe  Fe453     1.0  0.52723  0.87879  0.11705  1.0000
  S   S907      1.0  0.61637  0.82246  0.20262  1.0000
  S   S908      1.0  0.57821  0.98958  0.01300  1.0000
  Fe  Fe454     1.0  0.56703  0.75581  0.16475  1.0000
  N   N228      1.0  0.60353  0.81455  0.13571  1.0000
  S   S909      1.0  0.75020  0.75148  0.17222  1.0000
  N   N229      1.0  0.61214  0.88724  0.19193  1.0000
  H   H3640     1.0  0.53257  0.94395  0.99750  1.0000
  H   H3641     1.0  0.62221  0.78939  0.13821  1.0000
  H   H3642     1.0  0.51938  0.83556  0.08798  1.0000
  Fe  Fe455     1.0  0.63204  0.82737  0.21495  1.0000
  H   H3643     1.0  0.50920  0.95778  0.01405  1.0000
  H   H3644     1.0  0.78894  0.82626  0.23530  1.0000
  H   H3645     1.0  0.53999  0.81390  0.14041  1.0000
  C   C2269     1.0  0.63158  0.88580  0.18651  1.0000
  S   S910      1.0  0.69518  0.80308  0.20528  1.0000
  C   C2270     1.0  0.53699  0.82330  0.16233  1.0000
  H   H3646     1.0  0.53368  0.94106  0.06395  1.0000
  H   H3647     1.0  0.60432  0.81132  0.11712  1.0000
  H   H3648     1.0  0.58749  0.89517  0.18525  1.0000
  H   H3649     1.0  0.60636  0.83285  0.11760  1.0000
  H   H3650     1.0  0.71224  0.74724  0.20757  1.0000
  H   H3651     1.0  0.60437  0.90757  0.17617  1.0000
  H   H3652     1.0  0.64455  0.86308  0.21405  1.0000
  H   H3653     1.0  0.57678  0.81550  0.13417  1.0000
  C   C2271     1.0  0.64481  0.86344  0.22352  1.0000
  C   C2272     1.0  0.50827  0.84376  0.09383  1.0000
  C   C2273     1.0  0.65525  0.87386  0.22533  1.0000
  S   S911      1.0  0.64805  0.79936  0.21754  1.0000
  C   C2274     1.0  0.57908  0.85709  0.15733  1.0000
  C   C2275     1.0  0.59203  0.86635  0.14934  1.0000
  C   C2276     1.0  0.60844  0.86419  0.15278  1.0000
  C   C2277     1.0  0.61204  0.85264  0.16412  1.0000
  C   C2278     1.0  0.59914  0.84326  0.17201  1.0000
  C   C2279     1.0  0.58268  0.84558  0.16867  1.0000
  H   H3654     1.0  0.58930  0.87537  0.14062  1.0000
  H   H3655     1.0  0.61835  0.87152  0.14663  1.0000
  H   H3656     1.0  0.60176  0.83424  0.18070  1.0000
  H   H3657     1.0  0.57272  0.83836  0.17488  1.0000
  C   C2280     1.0  0.56663  0.81465  0.10846  1.0000
  C   C2281     1.0  0.54782  0.81866  0.11147  1.0000
  C   C2282     1.0  0.53837  0.80499  0.11723  1.0000
  C   C2283     1.0  0.54776  0.78738  0.12025  1.0000
  C   C2284     1.0  0.56652  0.78338  0.11700  1.0000
  C   C2285     1.0  0.57593  0.79697  0.11097  1.0000
  H   H3658     1.0  0.54059  0.83228  0.10929  1.0000
  H   H3659     1.0  0.52385  0.80809  0.11968  1.0000
  H   H3660     1.0  0.57379  0.76974  0.11896  1.0000
  H   H3661     1.0  0.59044  0.79376  0.10841  1.0000
  C   C2286     1.0  0.57127  0.93812  0.05425  1.0000
  C   C2287     1.0  0.57284  0.92015  0.06038  1.0000
  C   C2288     1.0  0.57167  0.91499  0.07356  1.0000
  C   C2289     1.0  0.56927  0.92776  0.08063  1.0000
  C   C2290     1.0  0.56815  0.94567  0.07445  1.0000
  C   C2291     1.0  0.56896  0.95087  0.06132  1.0000
  H   H3662     1.0  0.57480  0.91022  0.05493  1.0000
  H   H3663     1.0  0.57285  0.90112  0.07821  1.0000
  H   H3664     1.0  0.56646  0.95558  0.07987  1.0000
  H   H3665     1.0  0.56806  0.96469  0.05666  1.0000
  H   H3666     1.0  0.60734  0.82124  0.15204  1.0000
  S   S912      1.0  0.62757  0.76985  0.20422  1.0000
  H   H3667     1.0  0.62724  0.81809  0.13982  1.0000
  C   C2292     1.0  0.60758  0.79513  0.14070  1.0000
  H   H3668     1.0  0.53548  0.91808  0.07170  1.0000
  C   C2293     1.0  0.59358  0.75963  0.18693  1.0000
  H   H3669     1.0  0.56499  0.96369  0.98963  1.0000
  H   H3670     1.0  0.54852  0.79486  0.15158  1.0000
  N   N230      1.0  0.52576  0.81314  0.15980  1.0000
  C   C2294     1.0  0.52149  0.94370  0.99323  1.0000
  H   H3671     1.0  0.60044  0.78822  0.13685  1.0000
  H   H3672     1.0  0.61011  0.83789  0.13769  1.0000
  H   H3673     1.0  0.62500  0.81422  0.11910  1.0000
  H   H3674     1.0  0.51380  0.97163  0.04404  1.0000
  N   N231      1.0  0.50610  0.95870  0.99534  1.0000
  C   C2295     1.0  0.72178  0.77916  0.17601  1.0000
  H   H3675     1.0  0.51896  0.92876  0.06221  1.0000
  H   H3676     1.0  0.67448  0.83414  0.22642  1.0000
  H   H3677     1.0  0.60663  0.88525  0.17464  1.0000
  C   C2296     1.0  0.60867  0.86952  0.19879  1.0000
  H   H3678     1.0  0.63953  0.88076  0.19403  1.0000
  C   C2297     1.0  0.53600  0.80417  0.14927  1.0000
  H   H3679     1.0  0.57845  0.81841  0.14922  1.0000
  C   C2298     1.0  0.80364  0.79698  0.22585  1.0000
  H   H3680     1.0  0.74919  0.75743  0.19664  1.0000
  H   H3681     1.0  0.63464  0.89889  0.18108  1.0000
  H   H3682     1.0  0.63666  0.87649  0.17988  1.0000
  S   S913      1.0  0.53903  0.75756  0.16312  1.0000
  C   C2299     1.0  0.52072  0.79974  0.17135  1.0000
  H   H3683     1.0  0.51304  0.94209  0.09787  1.0000
  H   H3684     1.0  0.51232  0.79172  0.16978  1.0000
  S   S914      1.0  0.53611  0.77056  0.12879  1.0000
  H   H3685     1.0  0.61252  0.79997  0.18629  1.0000
  C   C2300     1.0  0.59508  0.79061  0.17896  1.0000
  H   H3686     1.0  0.81519  0.79212  0.23065  1.0000
  H   H3687     1.0  0.69805  0.75617  0.18876  1.0000
  H   H3688     1.0  0.59149  0.90081  0.20511  1.0000
  C   C2301     1.0  0.60220  0.89416  0.18156  1.0000
  H   H3689     1.0  0.72760  0.77816  0.20949  1.0000
  H   H3690     1.0  0.51148  0.90882  0.08992  1.0000
  H   H3691     1.0  0.70928  0.80517  0.22668  1.0000
  H   H3692     1.0  0.50570  0.85077  0.06939  1.0000
  H   H3693     1.0  0.53284  0.79035  0.17431  1.0000
  S   S915      1.0  0.57874  0.75319  0.14466  1.0000
  C   C2302     1.0  0.52240  0.93811  0.08922  1.0000
  C   C2303     1.0  0.72597  0.77848  0.20014  1.0000
  H   H3694     1.0  0.67497  0.75497  0.19103  1.0000
  H   H3695     1.0  0.53178  0.92552  0.09246  1.0000
  C   C2304     1.0  0.70826  0.81812  0.22906  1.0000
  H   H3696     1.0  0.50768  0.96357  0.07137  1.0000
  H   H3697     1.0  0.80590  0.80927  0.21866  1.0000
  S   S916      1.0  0.82506  0.75215  0.23499  1.0000
  H   H3698     1.0  0.80419  0.78662  0.22071  1.0000
  H   H3699     1.0  0.60923  0.74528  0.20109  1.0000
  C   C2305     1.0  0.68487  0.75697  0.19564  1.0000
  H   H3700     1.0  0.51299  0.80608  0.17947  1.0000
  H   H3701     1.0  0.52270  0.97661  0.99424  1.0000
  H   H3702     1.0  0.51298  0.85562  0.09397  1.0000
  H   H3703     1.0  0.77288  0.81949  0.22130  1.0000
  H   H3704     1.0  0.77103  0.79699  0.22300  1.0000
  C   C2306     1.0  0.77147  0.80680  0.22828  1.0000
  H   H3705     1.0  0.51274  0.83586  0.14767  1.0000
  C   C2307     1.0  0.69860  0.74781  0.21379  1.0000
  H   H3706     1.0  0.81973  0.74364  0.21330  1.0000
  H   H3707     1.0  0.50976  0.84682  0.12389  1.0000
  C   C2308     1.0  0.50937  0.82541  0.15624  1.0000
  N   N232      1.0  0.68630  0.74376  0.20763  1.0000
  H   H3708     1.0  0.67616  0.81075  0.23226  1.0000
  C   C2309     1.0  0.67595  0.82325  0.23493  1.0000
  H   H3709     1.0  0.75827  0.80933  0.23501  1.0000
  H   H3710     1.0  0.50612  0.83579  0.10372  1.0000
  H   H3711     1.0  0.52069  0.74367  0.12327  1.0000
  S   S917      1.0  0.62136  0.84063  0.23178  1.0000
  H   H3712     1.0  0.69096  0.85033  0.23387  1.0000
  H   H3713     1.0  0.72088  0.81753  0.23186  1.0000
  C   C2310     1.0  0.63454  0.85383  0.23394  1.0000
  N   N233      1.0  0.78639  0.80021  0.23507  1.0000
  C   C2311     1.0  0.50243  0.92176  0.08684  1.0000
  H   H3714     1.0  0.50122  0.83235  0.16399  1.0000
  N   N234      1.0  0.97762  0.84226  0.34324  1.0000
  C   C2312     1.0  0.57238  0.98835  0.39085  1.0000
  C   C2313     1.0  0.63477  0.85480  0.24623  1.0000
  S   S918      1.0  0.51848  0.93593  0.43665  1.0000
  H   H3715     1.0  0.85303  0.76747  0.33241  1.0000
  H   H3716     1.0  0.69372  0.91814  0.29960  1.0000
  C   C2314     1.0  0.90645  0.74673  0.34715  1.0000
  Fe  Fe456     1.0  0.52530  0.95976  0.42185  1.0000
  S   S919      1.0  0.53571  0.95728  0.40143  1.0000
  H   H3717     1.0  0.99363  0.82660  0.32962  1.0000
  H   H3718     1.0  0.59344  0.94979  0.39920  1.0000
  H   H3719     1.0  0.78403  0.77293  0.23936  1.0000
  Fe  Fe457     1.0  0.63812  0.96567  0.33307  1.0000
  S   S920      1.0  0.63283  0.95214  0.35377  1.0000
  S   S921      1.0  0.63368  0.96001  0.31563  1.0000
  Fe  Fe458     1.0  0.62443  0.97989  0.35749  1.0000
  C   C2315     1.0  0.97973  0.75913  0.33110  1.0000
  H   H3720     1.0  0.60243  0.90271  0.41652  1.0000
  H   H3721     1.0  0.77251  0.83775  0.27365  1.0000
  C   C2316     1.0  0.84554  0.75680  0.33408  1.0000
  S   S922      1.0  0.79900  0.80555  0.27687  1.0000
  Fe  Fe459     1.0  0.68074  0.87915  0.28401  1.0000
  H   H3722     1.0  0.69378  0.79470  0.24889  1.0000
  H   H3723     1.0  0.69944  0.94527  0.33670  1.0000
  H   H3724     1.0  0.72493  0.90000  0.29545  1.0000
  H   H3725     1.0  0.73263  0.91403  0.30200  1.0000
  S   S923      1.0  0.54153  0.96637  0.43275  1.0000
  S   S924      1.0  0.55364  0.92349  0.45743  1.0000
  C   C2317     1.0  0.55089  0.94146  0.47622  1.0000
  S   S925      1.0  0.66646  0.88300  0.30387  1.0000
  Fe  Fe460     1.0  0.88386  0.85246  0.31084  1.0000
  H   H3726     1.0  0.71087  0.92414  0.37385  1.0000
  S   S926      1.0  0.86395  0.87364  0.32018  1.0000
  Fe  Fe461     1.0  0.88990  0.81321  0.31112  1.0000
  S   S927      1.0  0.91437  0.81391  0.29554  1.0000
  S   S928      1.0  0.88036  0.78766  0.31676  1.0000
  Fe  Fe462     1.0  0.92186  0.83059  0.30571  1.0000
  S   S929      1.0  0.95024  0.82167  0.30908  1.0000
  H   H3727     1.0  0.96501  0.84824  0.32745  1.0000
  S   S930      1.0  0.89844  0.82772  0.32226  1.0000
  S   S931      1.0  0.87311  0.83750  0.30138  1.0000
  S   S932      1.0  0.66946  0.88761  0.23925  1.0000
  S   S933      1.0  0.77063  0.93582  0.30454  1.0000
  S   S934      1.0  0.79135  0.96308  0.30997  1.0000
  Fe  Fe463     1.0  0.79357  0.94939  0.29440  1.0000
  S   S935      1.0  0.82079  0.93629  0.28448  1.0000
  Fe  Fe464     1.0  0.76684  0.95169  0.31911  1.0000
  S   S936      1.0  0.76107  0.94050  0.33999  1.0000
  Fe  Fe465     1.0  0.71382  0.88703  0.26429  1.0000
  Fe  Fe466     1.0  0.81738  0.78063  0.27173  1.0000
  H   H3728     1.0  0.94220  0.86052  0.30297  1.0000
  H   H3729     1.0  0.54853  0.98559  0.40548  1.0000
  H   H3730     1.0  0.81752  0.77724  0.32418  1.0000
  H   H3731     1.0  0.85486  0.75076  0.30392  1.0000
  C   C2318     1.0  0.89058  0.77225  0.32846  1.0000
  C   C2319     1.0  0.89542  0.77764  0.33774  1.0000
  C   C2320     1.0  0.90318  0.76483  0.34720  1.0000
  C   C2321     1.0  0.95629  0.85579  0.30319  1.0000
  H   H3732     1.0  0.71656  0.98997  0.34891  1.0000
  H   H3733     1.0  0.89275  0.79160  0.33783  1.0000
  H   H3734     1.0  0.90656  0.76896  0.35454  1.0000
  C   C2322     1.0  0.85213  0.89104  0.31015  1.0000
  C   C2323     1.0  0.83531  0.90066  0.31532  1.0000
  C   C2324     1.0  0.82558  0.91455  0.30749  1.0000
  C   C2325     1.0  0.83283  0.91914  0.29451  1.0000
  C   C2326     1.0  0.84984  0.90984  0.28938  1.0000
  C   C2327     1.0  0.85936  0.89561  0.29714  1.0000
  H   H3735     1.0  0.82970  0.89719  0.32538  1.0000
  H   H3736     1.0  0.81246  0.92164  0.31154  1.0000
  C   C2328     1.0  0.69356  0.80776  0.25073  1.0000
  H   H3737     1.0  0.87245  0.88842  0.29314  1.0000
  Fe  Fe467     1.0  0.75363  0.96036  0.29492  1.0000
  H   H3738     1.0  0.73657  0.89045  0.30820  1.0000
  C   C2329     1.0  0.96144  0.84624  0.33795  1.0000
  H   H3739     1.0  0.58165  0.95860  0.41303  1.0000
  H   H3740     1.0  0.69930  0.90926  0.33266  1.0000
  H   H3741     1.0  0.74256  0.92689  0.36505  1.0000
  S   S937      1.0  0.84051  0.76770  0.28132  1.0000
  C   C2330     1.0  0.64351  0.93867  0.31243  1.0000
  C   C2331     1.0  0.64864  0.93655  0.29982  1.0000
  C   C2332     1.0  0.65600  0.91958  0.29705  1.0000
  C   C2333     1.0  0.65782  0.90459  0.30690  1.0000
  C   C2334     1.0  0.65267  0.90673  0.31951  1.0000
  C   C2335     1.0  0.64580  0.92374  0.32227  1.0000
  H   H3742     1.0  0.64674  0.94803  0.29217  1.0000
  H   H3743     1.0  0.65974  0.91807  0.28731  1.0000
  H   H3744     1.0  0.65385  0.89516  0.32719  1.0000
  H   H3745     1.0  0.64170  0.92524  0.33203  1.0000
  C   C2336     1.0  0.70292  0.93493  0.35591  1.0000
  H   H3746     1.0  0.96128  0.88209  0.29991  1.0000
  C   C2337     1.0  0.72673  0.94265  0.33788  1.0000
  C   C2338     1.0  0.73890  0.93763  0.34588  1.0000
  C   C2339     1.0  0.73316  0.93093  0.35884  1.0000
  C   C2340     1.0  0.71525  0.92939  0.36382  1.0000
  Fe  Fe468     1.0  0.89817  0.83929  0.28651  1.0000
  H   H3747     1.0  0.51024  0.95411  0.38817  1.0000
  C   C2341     1.0  0.55405  0.96729  0.39320  1.0000
  C   C2342     1.0  0.56558  0.96142  0.38249  1.0000
  C   C2343     1.0  0.58067  0.96882  0.37609  1.0000
  H   H3748     1.0  0.65518  0.98884  0.30712  1.0000
  H   H3749     1.0  0.89629  0.74887  0.29755  1.0000
  C   C2344     1.0  0.58409  0.98231  0.38026  1.0000
  H   H3750     1.0  0.56296  0.95102  0.37920  1.0000
  H   H3751     1.0  0.58958  0.96416  0.36788  1.0000
  C   C2345     1.0  0.89670  0.80456  0.24925  1.0000
  H   H3752     1.0  0.98334  0.76983  0.33391  1.0000
  H   H3753     1.0  0.74149  0.84424  0.27056  1.0000
  H   H3754     1.0  0.70350  0.94598  0.28224  1.0000
  C   C2346     1.0  0.88595  0.79400  0.25855  1.0000
  H   H3755     1.0  0.74537  0.78869  0.27362  1.0000
  Fe  Fe469     1.0  0.85710  0.76779  0.26173  1.0000
  H   H3756     1.0  0.85566  0.91364  0.27939  1.0000
  H   H3757     1.0  0.70691  0.92204  0.27122  1.0000
  H   H3758     1.0  0.86452  0.87305  0.26115  1.0000
  C   C2347     1.0  0.77679  0.80955  0.27513  1.0000
  S   S938      1.0  0.72909  0.95970  0.28868  1.0000
  C   C2348     1.0  0.72865  0.98926  0.34103  1.0000
  C   C2349     1.0  0.70872  0.94148  0.34291  1.0000
  H   H3759     1.0  0.95200  0.85863  0.34024  1.0000
  H   H3760     1.0  0.56086  0.93811  0.41853  1.0000
  H   H3761     1.0  0.86983  0.79052  0.27757  1.0000
  C   C2350     1.0  0.56947  0.91178  0.47769  1.0000
  H   H3762     1.0  0.73115  0.94749  0.32782  1.0000
  C   C2351     1.0  0.76667  0.82699  0.27363  1.0000
  H   H3763     1.0  0.75128  0.96620  0.35483  1.0000
  C   C2352     1.0  0.92443  0.76136  0.29736  1.0000
  H   H3764     1.0  0.57241  0.92952  0.40463  1.0000
  S   S939      1.0  0.50813  0.96112  0.45766  1.0000
  H   H3765     1.0  0.93594  0.77876  0.33065  1.0000
  C   C2353     1.0  0.60435  0.91632  0.41146  1.0000
  H   H3766     1.0  0.81500  0.87552  0.26864  1.0000
  C   C2354     1.0  0.92871  0.74372  0.28193  1.0000
  H   H3767     1.0  0.83951  0.86769  0.29447  1.0000
  H   H3768     1.0  0.96065  0.74674  0.32023  1.0000
  H   H3769     1.0  0.54214  0.95249  0.47136  1.0000
  H   H3770     1.0  0.93630  0.77642  0.27299  1.0000
  C   C2355     1.0  0.83077  0.87410  0.28746  1.0000
  C   C2356     1.0  0.99278  0.84377  0.30392  1.0000
  H   H3771     1.0  0.83080  0.84592  0.27839  1.0000
  H   H3772     1.0  0.79708  0.80879  0.24763  1.0000
  N   N235      1.0  0.69238  0.82207  0.23925  1.0000
  N   N236      1.0  0.96014  0.76014  0.33463  1.0000
  H   H3773     1.0  0.85201  0.84347  0.28231  1.0000
  H   H3774     1.0  0.96546  0.82883  0.36166  1.0000
  H   H3775     1.0  0.91773  0.77522  0.26717  1.0000
  H   H3776     1.0  0.57511  0.89979  0.47400  1.0000
  H   H3777     1.0  0.90757  0.82809  0.24429  1.0000
  H   H3778     1.0  0.73623  0.98128  0.36416  1.0000
  H   H3779     1.0  0.81788  0.74488  0.33199  1.0000
  H   H3780     1.0  0.93890  0.76182  0.29503  1.0000
  H   H3781     1.0  0.70391  0.83860  0.24570  1.0000
  C   C2357     1.0  0.97228  0.84018  0.35717  1.0000
  C   C2358     1.0  0.57236  0.92797  0.41483  1.0000
  H   H3782     1.0  0.68440  0.99121  0.31094  1.0000
  S   S940      1.0  0.99817  0.87750  0.30110  1.0000
  H   H3783     1.0  0.69278  0.97558  0.28098  1.0000
  H   H3784     1.0  0.93932  0.75860  0.35158  1.0000
  C   C2359     1.0  0.98195  0.83157  0.30576  1.0000
  H   H3785     1.0  0.89429  0.75939  0.28148  1.0000
  H   H3786     1.0  0.76393  0.97718  0.33220  1.0000
  H   H3787     1.0  0.60532  0.91744  0.40117  1.0000
  C   C2360     1.0  0.83018  0.77358  0.31723  1.0000
  C   C2361     1.0  0.71867  0.92518  0.27248  1.0000
  H   H3788     1.0  0.95407  0.83522  0.34159  1.0000
  H   H3789     1.0  0.77100  0.78527  0.25129  1.0000
  H   H3790     1.0  0.98417  0.83759  0.36140  1.0000
  H   H3791     1.0  0.57772  0.93851  0.43419  1.0000
  H   H3792     1.0  0.95519  0.77969  0.31775  1.0000
  C   C2362     1.0  0.65585  0.87450  0.23759  1.0000
  C   C2363     1.0  0.55746  0.98081  0.39735  1.0000
  H   H3793     1.0  0.70590  0.80641  0.25418  1.0000
  C   C2364     1.0  0.75138  0.79940  0.27348  1.0000
  H   H3794     1.0  0.82733  0.88863  0.28721  1.0000
  C   C2365     1.0  0.74902  0.83068  0.27195  1.0000
  H   H3795     1.0  0.77684  0.78223  0.27626  1.0000
  C   C2366     1.0  0.71679  0.93887  0.27865  1.0000
  S   S941      1.0  0.74815  0.97531  0.31034  1.0000
  H   H3796     1.0  0.85419  0.74404  0.33794  1.0000
  C   C2367     1.0  0.87802  0.79872  0.27031  1.0000
  S   S942      1.0  0.88463  0.77380  0.25584  1.0000
  H   H3797     1.0  0.98307  0.81404  0.34431  1.0000
  Fe  Fe470     1.0  0.70577  0.85015  0.27050  1.0000
  S   S943      1.0  0.89634  0.84320  0.26630  1.0000
  S   S944      1.0  0.81023  0.75511  0.27217  1.0000
  C   C2368     1.0  0.89199  0.82436  0.26345  1.0000
  Fe  Fe471     1.0  0.68213  0.88111  0.25630  1.0000
  C   C2369     1.0  0.73195  0.94299  0.28040  1.0000
  C   C2370     1.0  0.89935  0.81992  0.25158  1.0000
  C   C2371     1.0  0.96365  0.83751  0.30552  1.0000
  H   H3798     1.0  0.60548  0.95000  0.41057  1.0000
  C   C2372     1.0  0.58863  0.92815  0.43015  1.0000
  H   H3799     1.0  0.76084  0.93655  0.27715  1.0000
  H   H3800     1.0  0.86546  0.76264  0.31020  1.0000
  H   H3801     1.0  0.70194  0.93233  0.30575  1.0000
  S   S945      1.0  0.77686  0.97276  0.28339  1.0000
  C   C2373     1.0  0.74125  0.81689  0.27204  1.0000
  Fe  Fe472     1.0  0.82920  0.75627  0.25311  1.0000
  S   S946      1.0  0.71900  0.82144  0.27020  1.0000
  C   C2374     1.0  0.69658  0.92002  0.30831  1.0000
  H   H3802     1.0  0.97862  0.86984  0.33985  1.0000
  S   S947      1.0  0.65207  0.98150  0.35807  1.0000
  N   N237      1.0  0.91857  0.76030  0.28618  1.0000
  H   H3803     1.0  0.86511  0.96652  0.27988  1.0000
  H   H3804     1.0  0.67995  0.84258  0.24991  1.0000
  C   C2375     1.0  0.76918  0.79574  0.27496  1.0000
  H   H3805     1.0  0.83449  0.87734  0.25600  1.0000
  Fe  Fe473     1.0  0.53282  0.94410  0.44822  1.0000
  H   H3806     1.0  0.82642  0.77354  0.30835  1.0000
  H   H3807     1.0  0.82666  0.97396  0.30690  1.0000
  C   C2376     1.0  0.98534  0.86202  0.30202  1.0000
  C   C2377     1.0  0.95605  0.74574  0.33065  1.0000
  H   H3808     1.0  0.83328  0.75955  0.34157  1.0000
  H   H3809     1.0  0.60141  0.92934  0.43185  1.0000
  C   C2378     1.0  0.68803  0.99014  0.28024  1.0000
  C   C2379     1.0  0.96711  0.86799  0.30147  1.0000
  H   H3810     1.0  0.76421  0.91269  0.26577  1.0000
  H   H3811     1.0  0.94337  0.74334  0.27903  1.0000
  C   C2380     1.0  0.85693  0.87639  0.27045  1.0000
  H   H3812     1.0  0.77340  0.81682  0.24863  1.0000
  C   C2381     1.0  0.88144  0.81364  0.27287  1.0000
  C   C2382     1.0  0.64562  0.86488  0.24807  1.0000
  C   C2383     1.0  0.82805  0.87983  0.26569  1.0000
  H   H3813     1.0  0.84779  0.95894  0.27663  1.0000
  H   H3814     1.0  0.83773  0.78436  0.31498  1.0000
  C   C2384     1.0  0.89374  0.75421  0.32851  1.0000
  C   C2385     1.0  0.74907  0.93344  0.27584  1.0000
  C   C2386     1.0  0.95077  0.77755  0.32827  1.0000
  S   S948      1.0  0.66659  0.96624  0.33186  1.0000
  H   H3815     1.0  0.79491  0.77813  0.24956  1.0000
  C   C2387     1.0  0.85772  0.75201  0.31278  1.0000
  H   H3816     1.0  0.57432  0.98896  0.47278  1.0000
  Fe  Fe474     1.0  0.83521  0.74224  0.27997  1.0000
  H   H3817     1.0  0.89031  0.74993  0.32128  1.0000
  C   C2388     1.0  0.66279  0.98587  0.29772  1.0000
  H   H3818     1.0  0.68350  0.92237  0.31516  1.0000
  S   S949      1.0  0.71004  0.86659  0.28233  1.0000
  N   N238      1.0  0.70932  0.90443  0.31373  1.0000
  H   H3819     1.0  0.64579  0.86549  0.25757  1.0000
  N   N239      1.0  0.84100  0.75614  0.32227  1.0000
  C   C2389     1.0  0.98959  0.82562  0.34006  1.0000
  H   H3820     1.0  0.86587  0.86997  0.27731  1.0000
  S   S950      1.0  0.90789  0.85649  0.29500  1.0000
  C   C2390     1.0  0.98723  0.85701  0.33777  1.0000
  Fe  Fe475     1.0  0.77298  0.98549  0.29982  1.0000
  S   S951      1.0  0.73833  0.89863  0.25999  1.0000
  N   N240      1.0  0.58951  0.93008  0.41650  1.0000
  S   S952      1.0  0.68471  0.90082  0.26655  1.0000
  S   S953      1.0  0.67590  0.86042  0.27395  1.0000
  H   H3821     1.0  0.87591  0.81680  0.28213  1.0000
  C   C2391     1.0  0.95401  0.75808  0.34854  1.0000
  H   H3822     1.0  0.91664  0.77348  0.30102  1.0000
  C   C2392     1.0  0.89919  0.76031  0.28967  1.0000
  H   H3823     1.0  0.73189  0.97571  0.33906  1.0000
  C   C2393     1.0  0.82065  0.98563  0.28315  1.0000
  H   H3824     1.0  0.68863  0.88970  0.32335  1.0000
  H   H3825     1.0  0.71793  0.91918  0.32358  1.0000
  C   C2394     1.0  0.71215  0.90724  0.32550  1.0000
  H   H3826     1.0  0.69982  0.88579  0.30785  1.0000
  C   C2395     1.0  0.70190  0.88835  0.31660  1.0000
  H   H3827     1.0  0.85469  0.89101  0.26933  1.0000
  H   H3828     1.0  0.72156  0.89568  0.32995  1.0000
  C   C2396     1.0  0.72663  0.90213  0.30445  1.0000
  C   C2397     1.0  0.74796  0.98018  0.35604  1.0000
  Fe  Fe476     1.0  0.66075  0.95491  0.35272  1.0000
  H   H3829     1.0  0.71101  0.87630  0.32083  1.0000
  H   H3830     1.0  0.85069  0.84763  0.26606  1.0000
  N   N241      1.0  0.83819  0.98001  0.28691  1.0000
  H   H3831     1.0  0.83227  0.95556  0.29918  1.0000
  C   C2398     1.0  0.69076  0.98742  0.30165  1.0000
  C   C2399     1.0  0.73576  0.91577  0.26778  1.0000
  S   S954      1.0  0.68044  0.93338  0.36244  1.0000
  C   C2400     1.0  0.55813  0.92595  0.47137  1.0000
  H   H3832     1.0  0.61753  0.91757  0.41250  1.0000
  H   H3833     1.0  0.95345  0.78877  0.33107  1.0000
  H   H3834     1.0  0.56947  0.91471  0.41998  1.0000
  H   H3835     1.0  0.99151  0.85889  0.32726  1.0000
  C   C2401     1.0  0.85169  0.97097  0.27737  1.0000
  H   H3836     1.0  0.99956  0.85444  0.34154  1.0000
  H   H3837     1.0  0.69475  0.97265  0.30352  1.0000
  C   C2402     1.0  0.75097  0.91996  0.26942  1.0000
  H   H3838     1.0  0.98778  0.81748  0.30741  1.0000
  H   H3839     1.0  0.89117  0.77273  0.29282  1.0000
  C   C2403     1.0  0.78648  0.81360  0.24193  1.0000
  S   S955      1.0  0.71178  0.86963  0.25230  1.0000
  H   H3840     1.0  0.96081  0.74508  0.35363  1.0000
  Fe  Fe477     1.0  0.51540  0.98291  0.44120  1.0000
  H   H3841     1.0  0.66369  0.82587  0.24245  1.0000
  S   S956      1.0  0.83449  0.78289  0.25210  1.0000
  H   H3842     1.0  0.75962  0.98231  0.35873  1.0000
  H   H3843     1.0  0.81807  0.86919  0.29121  1.0000
  H   H3844     1.0  0.96298  0.85238  0.35992  1.0000
  C   C2404     1.0  0.59266  0.94788  0.40954  1.0000
  C   C2405     1.0  0.84342  0.85100  0.27542  1.0000
  N   N242      1.0  0.83978  0.87033  0.27476  1.0000
  H   H3845     1.0  0.81609  0.97406  0.28232  1.0000
  H   H3846     1.0  0.58576  0.91505  0.43579  1.0000
  H   H3847     1.0  0.62671  0.84757  0.25437  1.0000
  H   H3848     1.0  0.82498  0.89447  0.26500  1.0000
  H   H3849     1.0  0.85317  0.97986  0.26777  1.0000
  H   H3850     1.0  0.98494  0.76040  0.32068  1.0000
  C   C2406     1.0  0.78393  0.78341  0.24423  1.0000
  C   C2407     1.0  0.83662  0.96759  0.29942  1.0000
  H   H3851     1.0  0.68192  0.81058  0.25867  1.0000
  C   C2408     1.0  0.92186  0.77577  0.27579  1.0000
  H   H3852     1.0  0.95682  0.76874  0.35190  1.0000
  H   H3853     1.0  0.98719  0.74619  0.33580  1.0000
  H   H3854     1.0  0.90300  0.80086  0.24020  1.0000
  C   C2409     1.0  0.69179  0.83913  0.24228  1.0000
  H   H3855     1.0  0.91413  0.78851  0.27858  1.0000
  H   H3856     1.0  0.94138  0.74616  0.33310  1.0000
  H   H3857     1.0  0.66688  0.97113  0.29902  1.0000
  H   H3858     1.0  0.84968  0.96289  0.30247  1.0000
  H   H3859     1.0  0.92242  0.74965  0.30527  1.0000
  H   H3860     1.0  0.65323  0.99054  0.29124  1.0000
  C   C2410     1.0  0.75991  0.99096  0.33383  1.0000
  H   H3861     1.0  0.00070  0.80153  0.37838  1.0000
  H   H3862     1.0  0.92429  0.74234  0.27366  1.0000
  S   S957      1.0  0.60296  0.99176  0.37270  1.0000
  C   C2411     1.0  0.83068  0.74218  0.32493  1.0000
  H   H3863     1.0  0.72224  0.90435  0.66051  1.0000
  Fe  Fe478     1.0  0.52817  0.97357  0.53084  1.0000
  S   S958      1.0  0.54573  0.94759  0.53780  1.0000
  C   C2412     1.0  0.62309  0.96511  0.55018  1.0000
  Fe  Fe479     1.0  0.78594  0.93308  0.62474  1.0000
  S   S959      1.0  0.97601  0.83636  0.63793  1.0000
  H   H3864     1.0  0.96937  0.87437  0.62658  1.0000
  C   C2413     1.0  0.72637  0.91611  0.65353  1.0000
  S   S960      1.0  0.72451  0.95783  0.57866  1.0000
  H   H3865     1.0  0.69054  0.91988  0.65990  1.0000
  H   H3866     1.0  0.72827  0.91354  0.64392  1.0000
  H   H3867     1.0  0.85964  0.81154  0.67995  1.0000
  H   H3868     1.0  0.99834  0.81985  0.60509  1.0000
  N   N243      1.0  0.71289  0.93262  0.65521  1.0000
  H   H3869     1.0  0.76431  0.88485  0.62388  1.0000
  H   H3870     1.0  0.76833  0.76373  0.71670  1.0000
  H   H3871     1.0  0.54328  0.91654  0.52951  1.0000
  H   H3872     1.0  0.96948  0.74703  0.63233  1.0000
  C   C2414     1.0  0.56633  0.92823  0.49377  1.0000
  S   S961      1.0  0.84563  0.76988  0.68508  1.0000
  S   S962      1.0  0.81457  0.79000  0.66094  1.0000
  H   H3873     1.0  0.82951  0.98378  0.62355  1.0000
  H   H3874     1.0  0.70955  0.96060  0.64697  1.0000
  S   S963      1.0  0.89581  0.75748  0.67115  1.0000
  Fe  Fe480     1.0  0.66278  0.98902  0.59558  1.0000
  Fe  Fe481     1.0  0.82506  0.93494  0.61418  1.0000
  S   S964      1.0  0.84648  0.93396  0.59641  1.0000
  Fe  Fe482     1.0  0.81192  0.92160  0.64220  1.0000
  S   S965      1.0  0.81546  0.89897  0.65905  1.0000
  S   S966      1.0  0.81145  0.91256  0.62508  1.0000
  Fe  Fe483     1.0  0.95212  0.84178  0.62922  1.0000
  S   S967      1.0  0.95589  0.84298  0.60852  1.0000
  Fe  Fe484     1.0  0.91274  0.84111  0.63444  1.0000
  S   S968      1.0  0.91316  0.84172  0.61425  1.0000
  S   S969      1.0  0.88665  0.83978  0.64845  1.0000
  Fe  Fe485     1.0  0.93939  0.82223  0.61458  1.0000
  S   S970      1.0  0.95062  0.79874  0.60530  1.0000
  Fe  Fe486     1.0  0.92937  0.86238  0.61000  1.0000
  S   S971      1.0  0.92475  0.88593  0.59419  1.0000
  S   S972      1.0  0.93750  0.81942  0.63525  1.0000
  S   S973      1.0  0.92705  0.86338  0.63022  1.0000
  Fe  Fe487     1.0  0.69077  0.86319  0.69593  1.0000
  S   S974      1.0  0.70416  0.84374  0.68321  1.0000
  Fe  Fe488     1.0  0.72325  0.88000  0.68904  1.0000
  S   S975      1.0  0.73909  0.86148  0.67631  1.0000
  S   S976      1.0  0.73527  0.90210  0.68968  1.0000
  Fe  Fe489     1.0  0.71381  0.86710  0.66925  1.0000
  S   S977      1.0  0.71852  0.87501  0.64790  1.0000
  Fe  Fe490     1.0  0.72779  0.84043  0.69162  1.0000
  S   S978      1.0  0.74388  0.81418  0.69997  1.0000
  S   S979      1.0  0.69834  0.88684  0.68126  1.0000
  S   S980      1.0  0.71398  0.85852  0.70512  1.0000
  C   C2415     1.0  0.72179  0.79405  0.73619  1.0000
  C   C2416     1.0  0.66161  0.85757  0.72382  1.0000
  H   H3875     1.0  0.54637  0.89874  0.52184  1.0000
  S   S981      1.0  0.67687  0.98400  0.57630  1.0000
  H   H3876     1.0  0.76053  0.95497  0.58135  1.0000
  H   H3877     1.0  0.64314  0.84009  0.72893  1.0000
  H   H3878     1.0  0.50486  0.91711  0.54362  1.0000
  C   C2417     1.0  0.79401  0.89918  0.66901  1.0000
  C   C2418     1.0  0.78294  0.91525  0.67155  1.0000
  C   C2419     1.0  0.76508  0.91590  0.67819  1.0000
  C   C2420     1.0  0.75819  0.90045  0.68240  1.0000
  C   C2421     1.0  0.76956  0.88416  0.68048  1.0000
  C   C2422     1.0  0.78744  0.88352  0.67374  1.0000
  H   H3879     1.0  0.78812  0.92727  0.66838  1.0000
  H   H3880     1.0  0.75652  0.92847  0.67991  1.0000
  H   H3881     1.0  0.76459  0.87206  0.68424  1.0000
  H   H3882     1.0  0.79596  0.87104  0.67191  1.0000
  C   C2423     1.0  0.86793  0.92017  0.59649  1.0000
  C   C2424     1.0  0.87134  0.90538  0.60632  1.0000
  C   C2425     1.0  0.88878  0.89457  0.60573  1.0000
  C   C2426     1.0  0.90274  0.89878  0.59541  1.0000
  C   C2427     1.0  0.89919  0.91344  0.58563  1.0000
  C   C2428     1.0  0.88186  0.92400  0.58613  1.0000
  H   H3883     1.0  0.86048  0.90217  0.61416  1.0000
  H   H3884     1.0  0.89143  0.88302  0.61318  1.0000
  H   H3885     1.0  0.90989  0.91673  0.57763  1.0000
  H   H3886     1.0  0.87927  0.93533  0.57849  1.0000
  C   C2429     1.0  0.79501  0.79705  0.67173  1.0000
  C   C2430     1.0  0.79378  0.79027  0.68476  1.0000
  C   C2431     1.0  0.77819  0.79595  0.69341  1.0000
  C   C2432     1.0  0.76367  0.80817  0.68906  1.0000
  C   C2433     1.0  0.76491  0.81508  0.67604  1.0000
  C   C2434     1.0  0.78065  0.80958  0.66737  1.0000
  H   H3887     1.0  0.80491  0.78077  0.68821  1.0000
  H   H3888     1.0  0.77738  0.79089  0.70348  1.0000
  H   H3889     1.0  0.75356  0.82427  0.67264  1.0000
  H   H3890     1.0  0.78153  0.81465  0.65729  1.0000
  C   C2435     1.0  0.89291  0.78045  0.66517  1.0000
  C   C2436     1.0  0.90547  0.78947  0.66568  1.0000
  C   C2437     1.0  0.90330  0.80781  0.66078  1.0000
  C   C2438     1.0  0.88858  0.81714  0.65534  1.0000
  C   C2439     1.0  0.87600  0.80816  0.65481  1.0000
  C   C2440     1.0  0.87812  0.78982  0.65978  1.0000
  H   H3891     1.0  0.91676  0.78235  0.67003  1.0000
  H   H3892     1.0  0.91300  0.81475  0.66126  1.0000
  H   H3893     1.0  0.86493  0.81525  0.65024  1.0000
  H   H3894     1.0  0.86855  0.78286  0.65914  1.0000
  C   C2441     1.0  0.67304  0.91497  0.63093  1.0000
  C   C2442     1.0  0.69036  0.91144  0.62348  1.0000
  C   C2443     1.0  0.70418  0.89901  0.62874  1.0000
  C   C2444     1.0  0.70083  0.89027  0.64153  1.0000
  C   C2445     1.0  0.68353  0.89388  0.64903  1.0000
  C   C2446     1.0  0.66965  0.90610  0.64370  1.0000
  H   H3895     1.0  0.69301  0.91798  0.61358  1.0000
  H   H3896     1.0  0.71749  0.89618  0.62286  1.0000
  H   H3897     1.0  0.68076  0.88705  0.65887  1.0000
  H   H3898     1.0  0.65624  0.90868  0.64950  1.0000
  C   C2447     1.0  0.94332  0.75927  0.65039  1.0000
  S   S982      1.0  0.64834  0.96569  0.56249  1.0000
  H   H3899     1.0  0.58212  0.90170  0.49369  1.0000
  H   H3900     1.0  0.72638  0.92530  0.62189  1.0000
  C   C2448     1.0  0.52298  0.92626  0.51197  1.0000
  C   C2449     1.0  0.91327  0.76611  0.60224  1.0000
  C   C2450     1.0  0.90595  0.78248  0.60592  1.0000
  C   C2451     1.0  0.91726  0.79272  0.60688  1.0000
  C   C2452     1.0  0.93591  0.78670  0.60394  1.0000
  C   C2453     1.0  0.94318  0.77050  0.60009  1.0000
  C   C2454     1.0  0.93191  0.76011  0.59941  1.0000
  H   H3901     1.0  0.89152  0.78711  0.60819  1.0000
  H   H3902     1.0  0.91154  0.80516  0.60994  1.0000
  H   H3903     1.0  0.95761  0.76580  0.59776  1.0000
  C   C2455     1.0  0.67161  0.86554  0.72833  1.0000
  H   H3904     1.0  0.58510  0.96116  0.58032  1.0000
  C   C2456     1.0  0.60618  0.96357  0.54934  1.0000
  Fe  Fe491     1.0  0.80123  0.96107  0.62995  1.0000
  H   H3905     1.0  0.95715  0.76784  0.62506  1.0000
  H   H3906     1.0  0.82822  0.85275  0.66771  1.0000
  S   S983      1.0  0.58023  0.96490  0.52155  1.0000
  S   S984      1.0  0.66319  0.86077  0.70746  1.0000
  H   H3907     1.0  0.97659  0.80184  0.61803  1.0000
  S   S985      1.0  0.65540  0.93010  0.62442  1.0000
  H   H3908     1.0  0.91231  0.76135  0.64389  1.0000
  H   H3909     1.0  0.61352  0.92319  0.58372  1.0000
  H   H3910     1.0  0.53469  0.89715  0.53823  1.0000
  C   C2457     1.0  0.71035  0.93514  0.66823  1.0000
  C   C2458     1.0  0.55509  0.94264  0.48742  1.0000
  H   H3911     1.0  0.73247  0.94893  0.64708  1.0000
  Fe  Fe492     1.0  0.56136  0.95153  0.51763  1.0000
  H   H3912     1.0  0.54947  0.95455  0.49117  1.0000
  H   H3913     1.0  0.95581  0.74756  0.62175  1.0000
  C   C2459     1.0  0.69568  0.93132  0.65311  1.0000
  S   S986      1.0  0.76022  0.92554  0.62593  1.0000
  N   N244      1.0  0.63702  0.91467  0.59182  1.0000
  C   C2460     1.0  0.65653  0.90791  0.58775  1.0000
  C   C2461     1.0  0.62943  0.90162  0.60266  1.0000
  C   C2462     1.0  0.62821  0.91764  0.58112  1.0000
  C   C2463     1.0  0.63396  0.93163  0.59577  1.0000
  H   H3914     1.0  0.66260  0.91740  0.57946  1.0000
  S   S987      1.0  0.57116  0.92804  0.50828  1.0000
  H   H3915     1.0  0.98350  0.78155  0.62892  1.0000
  H   H3916     1.0  0.63575  0.89931  0.61090  1.0000
  H   H3917     1.0  0.61471  0.90633  0.60595  1.0000
  H   H3918     1.0  0.63160  0.88857  0.60010  1.0000
  C   C2464     1.0  0.75313  0.94850  0.59023  1.0000
  H   H3919     1.0  0.92452  0.77675  0.63245  1.0000
  H   H3920     1.0  0.63389  0.92726  0.57274  1.0000
  H   H3921     1.0  0.61939  0.93721  0.59889  1.0000
  H   H3922     1.0  0.65942  0.89497  0.58489  1.0000
  Fe  Fe493     1.0  0.83657  0.74555  0.69761  1.0000
  N   N245      1.0  0.51948  0.91464  0.52469  1.0000
  C   C2465     1.0  0.61251  0.96421  0.57267  1.0000
  N   N246      1.0  0.87090  0.89693  0.64691  1.0000
  C   C2466     1.0  0.88427  0.88402  0.65369  1.0000
  C   C2467     1.0  0.88014  0.90855  0.63585  1.0000
  C   C2468     1.0  0.85808  0.90787  0.65559  1.0000
  C   C2469     1.0  0.86110  0.88723  0.64251  1.0000
  H   H3923     1.0  0.87776  0.87509  0.66211  1.0000
  H   H3924     1.0  0.89220  0.89080  0.65696  1.0000
  H   H3925     1.0  0.89390  0.87529  0.64749  1.0000
  H   H3926     1.0  0.89038  0.90067  0.62932  1.0000
  H   H3927     1.0  0.87051  0.91806  0.63025  1.0000
  H   H3928     1.0  0.88724  0.91650  0.63883  1.0000
  H   H3929     1.0  0.84772  0.91770  0.65082  1.0000
  H   H3930     1.0  0.86498  0.91540  0.65911  1.0000
  H   H3931     1.0  0.85076  0.89955  0.66400  1.0000
  H   H3932     1.0  0.85061  0.89654  0.63759  1.0000
  H   H3933     1.0  0.85419  0.87814  0.65059  1.0000
  H   H3934     1.0  0.87035  0.87896  0.63583  1.0000
  H   H3935     1.0  0.72124  0.94636  0.63601  1.0000
  H   H3936     1.0  0.73184  0.79695  0.72719  1.0000
  H   H3937     1.0  0.94336  0.77371  0.64726  1.0000
  S   S988      1.0  0.78556  0.94093  0.64243  1.0000
  C   C2470     1.0  0.53666  0.90634  0.52878  1.0000
  S   S989      1.0  0.64295  0.97213  0.59824  1.0000
  H   H3938     1.0  0.87301  0.74860  0.62607  1.0000
  H   H3939     1.0  0.68668  0.82629  0.72760  1.0000
  Fe  Fe494     1.0  0.65865  0.96536  0.57961  1.0000
  H   H3940     1.0  0.51040  0.93256  0.50845  1.0000
  N   N247      1.0  0.92400  0.85006  0.57380  1.0000
  C   C2471     1.0  0.92389  0.83692  0.56674  1.0000
  C   C2472     1.0  0.93806  0.84263  0.58133  1.0000
  C   C2473     1.0  0.90628  0.85407  0.58239  1.0000
  C   C2474     1.0  0.92779  0.86660  0.56481  1.0000
  H   H3941     1.0  0.91334  0.84199  0.56102  1.0000
  H   H3942     1.0  0.92125  0.82423  0.57332  1.0000
  H   H3943     1.0  0.93705  0.83364  0.56014  1.0000
  H   H3944     1.0  0.93877  0.85233  0.58656  1.0000
  H   H3945     1.0  0.93547  0.83033  0.58841  1.0000
  H   H3946     1.0  0.95160  0.83914  0.57521  1.0000
  H   H3947     1.0  0.90594  0.86391  0.58789  1.0000
  H   H3948     1.0  0.90298  0.84190  0.58935  1.0000
  H   H3949     1.0  0.89535  0.85983  0.57703  1.0000
  H   H3950     1.0  0.91746  0.87263  0.55895  1.0000
  H   H3951     1.0  0.94114  0.86416  0.55826  1.0000
  H   H3952     1.0  0.92788  0.87677  0.56992  1.0000
  C   C2475     1.0  0.83928  0.84362  0.67214  1.0000
  H   H3953     1.0  0.81540  0.82622  0.67064  1.0000
  Fe  Fe495     1.0  0.56012  0.98995  0.51621  1.0000
  H   H3954     1.0  0.53222  0.91866  0.50487  1.0000
  H   H3955     1.0  0.68513  0.94354  0.65428  1.0000
  C   C2476     1.0  0.76114  0.94142  0.60079  1.0000
  C   C2477     1.0  0.73535  0.94758  0.59127  1.0000
  C   C2478     1.0  0.98281  0.87017  0.62836  1.0000
  Fe  Fe496     1.0  0.69479  0.96125  0.58635  1.0000
  H   H3956     1.0  0.63000  0.90509  0.57798  1.0000
  H   H3957     1.0  0.70554  0.92386  0.67548  1.0000
  H   H3958     1.0  0.61469  0.96488  0.58163  1.0000
  Fe  Fe497     1.0  0.66376  0.94988  0.60656  1.0000
  C   C2479     1.0  0.73389  0.93182  0.61312  1.0000
  C   C2480     1.0  0.57346  0.91287  0.48884  1.0000
  C   C2481     1.0  0.75135  0.93334  0.61228  1.0000
  H   H3959     1.0  0.75869  0.97214  0.61317  1.0000
  N   N248      1.0  0.77772  0.87082  0.63919  1.0000
  C   C2482     1.0  0.79618  0.86496  0.64143  1.0000
  C   C2483     1.0  0.76702  0.88346  0.64729  1.0000
  C   C2484     1.0  0.76939  0.85526  0.64237  1.0000
  C   C2485     1.0  0.77815  0.87966  0.62572  1.0000
  H   H3960     1.0  0.80480  0.85574  0.63523  1.0000
  H   H3961     1.0  0.79622  0.85795  0.65146  1.0000
  H   H3962     1.0  0.80259  0.87650  0.63951  1.0000
  H   H3963     1.0  0.75294  0.88776  0.64599  1.0000
  H   H3964     1.0  0.76662  0.87744  0.65750  1.0000
  H   H3965     1.0  0.77266  0.89556  0.64503  1.0000
  H   H3966     1.0  0.75562  0.85919  0.64042  1.0000
  H   H3967     1.0  0.76809  0.84873  0.65260  1.0000
  H   H3968     1.0  0.77737  0.84513  0.63672  1.0000
  H   H3969     1.0  0.78562  0.87042  0.61927  1.0000
  H   H3970     1.0  0.78466  0.89126  0.62293  1.0000
  C   C2486     1.0  0.65093  0.84623  0.73240  1.0000
  H   H3971     1.0  0.75720  0.77128  0.69654  1.0000
  H   H3972     1.0  0.75726  0.75376  0.68934  1.0000
  H   H3973     1.0  0.63962  0.94173  0.58783  1.0000
  C   C2487     1.0  0.50740  0.92532  0.53383  1.0000
  H   H3974     1.0  0.82198  0.80647  0.68196  1.0000
  N   N249      1.0  0.83314  0.82833  0.68151  1.0000
  H   H3975     1.0  0.83760  0.81265  0.66758  1.0000
  S   S990      1.0  0.67808  0.94179  0.58807  1.0000
  H   H3976     1.0  0.52934  0.93705  0.51205  1.0000
  H   H3977     1.0  0.00050  0.78964  0.60128  1.0000
  C   C2488     1.0  0.92430  0.76238  0.63598  1.0000
  H   H3978     1.0  0.66366  0.90594  0.59552  1.0000
  C   C2489     1.0  0.98933  0.85234  0.63362  1.0000
  S   S991      1.0  0.54280  0.97667  0.51048  1.0000
  C   C2490     1.0  0.82675  0.81804  0.67513  1.0000
  H   H3979     1.0  0.72319  0.93581  0.67020  1.0000
  C   C2491     1.0  0.69788  0.81448  0.72683  1.0000
  S   S992      1.0  0.89911  0.75308  0.60141  1.0000
  H   H3980     1.0  0.77478  0.94234  0.60006  1.0000
  H   H3981     1.0  0.85037  0.83916  0.66436  1.0000
  H   H3982     1.0  0.98191  0.80265  0.63240  1.0000
  H   H3983     1.0  0.73963  0.91679  0.65479  1.0000
  H   H3984     1.0  0.85343  0.82403  0.69216  1.0000
  C   C2492     1.0  0.72588  0.93901  0.60265  1.0000
  Fe  Fe498     1.0  0.83158  0.76646  0.67137  1.0000
  H   H3985     1.0  0.84441  0.85155  0.67661  1.0000
  H   H3986     1.0  0.69718  0.92933  0.64337  1.0000
  S   S993      1.0  0.79923  0.95487  0.61209  1.0000
  S   S994      1.0  0.82803  0.94243  0.63136  1.0000
  H   H3987     1.0  0.73660  0.98087  0.60991  1.0000
  H   H3988     1.0  0.81338  0.82356  0.69882  1.0000
  H   H3989     1.0  0.82253  0.84275  0.69656  1.0000
  C   C2493     1.0  0.62641  0.96520  0.56186  1.0000
  Fe  Fe499     1.0  0.56272  0.96368  0.54110  1.0000
  S   S995      1.0  0.57141  0.95889  0.55973  1.0000
  C   C2494     1.0  0.59252  0.96183  0.56023  1.0000
  H   H3990     1.0  0.93225  0.75758  0.65890  1.0000
  S   S996      1.0  0.68207  0.96749  0.60557  1.0000
  H   H3991     1.0  0.84406  0.80501  0.69433  1.0000
  C   C2495     1.0  0.59571  0.96227  0.57188  1.0000
  H   H3992     1.0  0.64041  0.92992  0.60382  1.0000
  H   H3993     1.0  0.80658  0.84342  0.68761  1.0000
  C   C2496     1.0  0.84820  0.81675  0.68725  1.0000
  C   C2497     1.0  0.81827  0.83481  0.69157  1.0000
  H   H3994     1.0  0.71236  0.93788  0.60336  1.0000
  H   H3995     1.0  0.70036  0.94752  0.66988  1.0000
  C   C2498     1.0  0.71928  0.94785  0.64593  1.0000
  H   H3996     1.0  0.50799  0.89167  0.53360  1.0000
  H   H3997     1.0  0.60388  0.96335  0.54030  1.0000
  C   C2499     1.0  0.98583  0.79522  0.62464  1.0000
  H   H3998     1.0  0.67964  0.87453  0.72177  1.0000
  C   C2500     1.0  0.51090  0.90067  0.52415  1.0000
  C   C2501     1.0  0.95653  0.75370  0.62936  1.0000
  H   H3999     1.0  0.77812  0.75852  0.68941  1.0000
  H   H4000     1.0  0.93770  0.74752  0.59657  1.0000
  H   H4001     1.0  0.63372  0.96602  0.54174  1.0000
  H   H4002     1.0  0.51969  0.89239  0.51733  1.0000
  Fe  Fe500     1.0  0.86877  0.75078  0.67616  1.0000
  H   H4003     1.0  0.70735  0.81788  0.71762  1.0000
  C   C2502     1.0  0.76436  0.75766  0.69515  1.0000
  H   H4004     1.0  0.73917  0.75799  0.71668  1.0000
  S   S997      1.0  0.54356  0.98948  0.53590  1.0000
  S   S998      1.0  0.85546  0.74929  0.66129  1.0000
  N   N250      1.0  0.94102  0.75215  0.64018  1.0000
  H   H4005     1.0  0.92228  0.75747  0.62817  1.0000
  H   H4006     1.0  0.85751  0.75454  0.60900  1.0000
  H   H4007     1.0  0.83925  0.75534  0.63108  1.0000
  C   C2503     1.0  0.99353  0.88273  0.62582  1.0000
  H   H4008     1.0  0.51319  0.93637  0.53420  1.0000
  H   H4009     1.0  0.98830  0.89658  0.62207  1.0000
  H   H4010     1.0  0.72385  0.82846  0.72905  1.0000
  H   H4011     1.0  0.69210  0.80350  0.72637  1.0000
  H   H4012     1.0  0.50774  0.96790  0.51270  1.0000
  H   H4013     1.0  0.78893  0.75096  0.70925  1.0000
  H   H4014     1.0  0.75584  0.97994  0.59706  1.0000
  C   C2504     1.0  0.75074  0.98260  0.60681  1.0000
  H   H4015     1.0  0.95611  0.75226  0.65349  1.0000
  C   C2505     1.0  0.77494  0.75036  0.71461  1.0000
  S   S999      1.0  0.79069  0.98937  0.63269  1.0000
  S   S1000     1.0  0.82028  0.74379  0.68467  1.0000
  S   S1001     1.0  0.82490  0.74532  0.71829  1.0000
  N   N251      1.0  0.76496  0.74489  0.70742  1.0000
  C   C2506     1.0  0.74646  0.74460  0.71486  1.0000
  H   H4016     1.0  0.71681  0.78235  0.73609  1.0000
  Fe  Fe501     1.0  0.56266  0.94800  0.90710  1.0000
  S   S1002     1.0  0.54869  0.97533  0.89862  1.0000
  S   S1003     1.0  0.57542  0.92927  0.89358  1.0000
  Fe  Fe502     1.0  0.55237  0.95562  0.93368  1.0000
  H   H4017     1.0  0.51546  0.80837  0.83256  1.0000
  S   S1004     1.0  0.55499  0.94500  0.95416  1.0000
  Fe  Fe503     1.0  0.52672  0.97096  0.91566  1.0000
  C   C2507     1.0  0.58866  0.82704  0.81685  1.0000
  C   C2508     1.0  0.50839  0.95330  0.90050  1.0000
  C   C2509     1.0  0.50506  0.93998  0.89602  1.0000
  S   S1005     1.0  0.53974  0.94299  0.92356  1.0000
  S   S1006     1.0  0.57665  0.95837  0.91780  1.0000
  Fe  Fe504     1.0  0.54921  0.85253  0.87886  1.0000
  S   S1007     1.0  0.54804  0.86971  0.85954  1.0000
  S   S1008     1.0  0.54375  0.86308  0.89666  1.0000
  Fe  Fe505     1.0  0.55916  0.81823  0.86896  1.0000
  S   S1009     1.0  0.55877  0.83263  0.84886  1.0000
  S   S1010     1.0  0.56741  0.78840  0.87339  1.0000
  Fe  Fe506     1.0  0.57304  0.85045  0.85286  1.0000
  S   S1011     1.0  0.59607  0.85944  0.83812  1.0000
  S   S1012     1.0  0.57557  0.83473  0.87235  1.0000
  H   H4018     1.0  0.59721  0.82916  0.79156  1.0000
  Fe  Fe507     1.0  0.65673  0.79462  0.80346  1.0000
  S   S1013     1.0  0.63545  0.81487  0.79476  1.0000
  S   S1014     1.0  0.65487  0.79273  0.82409  1.0000
  Fe  Fe508     1.0  0.67166  0.77888  0.77996  1.0000
  S   S1015     1.0  0.65092  0.79755  0.76955  1.0000
  S   S1016     1.0  0.69357  0.76025  0.76941  1.0000
  Fe  Fe509     1.0  0.65680  0.81816  0.77709  1.0000
  Fe  Fe510     1.0  0.63162  0.79231  0.78831  1.0000
  S   S1017     1.0  0.60286  0.78980  0.79280  1.0000
  S   S1018     1.0  0.67876  0.79983  0.78639  1.0000
  S   S1019     1.0  0.65178  0.77168  0.79805  1.0000
  C   C2510     1.0  0.66087  0.85029  0.74992  1.0000
  C   C2511     1.0  0.55493  0.98608  0.97579  1.0000
  C   C2512     1.0  0.70624  0.74386  0.77938  1.0000
  H   H4019     1.0  0.57244  0.77461  0.80676  1.0000
  H   H4020     1.0  0.51767  0.97712  0.97942  1.0000
  C   C2513     1.0  0.65078  0.84236  0.74543  1.0000
  C   C2514     1.0  0.54927  0.75047  0.86582  1.0000
  C   C2515     1.0  0.69380  0.80512  0.74963  1.0000
  C   C2516     1.0  0.56364  0.85072  0.81192  1.0000
  C   C2517     1.0  0.61331  0.84117  0.83480  1.0000
  C   C2518     1.0  0.62633  0.84308  0.82353  1.0000
  C   C2519     1.0  0.63936  0.82826  0.82032  1.0000
  C   C2520     1.0  0.63971  0.81160  0.82856  1.0000
  C   C2521     1.0  0.62710  0.80983  0.84007  1.0000
  C   C2522     1.0  0.61369  0.82453  0.84307  1.0000
  H   H4021     1.0  0.62617  0.85594  0.81713  1.0000
  H   H4022     1.0  0.64926  0.82973  0.81150  1.0000
  H   H4023     1.0  0.62744  0.79699  0.84649  1.0000
  H   H4024     1.0  0.60367  0.82291  0.85178  1.0000
  C   C2523     1.0  0.55525  0.77776  0.86789  1.0000
  C   C2524     1.0  0.54256  0.78770  0.86069  1.0000
  C   C2525     1.0  0.53324  0.77902  0.85611  1.0000
  C   C2526     1.0  0.58403  0.76386  0.80543  1.0000
  H   H4025     1.0  0.68249  0.81662  0.75118  1.0000
  H   H4026     1.0  0.59347  0.86053  0.81183  1.0000
  H   H4027     1.0  0.57907  0.78953  0.83857  1.0000
  H   H4028     1.0  0.61181  0.79131  0.82858  1.0000
  C   C2527     1.0  0.61550  0.75361  0.79664  1.0000
  C   C2528     1.0  0.55862  0.75914  0.87043  1.0000
  C   C2529     1.0  0.56447  0.91219  0.89488  1.0000
  C   C2530     1.0  0.56177  0.89954  0.90621  1.0000
  C   C2531     1.0  0.55533  0.88459  0.90665  1.0000
  C   C2532     1.0  0.55146  0.88221  0.89579  1.0000
  C   C2533     1.0  0.55380  0.89503  0.88452  1.0000
  C   C2534     1.0  0.56036  0.90994  0.88407  1.0000
  H   H4029     1.0  0.56538  0.90095  0.91449  1.0000
  H   H4030     1.0  0.55374  0.87462  0.91535  1.0000
  H   H4031     1.0  0.55055  0.89349  0.87616  1.0000
  H   H4032     1.0  0.56237  0.91973  0.87530  1.0000
  S   S1020     1.0  0.66186  0.84494  0.76602  1.0000
  H   H4033     1.0  0.51751  0.88260  0.91913  1.0000
  H   H4034     1.0  0.52706  0.94411  0.98291  1.0000
  H   H4035     1.0  0.60453  0.74821  0.82684  1.0000
  C   C2535     1.0  0.54925  0.99148  0.96432  1.0000
  C   C2536     1.0  0.56048  0.96795  0.98077  1.0000
  H   H4036     1.0  0.58820  0.97609  0.95099  1.0000
  H   H4037     1.0  0.57350  0.76810  0.84328  1.0000
  C   C2537     1.0  0.61832  0.98810  0.94677  1.0000
  H   H4038     1.0  0.62822  0.75636  0.79095  1.0000
  S   S1021     1.0  0.53283  0.83441  0.87737  1.0000
  H   H4039     1.0  0.60281  0.82040  0.81352  1.0000
  H   H4040     1.0  0.50527  0.75067  0.83293  1.0000
  H   H4041     1.0  0.57837  0.84650  0.78800  1.0000
  H   H4042     1.0  0.60828  0.84905  0.79996  1.0000
  H   H4043     1.0  0.56834  0.75141  0.87609  1.0000
  H   H4044     1.0  0.50633  0.76369  0.87868  1.0000
  H   H4045     1.0  0.58979  0.86662  0.79593  1.0000
  H   H4046     1.0  0.53381  0.90532  0.92855  1.0000
  H   H4047     1.0  0.62852  0.77116  0.82830  1.0000
  H   H4048     1.0  0.55838  0.86213  0.80469  1.0000
  N   N252      1.0  0.58237  0.84212  0.80697  1.0000
  H   H4049     1.0  0.52720  0.82895  0.83983  1.0000
  H   H4050     1.0  0.51928  0.90506  0.91133  1.0000
  H   H4051     1.0  0.52195  0.90131  0.94480  1.0000
  H   H4052     1.0  0.61814  0.76209  0.85146  1.0000
  C   C2538     1.0  0.60405  0.76787  0.85034  1.0000
  H   H4053     1.0  0.68957  0.75089  0.79676  1.0000
  H   H4054     1.0  0.50811  0.92900  0.92339  1.0000
  H   H4055     1.0  0.72887  0.79011  0.74419  1.0000
  C   C2539     1.0  0.58322  0.83555  0.79563  1.0000
  H   H4056     1.0  0.57497  0.82536  0.79792  1.0000
  H   H4057     1.0  0.56258  0.85592  0.82044  1.0000
  C   C2540     1.0  0.71391  0.82478  0.73796  1.0000
  H   H4058     1.0  0.55451  0.84123  0.81473  1.0000
  C   C2541     1.0  0.56055  0.95533  0.97408  1.0000
  H   H4059     1.0  0.52362  0.78672  0.85043  1.0000
  Fe  Fe511     1.0  0.53385  0.85024  0.85744  1.0000
  C   C2542     1.0  0.51065  0.89680  0.91880  1.0000
  C   C2543     1.0  0.52414  0.89769  0.93549  1.0000
  H   H4060     1.0  0.64274  0.83340  0.75198  1.0000
  H   H4061     1.0  0.53988  0.80205  0.85866  1.0000
  C   C2544     1.0  0.54920  0.97893  0.95773  1.0000
  C   C2545     1.0  0.53641  0.76043  0.85876  1.0000
  H   H4062     1.0  0.56961  0.74351  0.81642  1.0000
  H   H4063     1.0  0.61292  0.77739  0.81807  1.0000
  H   H4064     1.0  0.50730  0.87578  0.87114  1.0000
  H   H4065     1.0  0.58813  0.83155  0.82554  1.0000
  C   C2546     1.0  0.60586  0.74889  0.83633  1.0000
  C   C2547     1.0  0.51295  0.83097  0.84051  1.0000
  H   H4066     1.0  0.52207  0.95444  0.89932  1.0000
  H   H4067     1.0  0.61599  0.97831  0.95593  1.0000
  H   H4068     1.0  0.51617  0.93079  0.89157  1.0000
  H   H4069     1.0  0.54467  0.98338  0.94899  1.0000
  N   N253      1.0  0.60181  0.76751  0.83774  1.0000
  H   H4070     1.0  0.53070  0.88333  0.93651  1.0000
  H   H4071     1.0  0.60056  0.78170  0.85190  1.0000
  S   S1022     1.0  0.52297  0.75007  0.85418  1.0000
  C   C2548     1.0  0.55495  0.96082  0.96249  1.0000
  H   H4072     1.0  0.58034  0.81686  0.81957  1.0000
  C   C2549     1.0  0.60065  0.76760  0.79848  1.0000
  N   N254      1.0  0.60701  0.87517  0.86766  1.0000
  C   C2550     1.0  0.59845  0.86967  0.88117  1.0000
  C   C2551     1.0  0.61920  0.88689  0.86655  1.0000
  C   C2552     1.0  0.59305  0.88492  0.86033  1.0000
  C   C2553     1.0  0.61734  0.85926  0.86257  1.0000
  H   H4073     1.0  0.58836  0.86163  0.88236  1.0000
  H   H4074     1.0  0.59133  0.88139  0.88547  1.0000
  H   H4075     1.0  0.60850  0.86155  0.88688  1.0000
  H   H4076     1.0  0.62583  0.89135  0.85648  1.0000
  H   H4077     1.0  0.61176  0.89903  0.87034  1.0000
  H   H4078     1.0  0.62991  0.87999  0.87198  1.0000
  H   H4079     1.0  0.59897  0.88861  0.85001  1.0000
  H   H4080     1.0  0.58545  0.89738  0.86355  1.0000
  H   H4081     1.0  0.58322  0.87672  0.86133  1.0000
  H   H4082     1.0  0.62373  0.86291  0.85232  1.0000
  H   H4083     1.0  0.60852  0.85015  0.86329  1.0000
  H   H4084     1.0  0.62813  0.85160  0.86775  1.0000
  C   C2554     1.0  0.59397  0.85516  0.80351  1.0000
  H   H4085     1.0  0.59883  0.97840  0.93443  1.0000
  C   C2555     1.0  0.61427  0.77728  0.82773  1.0000
  S   S1023     1.0  0.53678  0.98302  0.92735  1.0000
  N   N255      1.0  0.70684  0.80961  0.73765  1.0000
  H   H4086     1.0  0.67869  0.86841  0.74484  1.0000
  H   H4087     1.0  0.68795  0.79393  0.74966  1.0000
  C   C2556     1.0  0.58311  0.77596  0.83653  1.0000
  Fe  Fe512     1.0  0.56013  0.98526  0.91094  1.0000
  H   H4088     1.0  0.59517  0.76027  0.85813  1.0000
  H   H4089     1.0  0.58126  0.77705  0.82683  1.0000
  C   C2557     1.0  0.67099  0.86215  0.74138  1.0000
  H   H4090     1.0  0.50661  0.78416  0.88221  1.0000
  H   H4091     1.0  0.72056  0.82170  0.74609  1.0000
  S   S1024     1.0  0.50887  0.86083  0.84969  1.0000
  H   H4092     1.0  0.70294  0.83676  0.73897  1.0000
  C   C2558     1.0  0.59118  0.98594  0.94196  1.0000
  H   H4093     1.0  0.62682  0.98056  0.93943  1.0000
  H   H4094     1.0  0.56507  0.94130  0.97783  1.0000
  H   H4095     1.0  0.70015  0.80111  0.75800  1.0000
  C   C2559     1.0  0.50632  0.81934  0.83641  1.0000
  C   C2560     1.0  0.58239  0.74623  0.81088  1.0000
  N   N256      1.0  0.50709  0.90156  0.93126  1.0000
  H   H4096     1.0  0.61981  0.74204  0.83731  1.0000
