data_image0
_chemical_formula_structural       FeS2FeS2FeSFeS3FeS2FeS2FeSFeS3FeS2FeS2FeSFeS3C6H4C6H4C6H4C6H4C6H4C6H4FeS2FeS2FeSFeS3FeS2FeS2FeSFeS3FeS2FeS2FeSFeS3C6H4C6H4C6H4C6H4C6H4C6H4FeS2FeS2FeSFeS3FeS2FeS2FeSFeS3FeS2FeS2FeSFeS3C6H4C6H4C6H4C6H4C6H4C6H4FeS2FeS2FeSFeS3FeS2FeS2FeSFeS3FeS2FeS2FeSFeS3C6H4C6H4C6H4C6H4C6H4C6H4NC4H12NC4H12NC4H12NC4H12NC4H12NC4H12NC4H12NC4H12NC4H12NC4H12NC4H12NC4H12NC4H12NC4H12NC4H12NC4H12NC4H12NC4H12NC4H12NC4H12NC4H12NC4H12NC4H12NC4H12
_chemical_formula_sum              "Fe48 S96 C240 H384 N24"
_cell_length_a       37.33907112624333
_cell_length_b       35.89996457370747
_cell_length_c       23.45820307380578
_cell_angle_alpha    90.22066380519621
_cell_angle_beta     89.79206765901543
_cell_angle_gamma    120.64144491053798

_space_group_name_H-M_alt    "P 1"
_space_group_IT_number       1

loop_
  _space_group_symop_operation_xyz
  'x, y, z'

loop_
  _atom_site_type_symbol
  _atom_site_label
  _atom_site_symmetry_multiplicity
  _atom_site_fract_x
  _atom_site_fract_y
  _atom_site_fract_z
  _atom_site_occupancy
  Fe  Fe1       1.0  0.3153313922658836  0.48583598041098297  0.5720412802824608  1.0000
  S   S1        1.0  0.2921634282639715  0.5298784834924462  0.5980807593829325  1.0000
  S   S2        1.0  0.2949813098856235  0.4265453002960453  0.6255813060105538  1.0000
  Fe  Fe2       1.0  0.37919322400854366  0.08551976706514226  0.5519461501839082  1.0000
  S   S3        1.0  0.34275251867485784  0.11722474449556951  0.5300345842869479  1.0000
  S   S4        1.0  0.4433545651718458  0.10986782973155748  0.5153880650251347  1.0000
  Fe  Fe3       1.0  0.3314712224950121  0.11613359637051011  0.624161393980211  1.0000
  S   S5        1.0  0.34600959866354897  0.18224355561488093  0.6543151537479326  1.0000
  Fe  Fe4       1.0  0.2728027065952688  0.52481702373044  0.506790905472544  1.0000
  S   S6        1.0  0.20745486474166988  0.5065903910729909  0.4855321731377143  1.0000
  S   S7        1.0  0.37130650408898835  0.0879562257222448  0.6466787961170649  1.0000
  S   S8        1.0  0.2913637230389436  0.476709990075369  0.48260932294412817  1.0000
  Fe  Fe5       1.0  0.38261264252781724  0.38238911791308  0.8897026111242102  1.0000
  S   S9        1.0  0.3148785547518504  0.34548233785663346  0.9134889552809232  1.0000
  S   S10       1.0  0.4129619904895109  0.43691065435182946  0.826018430396738  1.0000
  Fe  Fe6       1.0  0.4051118968798155  0.3340460610479998  0.9755367163632903  1.0000
  S   S11       1.0  0.339539586732932  0.2935292757240461  0.0070491325248882575  1.0000
  S   S12       1.0  0.4560131103729683  0.32147324450458165  0.0008607430144094153  1.0000
  Fe  Fe7       1.0  0.3225636240688377  0.28729364455916123  0.9142429165512148  1.0000
  S   S13       1.0  0.27630913537722135  0.2214583957237028  0.8792706745549143  1.0000
  Fe  Fe8       1.0  0.338185016590271  0.35530985271155463  0.003563947867405215  1.0000
  S   S14       1.0  0.31234394350215955  0.38135703025874307  0.06922610711650123  1.0000
  S   S15       1.0  0.38833816529075105  0.32340027336252325  0.8829848575153384  1.0000
  S   S16       1.0  0.4056798748387376  0.3966608458458409  0.9799147777942048  1.0000
  Fe  Fe9       1.0  0.5530239308698562  0.298656566236261  0.30509654821709864  1.0000
  S   S17       1.0  0.5632587427282698  0.36409548646056394  0.3259863480225455  1.0000
  S   S18       1.0  0.486750117125182  0.243769527299212  0.31481244561300237  1.0000
  Fe  Fe10      1.0  0.10409700901322048  0.28081234978688957  0.2088486516631089  1.0000
  S   S19       1.0  0.09378713035094793  0.3265759900775634  0.15638634613818636  1.0000
  S   S20       1.0  0.13673889151057111  0.24768973407171058  0.17333483714952308  1.0000
  Fe  Fe11      1.0  0.11611568668724728  0.36845031740738154  0.2348445818323322  1.0000
  S   S21       1.0  0.16786863499844967  0.43791651299568635  0.23254257272704806  1.0000
  Fe  Fe12      1.0  0.5967093137742087  0.3851758725116927  0.2427986733925022  1.0000
  S   S22       1.0  0.5833027449060951  0.4308262017483036  0.19482643165243732  1.0000
  S   S23       1.0  0.1307195531692121  0.32473061972442474  0.28444595040794873  1.0000
  S   S24       1.0  0.5816557645478716  0.31830408024681883  0.21788438872130053  1.0000
  C   C1        1.0  0.26411152207857846  0.34379266971279704  0.09914053705347836  1.0000
  C   C2        1.0  0.2518367999223223  0.3000604154235882  0.10411606955227205  1.0000
  C   C3        1.0  0.21315664530027623  0.27080569130061294  0.12877728678166564  1.0000
  C   C4        1.0  0.18650054639556046  0.2851172369572675  0.14750957474011284  1.0000
  C   C5        1.0  0.1991927709127452  0.3289854788042441  0.14338932159852225  1.0000
  C   C6        1.0  0.2379176938424257  0.3582358239879661  0.1192953555313343  1.0000
  H   H1        1.0  0.2723269923775402  0.2889137368095692  0.08971720940043686  1.0000
  H   H2        1.0  0.20368327605719636  0.23701121402698894  0.13313405344066598  1.0000
  H   H3        1.0  0.17894538009204486  0.3403502629849118  0.15803759059890954  1.0000
  H   H4        1.0  0.24713106810520125  0.3919600548279726  0.11516765774100235  1.0000
  C   C7        1.0  0.492154967299768  0.3544702771854277  0.05248968029716905  1.0000
  C   C8        1.0  0.4868835561332305  0.3844089601675447  0.08420671031435815  1.0000
  C   C9        1.0  0.5158308652157346  0.40912614070174297  0.12677001392217463  1.0000
  C   C10       1.0  0.5492234632759868  0.4029216705921553  0.13855395573109616  1.0000
  C   C11       1.0  0.5545060840555052  0.37321516070486876  0.10646989272686103  1.0000
  C   C12       1.0  0.5263396643705752  0.3494727240127398  0.06303820353925582  1.0000
  H   H5        1.0  0.46033860795015114  0.388147996864886  0.07649314137146346  1.0000
  H   H6        1.0  0.5116226005159153  0.4320098184086032  0.15178359894873972  1.0000
  H   H7        1.0  0.5805770039718869  0.3687745142259194  0.11483078190738283  1.0000
  H   H8        1.0  0.5307836364550121  0.3266644450948119  0.03817282003696776  1.0000
  C   C13       1.0  0.17824174291263592  0.4597720419001243  0.3015898186895727  1.0000
  C   C14       1.0  0.21888478472692702  0.4912785993069808  0.31675960639292466  1.0000
  C   C15       1.0  0.2281248844244671  0.5060853800518882  0.3732785792142424  1.0000
  C   C16       1.0  0.1961902875090373  0.4912044634347176  0.4138401909752622  1.0000
  C   C17       1.0  0.15520046993897313  0.4614006816483835  0.3978650386458705  1.0000
  C   C18       1.0  0.14642646690011085  0.44482999761521336  0.34221824209671564  1.0000
  H   H9        1.0  0.2432668096778091  0.503590232956251  0.2850095872613029  1.0000
  H   H10       1.0  0.2597890781853815  0.5293873464276324  0.3853381983981768  1.0000
  H   H11       1.0  0.1303169049860793  0.4503267115925931  0.4288099243421633  1.0000
  H   H12       1.0  0.1148912892002367  0.421039008353704  0.33054775168893546  1.0000
  C   C19       1.0  0.45552748781198504  0.14484932292220154  0.45679441796630477  1.0000
  C   C20       1.0  0.4239740040926209  0.14470564623708265  0.42473836580605584  1.0000
  C   C21       1.0  0.43401445358738927  0.17479481088994334  0.38068541042838056  1.0000
  C   C22       1.0  0.47566305929908187  0.2052578141203882  0.368447331310283  1.0000
  C   C23       1.0  0.507347899592855  0.20499000100534503  0.3997617069944502  1.0000
  C   C24       1.0  0.4972607799551632  0.17472000652303626  0.4437897646069829  1.0000
  H   H13       1.0  0.3917784428979981  0.1209903119854675  0.4333285304969935  1.0000
  H   H14       1.0  0.4093604495689544  0.17450575711915806  0.3562395081901191  1.0000
  H   H15       1.0  0.5395567485106775  0.22806945345044424  0.3902205806959134  1.0000
  H   H16       1.0  0.5217948614442265  0.17482021492807676  0.46830906364337616  1.0000
  C   C25       1.0  0.32499850469909297  0.19127920522187478  0.7165466314933803  1.0000
  C   C26       1.0  0.29629039482645153  0.15739308804320623  0.7511372178943142  1.0000
  C   C27       1.0  0.28080142154218596  0.16662337983338796  0.8007689952905198  1.0000
  C   C28       1.0  0.2943917606726505  0.20967158022745905  0.8161039349601329  1.0000
  C   C29       1.0  0.3225311880671241  0.24328429324741252  0.7808899721390384  1.0000
  C   C30       1.0  0.337763621332424  0.23411933358736564  0.7313813036501714  1.0000
  H   H17       1.0  0.28615590488927256  0.12424148494892402  0.7397551537576232  1.0000
  H   H18       1.0  0.2588383917157169  0.1404563749725317  0.8276987928961606  1.0000
  H   H19       1.0  0.3321059068691884  0.2764136308733925  0.791200961914529  1.0000
  H   H20       1.0  0.3595183484475685  0.2604092877863303  0.7044322688050203  1.0000
  C   C31       1.0  0.3807348853784441  0.43315547410843536  0.7689863527911645  1.0000
  C   C32       1.0  0.3405247959983739  0.3973978221080551  0.7636063289605355  1.0000
  C   C33       1.0  0.3147335294213971  0.39545205370964437  0.7189073074874579  1.0000
  C   C34       1.0  0.3289832133815313  0.4291772895784646  0.6792597381621959  1.0000
  C   C35       1.0  0.36945276239331554  0.4647084072011759  0.6839911884357329  1.0000
  C   C36       1.0  0.3952740280068881  0.4666900118843834  0.7288537037682793  1.0000
  H   H21       1.0  0.32931340548169924  0.3710167019647795  0.7935894552368635  1.0000
  H   H22       1.0  0.28360198621596017  0.3677049446406843  0.7151236281595075  1.0000
  H   H23       1.0  0.38084800339388675  0.49054645779244993  0.6531072568135485  1.0000
  H   H24       1.0  0.42655243552112976  0.4941725548752865  0.732453898939537  1.0000
  Fe  Fe13      1.0  0.31279011688128866  0.023103721718244152  0.6347885317280326  1.0000
  S   S25       1.0  0.2721702878753678  0.05171273674986132  0.6205883686248971  1.0000
  S   S26       1.0  0.2840386419091004  0.9600351909667951  0.683328541948676  1.0000
  Fe  Fe14      1.0  0.35291536402477963  0.5349288814385498  0.4615422326309088  1.0000
  S   S27       1.0  0.3325707008559718  0.5830028083788479  0.47825948177204003  1.0000
  S   S28       1.0  0.3886780402694354  0.5369011276137224  0.3831979178512053  1.0000
  Fe  Fe15      1.0  0.3541167577795719  0.5834002925096795  0.5674474727830935  1.0000
  S   S29       1.0  0.3961463554337705  0.6443091636899775  0.6164091040546836  1.0000
  Fe  Fe16      1.0  0.28738128447628675  0.050307242617145365  0.5284408841940693  1.0000
  S   S30       1.0  0.2341814696189977  0.026499700091802803  0.4665941663816096  1.0000
  S   S31       1.0  0.37926914145174945  0.5395917937645576  0.5488931454478257  1.0000
  S   S32       1.0  0.32472633438618764  0.01815578923414818  0.5421950446166351  1.0000
  Fe  Fe17      1.0  0.3875703132829051  0.861550509912238  0.8614385121018956  1.0000
  S   S33       1.0  0.3220649164452205  0.8076496412251908  0.8752785406320429  1.0000
  S   S34       1.0  0.4055359049189624  0.9292490585243447  0.8366059006609268  1.0000
  Fe  Fe18      1.0  0.42483908332278236  0.806290223499729  0.8932493734268939  1.0000
  S   S35       1.0  0.36231222021181514  0.7475790835448892  0.9099562484850013  1.0000
  S   S36       1.0  0.48030598335026625  0.7981851634962721  0.9028595084777419  1.0000
  Fe  Fe19      1.0  0.34328158893034183  0.7668528272277466  0.829944214118701  1.0000
  S   S37       1.0  0.3041464566388817  0.7199335238675232  0.761162159781765  1.0000
  Fe  Fe20      1.0  0.3475641120989007  0.793824941293381  0.9536673157480374  1.0000
  S   S38       1.0  0.32233185205186765  0.7854489921238726  0.042858025812305245  1.0000
  S   S39       1.0  0.40699278110647036  0.8221960244664231  0.8096634710570332  1.0000
  S   S40       1.0  0.4117803943619344  0.8511507622652673  0.9434575212784324  1.0000
  Fe  Fe21      1.0  0.51760519173579  0.7530279169442493  0.2415574661896239  1.0000
  S   S41       1.0  0.5475352461289361  0.8227268899490514  0.26734818221191475  1.0000
  S   S42       1.0  0.4483066206611784  0.7124881573364431  0.25304862951014495  1.0000
  Fe  Fe22      1.0  0.1319117349571602  0.791489473002779  0.1418184651055842  1.0000
  S   S43       1.0  0.15051230085502704  0.8608228667347697  0.15690304072712494  1.0000
  S   S44       1.0  0.14470279981926032  0.765962095431067  0.061222389358528986  1.0000
  Fe  Fe23      1.0  0.1671524431496635  0.8495942811901277  0.24456573639167423  1.0000
  S   S45       1.0  0.22922232079272553  0.8936940581125211  0.2847838518162088  1.0000
  Fe  Fe24      1.0  0.5804071719053197  0.8361801911895835  0.18298734227659874  1.0000
  S   S46       1.0  0.5861650293244353  0.8876766113193472  0.12316172649743934  1.0000
  S   S47       1.0  0.15333335362322437  0.7821656388773264  0.22663278039013673  1.0000
  S   S48       1.0  0.546063124421177  0.7670204335493163  0.15483354038367272  1.0000
  C   C37       1.0  0.2730416612567301  0.780152125330776  0.047334928318270686  1.0000
  C   C38       1.0  0.24535069095034934  0.7638410559558417  0.0014948027192502875  1.0000
  C   C39       1.0  0.2059476611413648  0.7596155108856256  0.006090103802196323  1.0000
  C   C40       1.0  0.19453362067906485  0.7726079668944842  0.055973515462646395  1.0000
  C   C41       1.0  0.22267036472703947  0.7898907743589492  0.10124576847768862  1.0000
  C   C42       1.0  0.26161365837636286  0.7930396626990834  0.09724708506376567  1.0000
  H   H25       1.0  0.2538703592068597  0.7535218350688816  0.9629851382583267  1.0000
  H   H26       1.0  0.18426343975420156  0.746238284719115  0.9709261886582595  1.0000
  H   H27       1.0  0.21451454137986062  0.8007959457606747  0.13944260225978367  1.0000
  H   H28       1.0  0.2831141435703153  0.8060446351741319  0.13264413137533437  1.0000
  C   C43       1.0  0.5131299420019457  0.8262645689481483  0.9602216065590203  1.0000
  C   C44       1.0  0.5350021188840376  0.809032238070463  0.9866671746021032  1.0000
  C   C45       1.0  0.5583204450761012  0.8285036286507468  0.035895271025848885  1.0000
  C   C46       1.0  0.5604368619171928  0.8656764303536607  0.05841127247327991  1.0000
  C   C47       1.0  0.5404143663250971  0.8843112002135318  0.030207895821491304  1.0000
  C   C48       1.0  0.5166033474267615  0.8645099757273141  0.9812150196483834  1.0000
  H   H29       1.0  0.53290950663229  0.7798343029309909  0.9699743680989847  1.0000
  H   H30       1.0  0.5750443255349864  0.8149338272718571  0.0559108839715483  1.0000
  H   H31       1.0  0.5424243766632306  0.9134338251345143  0.04704287648332861  1.0000
  H   H32       1.0  0.5007172580566199  0.8786481637491149  0.9599973447564824  1.0000
  C   C49       1.0  0.23052166015950745  0.9315467737326426  0.33357550421950793  1.0000
  C   C50       1.0  0.26702164147319807  0.9576193770939273  0.3644749099443464  1.0000
  C   C51       1.0  0.2686555714343129  0.9875987904298995  0.40441813373200886  1.0000
  C   C52       1.0  0.233736982198978  0.9915228738874773  0.41374252144652957  1.0000
  C   C53       1.0  0.19739373166684585  0.9659468094997228  0.38221616821861853  1.0000
  C   C54       1.0  0.19574119108762245  0.9359068079828184  0.34222531100504444  1.0000
  H   H33       1.0  0.29414343580023117  0.9546992785653634  0.35738896007376775  1.0000
  H   H34       1.0  0.2971543712812348  0.008041537047856373  0.42729375158223026  1.0000
  H   H35       1.0  0.17048062204710074  0.9693041383406218  0.38876868287807975  1.0000
  H   H36       1.0  0.1677759845368503  0.9165296779679124  0.3177031767619278  1.0000
  C   C55       1.0  0.4045252169296088  0.5845406666028731  0.34457278129791546  1.0000
  C   C56       1.0  0.378317414556871  0.6015771641044958  0.34009323987714407  1.0000
  C   C57       1.0  0.39167117822639913  0.6404435229392432  0.310785033417897  1.0000
  C   C58       1.0  0.43135109453426956  0.6625044778835065  0.2861496856357715  1.0000
  C   C59       1.0  0.45722386416198485  0.6449699951595097  0.289404414160654  1.0000
  C   C60       1.0  0.4436777142265371  0.605811343016189  0.318274525649042  1.0000
  H   H37       1.0  0.34748778810469483  0.5845522996893725  0.35852897151706037  1.0000
  H   H38       1.0  0.3713844971699842  0.6536746743669452  0.3078434501190174  1.0000
  H   H39       1.0  0.4874727995624666  0.6612756221681774  0.26920046222012406  1.0000
  H   H40       1.0  0.46379197796606536  0.5923614402211561  0.3209494546202502  1.0000
  C   C61       1.0  0.3703665314067637  0.6654832307702001  0.6556633882870128  1.0000
  C   C62       1.0  0.3281722968385793  0.650637975638131  0.6466909141753101  1.0000
  C   C63       1.0  0.3079755806451237  0.6673885388487383  0.6794248850752413  1.0000
  C   C64       1.0  0.3297504408980467  0.6986296386233147  0.7215968883847483  1.0000
  C   C65       1.0  0.3718526479305587  0.7131597898954539  0.7308432010159688  1.0000
  C   C66       1.0  0.3921890272480427  0.696875308022836  0.6976060850001232  1.0000
  H   H41       1.0  0.31113845474163354  0.6265110239065004  0.614245535257626  1.0000
  H   H42       1.0  0.275393933535468  0.6560670123021816  0.6720775316202753  1.0000
  H   H43       1.0  0.38884851403372955  0.7369508385119857  0.7635952518605885  1.0000
  H   H44       1.0  0.4247965118313618  0.7083157725269922  0.7049194679122684  1.0000
  C   C67       1.0  0.37152515277976766  0.9370333742203409  0.7935541677501969  1.0000
  C   C68       1.0  0.32991185704712533  0.9044526601451753  0.786830250049137  1.0000
  C   C69       1.0  0.303169432717204  0.9119326396398569  0.7532016750703963  1.0000
  C   C70       1.0  0.3181087920122387  0.9517316251263858  0.7255029633339578  1.0000
  C   C71       1.0  0.35979715715285954  0.9840962581783128  0.7317906930101884  1.0000
  C   C72       1.0  0.38634346097239114  0.9768659142745757  0.7661723355697364  1.0000
  H   H45       1.0  0.3181827985915615  0.8737683676644976  0.8080404101133218  1.0000
  H   H46       1.0  0.2708235119152674  0.8869299689652285  0.7486776527022536  1.0000
  H   H47       1.0  0.3715475913417714  0.014875734512334926  0.7106070532417085  1.0000
  H   H48       1.0  0.4185154510940219  0.0022276288796581056  0.7713594576786001  1.0000
  Fe  Fe25      1.0  0.8761729180772229  0.6229958487519002  0.6612389415802619  1.0000
  S   S49       1.0  0.8182554929472252  0.6032475073383783  0.6110476835225297  1.0000
  S   S50       1.0  0.8665130327884673  0.5940439380958352  0.74890631773809  1.0000
  Fe  Fe26      1.0  0.8584043270406253  0.08138284035662283  0.5183986908975575  1.0000
  S   S51       1.0  0.8245357157118621  0.11543557482843292  0.4950349550806065  1.0000
  S   S52       1.0  0.9057080587321631  0.08562649770931392  0.4550855759893022  1.0000
  Fe  Fe27      1.0  0.8260857237562802  0.1290939211665215  0.5885427264201623  1.0000
  S   S53       1.0  0.8383925370501569  0.19564519997590135  0.6108933259814361  1.0000
  Fe  Fe28      1.0  0.8554842523289405  0.6033688990149939  0.5358275164530515  1.0000
  S   S54       1.0  0.8344677776139129  0.5519387025968676  0.4678331985556328  1.0000
  S   S55       1.0  0.865326816925582  0.10021699309848184  0.6111890026817817  1.0000
  S   S56       1.0  0.9115731697681765  0.6173857360600197  0.5874852525237122  1.0000
  Fe  Fe29      1.0  0.8579949049946843  0.387974894644539  0.8470105854790714  1.0000
  S   S57       1.0  0.7933013865303777  0.33009278507931744  0.8484210867203366  1.0000
  S   S58       1.0  0.8856589775927427  0.42968383309908736  0.7691655355572851  1.0000
  Fe  Fe30      1.0  0.8779071692651433  0.37103395766140557  0.9666562991098266  1.0000
  S   S59       1.0  0.8151032223947476  0.31175261780435465  0.9783419517581787  1.0000
  S   S60       1.0  0.9282016843832698  0.3996693235094994  0.03347368326837952  1.0000
  Fe  Fe31      1.0  0.8233215816341299  0.2960105666383256  0.8881240581191272  1.0000
  S   S61       1.0  0.8086916490837347  0.2283410364384981  0.8673312985886851  1.0000
  Fe  Fe32      1.0  0.7908005926849815  0.35116561415260444  0.9381218772273386  1.0000
  S   S62       1.0  0.7375963256667587  0.3585027311485537  0.9697470249608752  1.0000
  S   S63       1.0  0.8884327697645584  0.3522173208386255  0.8798656678877119  1.0000
  S   S64       1.0  0.853272040693515  0.41203078905581486  0.933267861533934  1.0000
  Fe  Fe33      1.0  0.06487578489819046  0.293803501910995  0.3153966245999035  1.0000
  S   S65       1.0  0.05220729058676943  0.34164041206903606  0.2723118458941052  1.0000
  S   S66       1.0  0.04715421270119324  0.2794106185095372  0.40815334250172136  1.0000
  Fe  Fe34      1.0  0.6413277703983515  0.3357890540547761  0.2627582551216684  1.0000
  S   S67       1.0  0.6591225653590848  0.4046886060082015  0.2796357361763963  1.0000
  S   S68       1.0  0.6881393598151806  0.3190067465402438  0.22991996740096157  1.0000
  Fe  Fe35      1.0  0.6244429102739915  0.37875385648727267  0.36176549383038004  1.0000
  S   S69       1.0  0.6422278999671808  0.41737160789318983  0.44326543370048876  1.0000
  Fe  Fe36      1.0  0.03093603991221583  0.29524812374959275  0.19851777757485978  1.0000
  S   S70       1.0  0.9682605404103848  0.2685741575889703  0.15611621502034048  1.0000
  S   S71       1.0  0.6115329936853697  0.31102191458218453  0.3487779431430048  1.0000
  S   S72       1.0  0.03917545408307399  0.2453405211681034  0.2443863991384938  1.0000
  C   C73       1.0  0.7209511534367442  0.3439719181779902  0.04067047230155629  1.0000
  C   C74       1.0  0.6959758995155944  0.35823469183855766  0.06609371529841872  1.0000
  C   C75       1.0  0.6849861472737548  0.34996584959306004  0.123982216782334  1.0000
  C   C76       1.0  0.6988544109358766  0.32723810974589795  0.15655763088498525  1.0000
  C   C77       1.0  0.7230172390282065  0.31214559209426074  0.1308356221654141  1.0000
  C   C78       1.0  0.7340012203365983  0.3204301914557885  0.07299974493057837  1.0000
  H   H49       1.0  0.6857041792020029  0.37636984402062423  0.04120582301758069  1.0000
  H   H50       1.0  0.6662905555987225  0.3616778531265063  0.1435412541348573  1.0000
  H   H51       1.0  0.7332543940447068  0.29400462665498184  0.15576904486473553  1.0000
  H   H52       1.0  0.7524903546595263  0.3085628731334716  0.05352386907924833  1.0000
  C   C79       1.0  0.9388269740475278  0.36323771250801085  0.06860735394693251  1.0000
  C   C80       1.0  0.9088417724325399  0.31920261807174405  0.0716978504302866  1.0000
  C   C81       1.0  0.9179346372651302  0.29063761418270945  0.10004430884427497  1.0000
  C   C82       1.0  0.9572609936356027  0.3057938246946315  0.12426788292089537  1.0000
  C   C83       1.0  0.9871328405899517  0.34986539206474904  0.1216895138613463  1.0000
  C   C84       1.0  0.9777618115577298  0.3785975818838481  0.09426748379097849  1.0000
  H   H53       1.0  0.8785306395830568  0.3072267576480828  0.05282446776488502  1.0000
  H   H54       1.0  0.8945216240036586  0.2566610237703398  0.10298238663869862  1.0000
  H   H55       1.0  0.01751571296751009  0.3617925983878699  0.14049483071045432  1.0000
  H   H56       1.0  0.0010020073088850001  0.41269356373513305  0.09214359071764844  1.0000
  C   C85       1.0  0.6955645772603327  0.4552279006139063  0.4490914699510515  1.0000
  C   C86       1.0  0.7094144938999928  0.48793203813897645  0.49041465178345156  1.0000
  C   C87       1.0  0.751913197732447  0.5188979166264782  0.4950730153917255  1.0000
  C   C88       1.0  0.7807485220590255  0.5167066597327765  0.4591337789325506  1.0000
  C   C89       1.0  0.7668175397150241  0.48409716977699446  0.41763831261413514  1.0000
  C   C90       1.0  0.7242778146043453  0.4534524111913297  0.41250801920116326  1.0000
  H   H57       1.0  0.6872399169486113  0.4894375119004463  0.5187348016958255  1.0000
  H   H58       1.0  0.7622913229491753  0.5441545251792509  0.5267720070271319  1.0000
  H   H59       1.0  0.789052804874588  0.482122865589579  0.38996569510409873  1.0000
  H   H60       1.0  0.713867759677025  0.42796020453605443  0.3810115249368682  1.0000
  C   C91       1.0  0.9467308724591528  0.13909008466528522  0.4446978340927867  1.0000
  C   C92       1.0  0.9738878195968522  0.14868112474631168  0.39844450098062495  1.0000
  C   C93       1.0  0.00524842505493317  0.19161834943553155  0.3875303685931839  1.0000
  C   C94       1.0  0.009792831638677724  0.22510081934732612  0.4231052949318825  1.0000
  C   C95       1.0  0.9833450469428905  0.21537476037574668  0.4702729202061143  1.0000
  C   C96       1.0  0.9516519360736226  0.17248727935095753  0.4808409140133333  1.0000
  H   H61       1.0  0.9705347522352711  0.12291758800948038  0.37075867864929346  1.0000
  H   H62       1.0  0.026183900935192295  0.19867223682762084  0.35193025801230504  1.0000
  H   H63       1.0  0.9867957820776909  0.2411140630650974  0.49810841061132755  1.0000
  H   H64       1.0  0.9309332261949977  0.16534422737501045  0.5168133749635082  1.0000
  C   C97       1.0  0.8316255903411349  0.20480288489043594  0.68275923433561  1.0000
  C   C98       1.0  0.8189490944011619  0.17197026444841707  0.7233291383877922  1.0000
  C   C99       1.0  0.8116617673449446  0.17937916246652036  0.779878192294693  1.0000
  C   C100      1.0  0.8173346661997166  0.21967548693582833  0.7961037409153151  1.0000
  C   C101      1.0  0.8305450891424574  0.2526763006074175  0.755718215221153  1.0000
  C   C102      1.0  0.8375038079594881  0.24515698420975507  0.6990769423471812  1.0000
  H   H65       1.0  0.8144515382277842  0.14076775710579859  0.7110813735190834  1.0000
  H   H66       1.0  0.8015649413964472  0.1538066174705771  0.8110874660333004  1.0000
  H   H67       1.0  0.8351963683606441  0.2839330579403598  0.7680148980513605  1.0000
  H   H68       1.0  0.8474339283197001  0.27069537533150206  0.6678519469080024  1.0000
  C   C103      1.0  0.8833746925080165  0.477307283572732  0.7675361695766527  1.0000
  C   C104      1.0  0.8583821103142969  0.48385767911484573  0.8059788473055782  1.0000
  C   C105      1.0  0.8541724441753621  0.5203896068258418  0.8007127055697997  1.0000
  C   C106      1.0  0.8743812024546785  0.5500806145966132  0.7565144818280072  1.0000
  C   C107      1.0  0.8998428361774652  0.5438872255390802  0.718584290069806  1.0000
  C   C108      1.0  0.9044924514883749  0.5076557034460978  0.724296627781115  1.0000
  H   H69       1.0  0.8415013848708963  0.46028704780313107  0.838914418484299  1.0000
  H   H70       1.0  0.8343938497650787  0.525034753506984  0.8301416647325403  1.0000
  H   H71       1.0  0.9161745266760181  0.5671011813088445  0.6850876446366225  1.0000
  H   H72       1.0  0.924066914208396  0.502792130900697  0.6947231185663755  1.0000
  Fe  Fe37      1.0  0.8035538156405557  0.03842985110004049  0.6212375912415585  1.0000
  S   S73       1.0  0.7648971556231439  0.06900538923179256  0.6056844771003722  1.0000
  S   S74       1.0  0.7798851432943295  0.9890235383477445  0.6914437405078755  1.0000
  Fe  Fe38      1.0  0.9320735156045926  0.6870877880788898  0.5711975495138107  1.0000
  S   S75       1.0  0.8787941501003647  0.6727088684485003  0.5136313240513551  1.0000
  S   S76       1.0  0.9967806697964379  0.7386422168551567  0.5455555583519623  1.0000
  Fe  Fe39      1.0  0.8467266411071945  0.6740973386075828  0.5940207010736025  1.0000
  S   S77       1.0  0.8066227264685049  0.7040292938352611  0.5968879823644351  1.0000
  Fe  Fe40      1.0  0.7666782290919251  0.05260862111829545  0.5141215670595966  1.0000
  S   S78       1.0  0.7138933643968962  0.031130985750817075  0.45214137383296504  1.0000
  S   S79       1.0  0.9019172904274424  0.6943226901489113  0.6502608899875885  1.0000
  S   S80       1.0  0.8002120615755587  0.017000602613925553  0.5305199293843629  1.0000
  Fe  Fe41      1.0  0.8748458197389647  0.8909525826156522  0.8830353634060845  1.0000
  S   S81       1.0  0.8083132870432745  0.8538902197039515  0.9119902527772313  1.0000
  S   S82       1.0  0.9032316172133898  0.9499408087993823  0.8260479800187437  1.0000
  Fe  Fe42      1.0  0.8956277485596796  0.8282460207272558  0.9410920896251204  1.0000
  S   S83       1.0  0.8307450665262871  0.785981203033895  0.9745896372137711  1.0000
  S   S84       1.0  0.9438617136903482  0.8086871700585002  0.9497515549636654  1.0000
  Fe  Fe43      1.0  0.8109736953233915  0.794819212141555  0.8880065431362917  1.0000
  S   S85       1.0  0.7576481815872325  0.7421485218585462  0.8386584689664837  1.0000
  Fe  Fe44      1.0  0.8343873425029157  0.8489101752216042  0.9955754479509692  1.0000
  S   S86       1.0  0.8124826279829954  0.863157530924033  0.07787321254150825  1.0000
  S   S87       1.0  0.8754184686715882  0.8320115867153615  0.852400510417129  1.0000
  S   S88       1.0  0.9012714807713971  0.8908542519333267  0.9688662489510903  1.0000
  Fe  Fe45      1.0  0.08899698415610957  0.7613359949522163  0.2566884918743229  1.0000
  S   S89       1.0  0.10441615408713734  0.8278965905600134  0.2828242764051252  1.0000
  S   S90       1.0  0.04991846458083926  0.7001386357557623  0.30628402034370555  1.0000
  Fe  Fe46      1.0  0.5988965189015908  0.7642535038001035  0.19536449706060896  1.0000
  S   S91       1.0  0.6355178860214336  0.8348577021868815  0.21784759113210572  1.0000
  S   S92       1.0  0.6262256108972983  0.7309105938203815  0.14581476819599964  1.0000
  Fe  Fe47      1.0  0.59917903264245  0.8140167198086184  0.2997392831005686  1.0000
  S   S93       1.0  0.625843280821704  0.8322067574456747  0.38819933889709346  1.0000
  Fe  Fe48      1.0  0.0861104652356135  0.8331443742848861  0.19343701666287047  1.0000
  S   S94       1.0  0.04214230725798562  0.858152114024685  0.18349131333670068  1.0000
  S   S95       1.0  0.566783385995906  0.7428838840871929  0.2801013979604776  1.0000
  S   S96       1.0  0.06581702684725665  0.7647324112674834  0.17020573666706978  1.0000
  C   C109      1.0  0.7621853940141785  0.8235410953615324  0.09913013971871165  1.0000
  C   C110      1.0  0.7375794601456157  0.7872958404795214  0.06497148593608039  1.0000
  C   C111      1.0  0.6960982145892326  0.7580704176087175  0.08043948666781901  1.0000
  C   C112      1.0  0.6792178414812359  0.7651193760986446  0.12992826950566752  1.0000
  C   C113      1.0  0.704351463084219  0.8004906397725249  0.16502270751075754  1.0000
  C   C114      1.0  0.7456914024052237  0.8297623793517506  0.14951099967478942  1.0000
  H   H73       1.0  0.7502191155209003  0.7822553799910734  0.026078975961042913  1.0000
  H   H74       1.0  0.676840447358522  0.7305100106628623  0.05341559434945542  1.0000
  H   H75       1.0  0.6920503791562964  0.805132319685191  0.2043585485367594  1.0000
  H   H76       1.0  0.7648289697777759  0.8574941951842704  0.17629684729850337  1.0000
  C   C115      1.0  0.9706852185095364  0.8223206428436157  0.015076539509907727  1.0000
  C   C116      1.0  0.9613647480471104  0.8430685711925133  0.05823035492245835  1.0000
  C   C117      1.0  0.9835095087891164  0.8540532175131869  0.10981822897704106  1.0000
  C   C118      1.0  0.014874909842445216  0.8441602406224826  0.11851437132273143  1.0000
  C   C119      1.0  0.023923737032753856  0.8230494216010569  0.07556048318288022  1.0000
  C   C120      1.0  0.0018646702366960088  0.8121714584806429  0.023936099579241477  1.0000
  H   H77       1.0  0.9373004889283214  0.8509232099964145  0.05177044557774301  1.0000
  H   H78       1.0  0.9764892310052377  0.8705164005731891  0.14281508862240658  1.0000
  H   H79       1.0  0.04835130253937181  0.8157052155247977  0.08168908180074719  1.0000
  H   H80       1.0  0.009324922273892922  0.7963093768466337  0.990615598713116  1.0000
  C   C121      1.0  0.649460784651124  0.8874059934622873  0.4057129560665903  1.0000
  C   C122      1.0  0.6725254187327574  0.9025450555750634  0.4561847582804751  1.0000
  C   C123      1.0  0.6921454993390863  0.9465769145481612  0.4708109821428913  1.0000
  C   C124      1.0  0.6883654676190383  0.975600521112307  0.4353361989160443  1.0000
  C   C125      1.0  0.6651728181149406  0.9604556206734423  0.38492696336854615  1.0000
  C   C126      1.0  0.6459650070669951  0.916455307758033  0.36988705458100407  1.0000
  H   H81       1.0  0.6751731367782693  0.8801542679650628  0.4841289299370043  1.0000
  H   H82       1.0  0.7094657333221901  0.9578540811921439  0.5101665200265955  1.0000
  H   H83       1.0  0.6622270185380272  0.9828107301567791  0.357278918496841  1.0000
  H   H84       1.0  0.6282241556712167  0.9050119340241233  0.330832037911005  1.0000
  C   C127      1.0  0.012247651589622155  0.7268407523725146  0.4804441268926793  1.0000
  C   C128      1.0  0.9878530153894309  0.6866278716198156  0.453876085313546  1.0000
  C   C129      1.0  0.00013292626928174123  0.6781688829819122  0.401034042168095  1.0000
  C   C130      1.0  0.03652693327020584  0.7100360589607365  0.3743244751580264  1.0000
  C   C131      1.0  0.06099000212992234  0.7501328931873902  0.40107166232741026  1.0000
  C   C132      1.0  0.0489235341286125  0.7584786735962199  0.4540816928499149  1.0000
  H   H85       1.0  0.9594825367290916  0.6620247542053636  0.4739636503066795  1.0000
  H   H86       1.0  0.9810613163162395  0.6470971849864022  0.3805496072080016  1.0000
  H   H87       1.0  0.08960852570265598  0.7744915761666794  0.3814189226839966  1.0000
  H   H88       1.0  0.06792700146594188  0.7895114038215617  0.47460741886251023  1.0000
  C   C133      1.0  0.792492950043435  0.7103095567165799  0.6661179570555789  1.0000
  C   C134      1.0  0.752911266223379  0.7044187708325906  0.6754073915443086  1.0000
  C   C135      1.0  0.7420121393838087  0.7127148136029133  0.7291871109595109  1.0000
  C   C136      1.0  0.7710074144769219  0.7280896934110812  0.7735515930441728  1.0000
  C   C137      1.0  0.810551321984514  0.7336986323796599  0.7645689608471697  1.0000
  C   C138      1.0  0.8211330366976702  0.7242212550284727  0.7110406996617203  1.0000
  H   H89       1.0  0.7307221479814724  0.6937170893871866  0.6408040033606656  1.0000
  H   H90       1.0  0.7114062269646051  0.7083184906457916  0.7359820540028399  1.0000
  H   H91       1.0  0.8328905891953134  0.7454832039202262  0.7988208081171924  1.0000
  H   H92       1.0  0.8519131810641251  0.7293380584942866  0.7038347885832913  1.0000
  C   C139      1.0  0.8696631861296352  0.9644637197559567  0.7935266798659631  1.0000
  C   C140      1.0  0.8271053273957929  0.9420963311683658  0.805838245401361  1.0000
  C   C141      1.0  0.8000456579656658  0.9505159269742096  0.7747483117221136  1.0000
  C   C142      1.0  0.8153847145680116  0.9816206063516982  0.7314309542412304  1.0000
  C   C143      1.0  0.8581083923681353  0.004996122438247319  0.7199743596165148  1.0000
  C   C144      1.0  0.885246170767803  0.9965592262346707  0.7512640656529327  1.0000
  H   H93       1.0  0.814847217674974  0.917882879441539  0.8387333196614887  1.0000
  H   H94       1.0  0.7670204568855894  0.9326005780561406  0.7839088332897615  1.0000
  H   H95       1.0  0.8701510573040887  0.029166721087451997  0.6866883490287395  1.0000
  H   H96       1.0  0.9182077245567036  0.014083021443226373  0.741638721409449  1.0000
  N   N1        1.0  0.31250885036835535  0.9117030386794737  0.9890141463869654  1.0000
  C   C145      1.0  0.33538383324059473  0.9536778424185572  0.01915332535007197  1.0000
  C   C146      1.0  0.33506565458992016  0.8880502332396347  0.9955142417566314  1.0000
  C   C147      1.0  0.3094678277866757  0.9193155355426538  0.9277976048644728  1.0000
  C   C148      1.0  0.2702347247039982  0.8857554016799523  0.013486255849065154  1.0000
  H   H97       1.0  0.3381780346039996  0.949057120722373  0.06552460333678689  1.0000
  H   H98       1.0  0.319287352188408  0.972468633386097  0.014969946863031769  1.0000
  H   H99       1.0  0.36746605047489367  0.9739604472637217  0.0017220817921757003  1.0000
  H   H100      1.0  0.3182473944165482  0.8559401814840005  0.9741449216173019  1.0000
  H   H101      1.0  0.3668246556691195  0.9062417886790716  0.9764086794813923  1.0000
  H   H102      1.0  0.3383807501622425  0.881938338882998  0.04116745392950594  1.0000
  H   H103      1.0  0.29262682118816535  0.9370936891778421  0.9209460016835829  1.0000
  H   H104      1.0  0.29256433846904945  0.8882699791179034  0.9037627080704692  1.0000
  H   H105      1.0  0.3408843543454382  0.9388053294982244  0.9080036663322397  1.0000
  H   H106      1.0  0.2520827433857237  0.8538497937837721  0.9916697256618353  1.0000
  H   H107      1.0  0.25222270184108814  0.9025586697298611  0.009485302831487408  1.0000
  H   H108      1.0  0.27134468329393746  0.8791691523957549  0.0596148917823871  1.0000
  N   N2        1.0  0.42697458393360027  0.7721841909313751  0.1151882260860414  1.0000
  C   C149      1.0  0.4409457160620114  0.7428989211227903  0.0936718040258755  1.0000
  C   C150      1.0  0.45956207265991145  0.8056061497819395  0.15221602423800812  1.0000
  C   C151      1.0  0.3880560402401058  0.7470595609046249  0.14816972986156887  1.0000
  C   C152      1.0  0.4192915980818909  0.7931810771694147  0.06655794283728926  1.0000
  H   H109      1.0  0.41740504992617095  0.7176518527929978  0.06488251938519986  1.0000
  H   H110      1.0  0.44664783854177553  0.7261379262166371  0.1292806519021149  1.0000
  H   H111      1.0  0.4704890480880179  0.7610133132218632  0.06909033989860042  1.0000
  H   H112      1.0  0.45028116337368324  0.8285094983252362  0.1689559446039822  1.0000
  H   H113      1.0  0.46603181849936853  0.7907996179492657  0.1894279851416752  1.0000
  H   H114      1.0  0.48941344189632624  0.8250444580117045  0.12873351747411163  1.0000
  H   H115      1.0  0.3765760798177954  0.7682462829455031  0.1646177261650279  1.0000
  H   H116      1.0  0.3926693050955293  0.7307547607681292  0.1853688490324802  1.0000
  H   H117      1.0  0.3628294118455281  0.7216207219683768  0.12137046198097051  1.0000
  H   H118      1.0  0.3944836587698082  0.7689490282143407  0.03810400598228414  1.0000
  H   H119      1.0  0.4476810824206785  0.8118012533009773  0.04018978796257055  1.0000
  H   H120      1.0  0.40922520744488483  0.8160044805061837  0.08107285880308884  1.0000
  N   N3        1.0  0.6398076881963837  0.5160036363780396  0.34033869607621764  1.0000
  C   C153      1.0  0.6577249501789324  0.5390835201907316  0.3945786380378337  1.0000
  C   C154      1.0  0.6348058249503185  0.5446781311300881  0.3002049968360785  1.0000
  C   C155      1.0  0.5987387522077795  0.47715343536982263  0.35148478951142836  1.0000
  C   C156      1.0  0.6679371789524563  0.5028237977065279  0.31496479796609567  1.0000
  H   H121      1.0  0.6890710029679982  0.5682246143495864  0.38802182490009723  1.0000
  H   H122      1.0  0.6614136638470975  0.5178280430143483  0.4256345998797775  1.0000
  H   H123      1.0  0.6375091206969178  0.5498084970410164  0.41491591451035703  1.0000
  H   H124      1.0  0.6136384322996317  0.5552147968510257  0.3177648269408833  1.0000
  H   H125      1.0  0.6652094639422431  0.5742752210446661  0.29055773238598637  1.0000
  H   H126      1.0  0.6213163508671361  0.5278075115274964  0.25891418194929267  1.0000
  H   H127      1.0  0.6013704144609159  0.45465329822316447  0.3813875510687185  1.0000
  H   H128      1.0  0.584417528507509  0.45880099903741667  0.31147694605328313  1.0000
  H   H129      1.0  0.5766284753572558  0.4857784023586325  0.37064939802279645  1.0000
  H   H130      1.0  0.6553647278162915  0.485305051190694  0.2738857319740512  1.0000
  H   H131      1.0  0.6721965845947783  0.4809658746582186  0.34405407927782694  1.0000
  H   H132      1.0  0.699347872005925  0.5312079401679268  0.3062374762424902  1.0000
  N   N4        1.0  0.501253931173811  0.7219608358009855  0.4473944090740457  1.0000
  C   C157      1.0  0.5272239165548978  0.704753681099034  0.425705416484409  1.0000
  C   C158      1.0  0.5197856682259003  0.7467853232506385  0.5003523747460448  1.0000
  C   C159      1.0  0.45868447454842454  0.6856467290615567  0.4592459617145456  1.0000
  C   C160      1.0  0.4995514146360925  0.7508280585629056  0.404101817758178  1.0000
  H   H133      1.0  0.5140784371249594  0.6857913041481615  0.38575974253336287  1.0000
  H   H134      1.0  0.5294142992624852  0.6829526953064019  0.45727645074866197  1.0000
  H   H135      1.0  0.5595068418175282  0.7314286788039261  0.41595442964736584  1.0000
  H   H136      1.0  0.5010150376068954  0.7603307575131858  0.5178326594625626  1.0000
  H   H137      1.0  0.5215685921378022  0.7260333929003973  0.5340537605816189  1.0000
  H   H138      1.0  0.551973432255736  0.7744393549071479  0.49266600215911893  1.0000
  H   H139      1.0  0.4587501353429375  0.6631370934888644  0.4917577191893089  1.0000
  H   H140      1.0  0.44381481383011895  0.6662995971679488  0.4200766979962431  1.0000
  H   H141      1.0  0.4381645722880095  0.6973588587502945  0.4758267093515892  1.0000
  H   H142      1.0  0.47985187527117024  0.7641176422657366  0.4184826027072855  1.0000
  H   H143      1.0  0.4863150459759836  0.7333402936207599  0.3633326177253405  1.0000
  H   H144      1.0  0.531181975422132  0.7787548038095644  0.3945129903119108  1.0000
  N   N5        1.0  0.9023737487104094  0.7028791403650656  0.8459568641331681  1.0000
  C   C161      1.0  0.8594452350100876  0.6739845957506124  0.8253193857108081  1.0000
  C   C162      1.0  0.9175891181637883  0.7474165251169677  0.8256450540375845  1.0000
  C   C163      1.0  0.9298777874082476  0.6876628565441917  0.8239713123742016  1.0000
  C   C164      1.0  0.9026489316412497  0.7024949953664581  0.9089669288188512  1.0000
  H   H145      1.0  0.8579812330558161  0.6735235912468389  0.7778818406637985  1.0000
  H   H146      1.0  0.8377560521110342  0.6842611517281458  0.8416004743370282  1.0000
  H   H147      1.0  0.8472342191774832  0.639948229507917  0.8391379063276866  1.0000
  H   H148      1.0  0.9500784383492454  0.770014067766514  0.8400659032358273  1.0000
  H   H149      1.0  0.91708441755727  0.7488121041275853  0.7782958972317142  1.0000
  H   H150      1.0  0.8982853728818029  0.7603827376633194  0.8428625077734058  1.0000
  H   H151      1.0  0.9625553419259478  0.7089034303728562  0.8384578123377652  1.0000
  H   H152      1.0  0.9300353518025598  0.6870316890509562  0.7765025649320604  1.0000
  H   H153      1.0  0.919373433164125  0.6541243092790567  0.8385282787548375  1.0000
  H   H154      1.0  0.9346154025300746  0.7239599440122617  0.9260249251866576  1.0000
  H   H155      1.0  0.8910555413835957  0.6693448260650935  0.9257890035665007  1.0000
  H   H156      1.0  0.8827501487853052  0.7145309671282344  0.9270664112685101  1.0000
  N   N6        1.0  0.8462648212281614  0.428332742063341  0.12137311044584496  1.0000
  C   C165      1.0  0.8398521186352638  0.38442482285143326  0.1142527453912764  1.0000
  C   C166      1.0  0.8858167176935154  0.4601172907419584  0.09369521261666143  1.0000
  C   C167      1.0  0.847914415443336  0.43838572336153053  0.18280839668022733  1.0000
  C   C168      1.0  0.8114198180151262  0.4302547313651028  0.09471622787510375  1.0000
  H   H157      1.0  0.8109756611901738  0.35964398425281546  0.13600775069147775  1.0000
  H   H158      1.0  0.866370057300711  0.3821935056354814  0.1318085202658468  1.0000
  H   H159      1.0  0.8371535937315338  0.37536534444338887  0.06845145091907649  1.0000
  H   H160      1.0  0.8919542970646395  0.4937160646066723  0.09825419393918049  1.0000
  H   H161      1.0  0.9127219313924828  0.4589831378078129  0.11204546548101879  1.0000
  H   H162      1.0  0.8854105875888046  0.4532586254180326  0.04728188674501887  1.0000
  H   H163      1.0  0.8526312531158492  0.4712703448189661  0.18984637990679784  1.0000
  H   H164      1.0  0.8737635126479509  0.437041027559531  0.20430359783256277  1.0000
  H   H165      1.0  0.8183599128501852  0.4148213433286714  0.20472553100848737  1.0000
  H   H166      1.0  0.8159283262515088  0.4633130454897434  0.09716874582618244  1.0000
  H   H167      1.0  0.781322298816605  0.4079053539656754  0.11612965446827186  1.0000
  H   H168      1.0  0.8078776435042504  0.42082751429355914  0.04881957682710691  1.0000
  N   N7        1.0  0.16352534926009366  0.366695245531332  0.4981669557337703  1.0000
  C   C169      1.0  0.193615814520237  0.38785833921591617  0.5451924638557799  1.0000
  C   C170      1.0  0.12956792689460833  0.376256256895653  0.503929134310641  1.0000
  C   C171      1.0  0.146001174739511  0.31935845752545455  0.5004152770974819  1.0000
  C   C172      1.0  0.1848905754631606  0.3834004357749498  0.442951953274597  1.0000
  H   H169      1.0  0.22028454664047392  0.38225683128053767  0.5417160640106791  1.0000
  H   H170      1.0  0.17880018167996362  0.37552320969335456  0.5875102238031226  1.0000
  H   H171      1.0  0.20677080329319383  0.4235781646789679  0.5452835954621111  1.0000
  H   H172      1.0  0.1069727659824801  0.36199401603017617  0.4680646120537785  1.0000
  H   H173      1.0  0.1118348346212607  0.36292319391317174  0.5442234054552939  1.0000
  H   H174      1.0  0.1419438821684257  0.4117998126351321  0.5041757731316377  1.0000
  H   H175      1.0  0.12866241057372502  0.30536498730996153  0.5408378756905832  1.0000
  H   H176      1.0  0.17083650428781147  0.310995776737345  0.49724110593738435  1.0000
  H   H177      1.0  0.12379413488638696  0.3026126192653228  0.46475683449265914  1.0000
  H   H178      1.0  0.20992099002984174  0.37568336381615325  0.4363512610672223  1.0000
  H   H179      1.0  0.19956487269239676  0.41916272569160545  0.44065041005300926  1.0000
  H   H180      1.0  0.1627125381088968  0.36939877619594597  0.40661193340698415  1.0000
  N   N8        1.0  0.6871991339719815  0.8690582523117518  0.0042848909813570915  1.0000
  C   C173      1.0  0.7147292287275961  0.9166082971543871  0.006917594925869074  1.0000
  C   C174      1.0  0.6519781858869685  0.8580598174569866  0.9655988377801947  1.0000
  C   C175      1.0  0.6711106582312947  0.852340476956253  0.06200605659885023  1.0000
  C   C176      1.0  0.7110801089771761  0.8493814726492785  0.9826970714502576  1.0000
  H   H181      1.0  0.6977783568155832  0.9324928259083479  0.02353890171029915  1.0000
  H   H182      1.0  0.7272796350755212  0.9303684767527969  0.9640221115587618  1.0000
  H   H183      1.0  0.7418226413566453  0.9259329021887285  0.035477218401515964  1.0000
  H   H184      1.0  0.629750467888793  0.8224767047239167  0.9642074860482014  1.0000
  H   H185      1.0  0.6342524907018839  0.8737699246301548  0.9795591670651941  1.0000
  H   H186      1.0  0.6628333805690781  0.8690133760474948  0.9212439508171911  1.0000
  H   H187      1.0  0.6506081975328953  0.8164149810250421  0.06202255346680221  1.0000
  H   H188      1.0  0.6526448304037004  0.866282805129818  0.07949415393930946  1.0000
  H   H189      1.0  0.6969241788680811  0.8604313894134658  0.09233466801464517  1.0000
  H   H190      1.0  0.7225650485863891  0.8600936396325579  0.938492442992951  1.0000
  H   H191      1.0  0.691874855144085  0.8133641097655684  0.9824687994339899  1.0000
  H   H192      1.0  0.7389106492552736  0.858617943115302  0.009609118749385415  1.0000
  N   N9        1.0  0.9112581259240775  0.2139116644438445  0.30967198152599124  1.0000
  C   C177      1.0  0.9245930799286213  0.1864915764801648  0.2802226112658443  1.0000
  C   C178      1.0  0.8920672788855053  0.1941476456422768  0.3650384455193497  1.0000
  C   C179      1.0  0.8807317835303538  0.21766587955677438  0.27391558296429835  1.0000
  C   C180      1.0  0.9478219615015497  0.25745037496668544  0.31943714535711776  1.0000
  H   H193      1.0  0.9391640124442631  0.20038948743893503  0.2382020318109672  1.0000
  H   H194      1.0  0.8979480050930527  0.15325963402500514  0.27252483460615123  1.0000
  H   H195      1.0  0.9480796558963178  0.18350102866411755  0.3056399666116859  1.0000
  H   H196      1.0  0.914473446540378  0.19102624089056985  0.39276365036139027  1.0000
  H   H197      1.0  0.8818851778999057  0.21406729621053663  0.38879883413319516  1.0000
  H   H198      1.0  0.8644882768274791  0.16111541088135828  0.35959363979311454  1.0000
  H   H199      1.0  0.8527132529413181  0.18543224092295899  0.2655481044795698  1.0000
  H   H200      1.0  0.8944520988651339  0.23249237949111087  0.2317943109947231  1.0000
  H   H201      1.0  0.8702415854716739  0.23841473510078784  0.29467721650538686  1.0000
  H   H202      1.0  0.9720067348654338  0.25583328308336983  0.3450270246460462  1.0000
  H   H203      1.0  0.9392909011688411  0.2788825263539739  0.34271654543506  1.0000
  H   H204      1.0  0.9625552811215735  0.27356898981570743  0.27847133457608314  1.0000
  N   N10       1.0  0.9728109519637185  0.7800541440958264  0.3171242944500435  1.0000
  C   C181      1.0  0.9472880058499891  0.794407345631991  0.286851316010487  1.0000
  C   C182      1.0  0.9848291448101892  0.7564753997357674  0.2769499312975775  1.0000
  C   C183      1.0  0.9486396947234257  0.7511363782612472  0.3647539064624613  1.0000
  C   C184      1.0  0.010660338609307596  0.8182362921998346  0.3398481276662885  1.0000
  H   H205      1.0  0.9376608134841944  0.812411342400622  0.31571574146597237  1.0000
  H   H206      1.0  0.9186550918359773  0.7664853120825896  0.26863342884214253  1.0000
  H   H207      1.0  0.9649151844174381  0.8163999644010049  0.2507285208979089  1.0000
  H   H208      1.0  0.0023599934358695673  0.7770226543367599  0.23988742345980005  1.0000
  H   H209      1.0  0.005100691655225864  0.7462534129948248  0.29778683007909446  1.0000
  H   H210      1.0  0.9571724877699986  0.7268854982219163  0.2599091600405989  1.0000
  H   H211      1.0  0.9672037711570038  0.7398208558248124  0.3881859716703769  1.0000
  H   H212      1.0  0.9199023440277133  0.7218056548847042  0.34938075028964566  1.0000
  H   H213      1.0  0.9392317160864262  0.7678312168753799  0.3962787280954051  1.0000
  H   H214      1.0  0.0028113434118444136  0.8368360427646003  0.37031104492749795  1.0000
  H   H215      1.0  0.029695338123397752  0.8407809601473348  0.3050138170738899  1.0000
  H   H216      1.0  0.030743404515539696  0.8085789133231341  0.3627231118083855  1.0000
  N   N11       1.0  0.44733391442241166  0.2471658721036263  0.5505724373843052  1.0000
  C   C185      1.0  0.447300523772328  0.21071050748223813  0.5796998511799667  1.0000
  C   C186      1.0  0.48433397479197476  0.26937144185664297  0.5132199193428043  1.0000
  C   C187      1.0  0.44834364788622366  0.2778555747475149  0.5936262385401809  1.0000
  C   C188      1.0  0.4092905557090096  0.23056963357585958  0.5156634375203897  1.0000
  H   H217      1.0  0.42006518746232646  0.1932937887219217  0.6086288034696029  1.0000
  H   H218      1.0  0.4758239862228403  0.22172827150492405  0.6056767418399297  1.0000
  H   H219      1.0  0.44563519969755316  0.18651934405303422  0.5486423207205253  1.0000
  H   H220      1.0  0.5137150282252826  0.2820081108065979  0.5378360528839902  1.0000
  H   H221      1.0  0.4841470000784159  0.24688329741747994  0.48027915802616117  1.0000
  H   H222      1.0  0.4854630638795275  0.29703358791243  0.4903096322399025  1.0000
  H   H223      1.0  0.44818067549851465  0.30570056891883457  0.5732708908866526  1.0000
  H   H224      1.0  0.47650810423372314  0.2908061580150925  0.6209521228598569  1.0000
  H   H225      1.0  0.4206879957315017  0.2618092184265635  0.6223761507458966  1.0000
  H   H226      1.0  0.4084264541555184  0.2570913556379589  0.49259356268495297  1.0000
  H   H227      1.0  0.38071462566852676  0.21389952414368754  0.5425345781864945  1.0000
  H   H228      1.0  0.4072263803915899  0.20679907225873037  0.4832624639680937  1.0000
  N   N12       1.0  0.8374330899393098  0.8569377028476318  0.6871179124083973  1.0000
  C   C189      1.0  0.871687104541545  0.8481256468789019  0.6950466156268842  1.0000
  C   C190      1.0  0.8151810622811847  0.8504306396294357  0.7417535590310961  1.0000
  C   C191      1.0  0.8080833791076917  0.8270690317312412  0.6438436412188412  1.0000
  C   C192      1.0  0.8548665742654546  0.9021501614820108  0.6680463057700412  1.0000
  H   H229      1.0  0.888985919181382  0.8523082878759578  0.6546057513661603  1.0000
  H   H230      1.0  0.8597474171244415  0.8144864452565573  0.710015603131592  1.0000
  H   H231      1.0  0.8944294967686252  0.8703342496698165  0.7274589156456833  1.0000
  H   H232      1.0  0.8366867016755217  0.8713912565291689  0.7758072692992625  1.0000
  H   H233      1.0  0.7899499863513001  0.8581573118355479  0.7381296993001407  1.0000
  H   H234      1.0  0.8007562807753498  0.8164280478752972  0.7567780761976182  1.0000
  H   H235      1.0  0.7820133381179022  0.8331076970316126  0.636703999645297  1.0000
  H   H236      1.0  0.794210671801597  0.7927724703738284  0.6573601400356458  1.0000
  H   H237      1.0  0.8238281648237168  0.8303466024787478  0.6022375053517224  1.0000
  H   H238      1.0  0.8305286793902938  0.9113369070304933  0.6660290407762132  1.0000
  H   H239      1.0  0.8695367296379347  0.9075529321655467  0.6252172245060027  1.0000
  H   H240      1.0  0.8793734411857089  0.9251397489693461  0.6978475173486893  1.0000
  N   N13       1.0  0.3050575708828706  0.45067850030018736  0.25316746971683174  1.0000
  C   C193      1.0  0.3196508788251138  0.43753260355863655  0.30351613629938623  1.0000
  C   C194      1.0  0.25905048412109816  0.4252597713294663  0.25086157847729107  1.0000
  C   C195      1.0  0.32233076804153943  0.4426696574182899  0.20081931339952316  1.0000
  C   C196      1.0  0.31934753899026813  0.4973099221979612  0.257567348535347  1.0000
  H   H241      1.0  0.35427057302180326  0.4563026248330905  0.30659629306718444  1.0000
  H   H242      1.0  0.30947954006309275  0.4025232390968268  0.3018627265212664  1.0000
  H   H243      1.0  0.30759288814988167  0.44364034678767983  0.3438416782615762  1.0000
  H   H244      1.0  0.2448271184138357  0.4300118660310265  0.2899154118173916  1.0000
  H   H245      1.0  0.24684952600477475  0.43483842605113127  0.21389704977929777  1.0000
  H   H246      1.0  0.24716895106126896  0.38994477528978044  0.24650409998751188  1.0000
  H   H247      1.0  0.31196562503175146  0.45216021145066354  0.161869125582751  1.0000
  H   H248      1.0  0.31220367356345086  0.4077708670786024  0.1960340815793345  1.0000
  H   H249      1.0  0.35697095878431134  0.4612246087887322  0.20094524645641923  1.0000
  H   H250      1.0  0.3076380881202245  0.5082077259754216  0.22151831712437522  1.0000
  H   H251      1.0  0.3539715967667762  0.5174570728067331  0.25756741788403265  1.0000
  H   H252      1.0  0.3085252050437408  0.5048150811351046  0.2979786141847673  1.0000
  N   N14       1.0  0.1748713617545833  0.9124879367589647  0.5662014782207926  1.0000
  C   C197      1.0  0.1565608564663613  0.9374939311035707  0.5436023670733492  1.0000
  C   C198      1.0  0.14751601283410606  0.8661488478407223  0.5520963153813726  1.0000
  C   C199      1.0  0.17937561132150462  0.9180872209349439  0.628754216090167  1.0000
  C   C200      1.0  0.21628280485961301  0.9285086548189025  0.5402427415080996  1.0000
  H   H253      1.0  0.15451656902216507  0.9356461231458665  0.4962061769337896  1.0000
  H   H254      1.0  0.17598930745847435  0.9724939084177315  0.5547697891649338  1.0000
  H   H255      1.0  0.12477687783931452  0.9256222073682181  0.5608527735893462  1.0000
  H   H256      1.0  0.11594042046581891  0.8528403946860724  0.5711283606637109  1.0000
  H   H257      1.0  0.14353053966530702  0.8610482391136711  0.5051121095001221  1.0000
  H   H258      1.0  0.160614569289376  0.8464395054253389  0.5682001221455936  1.0000
  H   H259      1.0  0.19324510347087379  0.8997816643587373  0.6473197027828986  1.0000
  H   H260      1.0  0.14887678560243073  0.9068794553519284  0.6499941328443882  1.0000
  H   H261      1.0  0.2004888236608686  0.9527165061893247  0.640558379552475  1.0000
  H   H262      1.0  0.2323566526054238  0.9123892447019049  0.5586122823049878  1.0000
  H   H263      1.0  0.23669373694627927  0.9638466061241665  0.5476054931819431  1.0000
  H   H264      1.0  0.21415758969236914  0.9233073880942485  0.49325425671540807  1.0000
  N   N15       1.0  0.9251385358982601  0.25901512495882495  0.9251570093980622  1.0000
  C   C201      1.0  0.916816526844539  0.26122681979185935  0.8640373758104243  1.0000
  C   C202      1.0  0.8856707204194022  0.240226524420401  0.9574789488375588  1.0000
  C   C203      1.0  0.9543749048659217  0.3030251800230648  0.9469381250491145  1.0000
  C   C204      1.0  0.9435851480110131  0.23138377508265767  0.9322853484799821  1.0000
  H   H265      1.0  0.9458231170631618  0.2756748639148622  0.8381216921343955  1.0000
  H   H266      1.0  0.9020927469519819  0.28106386524759025  0.8571548243330874  1.0000
  H   H267      1.0  0.8948956710838932  0.22851318693217415  0.8462676092066165  1.0000
  H   H268      1.0  0.8902744349416146  0.23572872792997568  0.003113750112808011  1.0000
  H   H269      1.0  0.8719136161024681  0.26138396081993714  0.9555103442717807  1.0000
  H   H270      1.0  0.8619299317124348  0.20807878940419874  0.9400124454279224  1.0000
  H   H271      1.0  0.9409194471546659  0.3244200946189054  0.9440127265586776  1.0000
  H   H272      1.0  0.984092838340807  0.31876856897460304  0.9225327945277125  1.0000
  H   H273      1.0  0.9621373467212109  0.30234309472607945  0.9925816497333648  1.0000
  H   H274      1.0  0.9504511805886579  0.22918493161067363  0.9779569046209446  1.0000
  H   H275      1.0  0.973278611586445  0.2444144086131652  0.9081100207936728  1.0000
  H   H276      1.0  0.9220806873427623  0.19783304898436807  0.9167269628795445  1.0000
  N   N16       1.0  0.7093274016341891  0.14458656234930536  0.5931454732715629  1.0000
  C   C205      1.0  0.715013244053319  0.12598632279872735  0.6460744915687462  1.0000
  C   C206      1.0  0.7252875476091635  0.13137908487202382  0.5439796366111354  1.0000
  C   C207      1.0  0.7325049106853571  0.19234599793272053  0.5977613252716432  1.0000
  C   C208      1.0  0.6645629573282055  0.1286499623751624  0.5848732374774807  1.0000
  H   H277      1.0  0.7040700954834929  0.1359027809869437  0.6842681491139345  1.0000
  H   H278      1.0  0.7484045241273732  0.13700744818308944  0.6531388863919917  1.0000
  H   H279      1.0  0.6977681074694726  0.08995558022796625  0.6445204233797811  1.0000
  H   H280      1.0  0.7591346872193555  0.1433221268267205  0.5485389085128987  1.0000
  H   H281      1.0  0.7089419190893274  0.09546164148079885  0.5395017677057531  1.0000
  H   H282      1.0  0.7211488239219194  0.144445831007009  0.5032000539057127  1.0000
  H   H283      1.0  0.728999890690584  0.20762115071331824  0.5586491130570649  1.0000
  H   H284      1.0  0.7664311749678592  0.20530639836476092  0.6039274427070089  1.0000
  H   H285      1.0  0.7216474626635774  0.20348483530102007  0.6348120755754803  1.0000
  H   H286      1.0  0.6590993500367947  0.1421659785359144  0.5453988319197804  1.0000
  H   H287      1.0  0.6514105041412036  0.13778912907363752  0.6213592988045645  1.0000
  H   H288      1.0  0.6463164705219427  0.09269258453242402  0.5809471969013988  1.0000
  N   N17       1.0  0.7987446448804237  0.975774734117361  0.3607490524127165  1.0000
  C   C209      1.0  0.8358954150963912  0.9877081694035743  0.32535588442367647  1.0000
  C   C210      1.0  0.7606700401939348  0.9450206083830693  0.3292305875732545  1.0000
  C   C211      1.0  0.7973079698132982  0.015176240526346918  0.37470641395721377  1.0000
  C   C212      1.0  0.8011629313129001  0.9552950051172604  0.4140016227482333  1.0000
  H   H289      1.0  0.8650789018285558  0.01098287459298275  0.34825702201916664  1.0000
  H   H290      1.0  0.835162559451953  0.0032946342886295272  0.2848078108633588  1.0000
  H   H291      1.0  0.8381348104798149  0.9587961492653242  0.31410105808247896  1.0000
  H   H292      1.0  0.7321877872145817  0.9355106574976025  0.35502866514224257  1.0000
  H   H293      1.0  0.757559817176212  0.9593428401927212  0.2888989241367858  1.0000
  H   H294      1.0  0.7604920161849797  0.914736532500389  0.3181513256510781  1.0000
  H   H295      1.0  0.8258057423238553  0.039380615836807964  0.39783856000941464  1.0000
  H   H296      1.0  0.7703170193853793  0.007533679347069277  0.40257851533622135  1.0000
  H   H297      1.0  0.7943670406266451  0.030974810447685686  0.3357748641276576  1.0000
  H   H298      1.0  0.773459323525287  0.945710451657102  0.44164267000608143  1.0000
  H   H299      1.0  0.8294172889708201  0.9778253997153364  0.43908819191579157  1.0000
  H   H300      1.0  0.8024974985228082  0.9255546714604487  0.4051347637849723  1.0000
  N   N18       1.0  0.11022667786799834  0.6547228774574487  0.17170754347942377  1.0000
  C   C213      1.0  0.10680729933549715  0.6555570408326399  0.23449950349689871  1.0000
  C   C214      1.0  0.08497239521139499  0.6710383061346173  0.1453737259859658  1.0000
  C   C215      1.0  0.09485771464712989  0.6098434335128365  0.1524004527069945  1.0000
  C   C216      1.0  0.15423271555926732  0.6825120611997695  0.15441444281008238  1.0000
  H   H301      1.0  0.12522193692886296  0.6432243661534583  0.2560073358017253  1.0000
  H   H302      1.0  0.07389534606850812  0.6356298505874572  0.24907551743862424  1.0000
  H   H303      1.0  0.11825811665067887  0.6889689251694112  0.2506101813635279  1.0000
  H   H304      1.0  0.08675602576532793  0.6709991871973299  0.09794415910854923  1.0000
  H   H305      1.0  0.05167297058560272  0.6515295020810505  0.1581987266106158  1.0000
  H   H306      1.0  0.09623996040690641  0.7049891331866781  0.1583995309532849  1.0000
  H   H307      1.0  0.09704500181979725  0.6081655218550726  0.10517445419301544  1.0000
  H   H308      1.0  0.06169860315960474  0.5880515858247891  0.16465834550968295  1.0000
  H   H309      1.0  0.11324042730464168  0.5964833681995148  0.1714640162016965  1.0000
  H   H310      1.0  0.16691694374279709  0.7164943086195875  0.16889162306628072  1.0000
  H   H311      1.0  0.1578086606182736  0.6835712189755989  0.10715252425392312  1.0000
  H   H312      1.0  0.17430740434831327  0.6709778041906336  0.17270780170033434  1.0000
  N   N19       1.0  0.4341820181289194  0.24075114456276792  0.1575910556633195  1.0000
  C   C217      1.0  0.3986854458123897  0.2448761109492481  0.13840768062904504  1.0000
  C   C218      1.0  0.46432942246592535  0.2806043928132807  0.1881593395410535  1.0000
  C   C219      1.0  0.4546617889348815  0.23435401819794022  0.10755131044224107  1.0000
  C   C220      1.0  0.41920034963067626  0.20323041445803297  0.1962549055689128  1.0000
  H   H313      1.0  0.40915245296060837  0.272959181163172  0.10905932521904203  1.0000
  H   H314      1.0  0.38254885886090345  0.24979238377508506  0.17510425592571865  1.0000
  H   H315      1.0  0.37537946376641496  0.21548624518210832  0.11484641270234298  1.0000
  H   H316      1.0  0.4922052018068975  0.27924318169776646  0.20129079533540328  1.0000
  H   H317      1.0  0.47523325718556686  0.3098309806875362  0.1612308696107219  1.0000
  H   H318      1.0  0.4506111482953766  0.285418912285197  0.22771780134235195  1.0000
  H   H319      1.0  0.48250753776952715  0.23263873244576563  0.12025231314141722  1.0000
  H   H320      1.0  0.4652129997539037  0.2613732136726919  0.07663195995554099  1.0000
  H   H321      1.0  0.4331152906451831  0.20398997744845923  0.08429100454687767  1.0000
  H   H322      1.0  0.44526221275945466  0.19876476236966073  0.21031387074121913  1.0000
  H   H323      1.0  0.39552684899766716  0.17264072567371438  0.17535324223039833  1.0000
  H   H324      1.0  0.40501187135124084  0.20761368300886113  0.23567463618194662  1.0000
  N   N20       1.0  0.34344015495654534  0.8309276943668695  0.6589711709440718  1.0000
  C   C221      1.0  0.37642345425770396  0.8744783902146676  0.677646849854703  1.0000
  C   C222      1.0  0.32689887710317383  0.8343039877822078  0.6032981931265207  1.0000
  C   C223      1.0  0.30942223628683435  0.8126758361085069  0.7014785196290853  1.0000
  C   C224      1.0  0.36085075442193176  0.8021744850673646  0.6534276247282572  1.0000
  H   H325      1.0  0.3885740505042887  0.8735990093788222  0.7206377896554107  1.0000
  H   H326      1.0  0.3646529005735863  0.8973849763548071  0.6803004093571569  1.0000
  H   H327      1.0  0.4032952480524417  0.8887071460177728  0.6476637179420466  1.0000
  H   H328      1.0  0.35174312858945717  0.8479628466232628  0.5701501136346734  1.0000
  H   H329      1.0  0.3018207044940747  0.802024305593386  0.5880564231880708  1.0000
  H   H330      1.0  0.31354921497431715  0.855844352312843  0.6060434151294724  1.0000
  H   H331      1.0  0.3210642896362398  0.8107888815306389  0.7443401161485547  1.0000
  H   H332      1.0  0.28470967461281177  0.7791243530894625  0.6899440656819527  1.0000
  H   H333      1.0  0.29456495536339117  0.8326547017009608  0.705544047629564  1.0000
  H   H334      1.0  0.3366302595868743  0.7688878278950184  0.6400203876626356  1.0000
  H   H335      1.0  0.37335024009728135  0.7986891645072887  0.6947431788413119  1.0000
  H   H336      1.0  0.3866194653841775  0.8147195534321787  0.6217448852068848  1.0000
  N   N21       1.0  0.8053765597199536  0.45940441027264406  0.6052603571484061  1.0000
  C   C225      1.0  0.7995317191774476  0.49601901258793474  0.6199550188678677  1.0000
  C   C226      1.0  0.8478984018494335  0.4764093075641509  0.5825006862699806  1.0000
  C   C227      1.0  0.7746672731799364  0.432016482032211  0.5615303852563448  1.0000
  C   C228      1.0  0.7994451277391265  0.4333751778132758  0.6568986342141768  1.0000
  H   H337      1.0  0.7676583349758342  0.48471175636238817  0.6365019036479972  1.0000
  H   H338      1.0  0.8044450236182564  0.5165721010683516  0.5820738298202306  1.0000
  H   H339      1.0  0.8220389176448759  0.5172669307466321  0.6531630560497661  1.0000
  H   H340      1.0  0.8538172222742508  0.4498341908210406  0.5715758876802753  1.0000
  H   H341      1.0  0.8532021972695012  0.49606983918198916  0.5432925202860465  1.0000
  H   H342      1.0  0.8718710909302059  0.49777954648043427  0.6139432696250403  1.0000
  H   H343      1.0  0.7774415001856503  0.4034044473782357  0.5506201760496388  1.0000
  H   H344      1.0  0.7792450186663739  0.45036807519208016  0.5214360501719665  1.0000
  H   H345      1.0  0.7421843654437237  0.42008012120814975  0.5760855136254299  1.0000
  H   H346      1.0  0.8060093490809006  0.4068755372151683  0.6485444265787244  1.0000
  H   H347      1.0  0.7671572496162485  0.4186187325273625  0.6737664359250229  1.0000
  H   H348      1.0  0.820628892717492  0.45360291384112705  0.6916566706690912  1.0000
  N   N22       1.0  0.34783772884018094  0.5556385642673434  0.7666551365899088  1.0000
  C   C229      1.0  0.3655003321474887  0.565465401003229  0.8247997399777081  1.0000
  C   C230      1.0  0.31827523453807016  0.5085696691684877  0.7612079359601818  1.0000
  C   C231      1.0  0.38184283348765297  0.5691244360260053  0.7246548967970936  1.0000
  C   C232      1.0  0.3258804311370556  0.5794960959791932  0.7560242734749978  1.0000
  H   H349      1.0  0.38807874664922426  0.6007370277450386  0.8302432359591682  1.0000
  H   H350      1.0  0.38227732826836514  0.5479098992153961  0.8342256014557439  1.0000
  H   H351      1.0  0.34072084020525006  0.555808851717361  0.8576287658953301  1.0000
  H   H352      1.0  0.2912856593865406  0.49749729277467103  0.7905789120836655  1.0000
  H   H353      1.0  0.3058088118568663  0.4995619349663407  0.7170395053158336  1.0000
  H   H354      1.0  0.33342288605721393  0.48954321710044596  0.7714378121611638  1.0000
  H   H355      1.0  0.36961615881097826  0.561357176175785  0.6803294001202105  1.0000
  H   H356      1.0  0.3997682710804882  0.5525944988580221  0.732146787945911  1.0000
  H   H357      1.0  0.40408753079043497  0.604713997686583  0.7263347802608064  1.0000
  H   H358      1.0  0.3129974178532311  0.5736512311027725  0.7120650708881942  1.0000
  H   H359      1.0  0.34716889755960995  0.6150887383032666  0.7606579703802917  1.0000
  H   H360      1.0  0.2995602543664019  0.5697987480659057  0.7862466746696225  1.0000
  N   N23       1.0  0.18463367771603073  0.2347012004522312  0.9557846507892699  1.0000
  C   C233      1.0  0.1410470170770922  0.19976902327766521  0.9648514625863915  1.0000
  C   C234      1.0  0.1903928970071294  0.2759530237452955  0.978268081762498  1.0000
  C   C235      1.0  0.19435720487510516  0.2392104414123834  0.8941495277308084  1.0000
  C   C236      1.0  0.21276266863932475  0.22376235014351908  0.9859070720498898  1.0000
  H   H361      1.0  0.1357520097371871  0.16816640685684098  0.9485199936387874  1.0000
  H   H362      1.0  0.11885788385312188  0.20681294477482517  0.9427196312718996  1.0000
  H   H363      1.0  0.13277975403810272  0.1955653172738201  0.0110692409676596  1.0000
  H   H364      1.0  0.22353995186733816  0.3025236281430533  0.9754019510882128  1.0000
  H   H365      1.0  0.1712788439740265  0.28637530442950915  0.9545245265632719  1.0000
  H   H366      1.0  0.18103677926411216  0.27297434431433854  0.023862854966525182  1.0000
  H   H367      1.0  0.22707535845297339  0.26532836728789944  0.8859204018808787  1.0000
  H   H368      1.0  0.17357957702825388  0.24702014124127436  0.8696969791745924  1.0000
  H   H369      1.0  0.1910640640075232  0.20887870024536495  0.8759507817793727  1.0000
  H   H370      1.0  0.21026549409565282  0.19356543739348475  0.9686213238866436  1.0000
  H   H371      1.0  0.20559978450170074  0.2187860822704388  0.03220858978800645  1.0000
  H   H372      1.0  0.24588354917776953  0.24984264386220612  0.981140315950434  1.0000
  N   N24       1.0  0.5311607624117195  0.4479510343885877  0.9077345617830183  1.0000
  C   C237      1.0  0.5125272334715938  0.47317272696885504  0.8870570037134924  1.0000
  C   C238      1.0  0.5714767227373535  0.46291374876287605  0.8788780762817204  1.0000
  C   C239      1.0  0.5027481317360851  0.4015862647964411  0.8950697139783719  1.0000
  C   C240      1.0  0.5377314885873403  0.4539713642673063  0.9699979470263027  1.0000
  H   H373      1.0  0.4821698403408516  0.4628684230015636  0.9083536616094422  1.0000
  H   H374      1.0  0.5061447288476197  0.4686190398249036  0.8404017703050901  1.0000
  H   H375      1.0  0.5331896180892505  0.5084244212299829  0.8952404258572151  1.0000
  H   H376      1.0  0.5862618961169268  0.44442470948964347  0.8936343430646316  1.0000
  H   H377      1.0  0.5675232363022001  0.4586955625268104  0.8318247556134131  1.0000
  H   H378      1.0  0.5937326279973146  0.49782876687812583  0.8875134130212553  1.0000
  H   H379      1.0  0.49621108452072754  0.3956629636462184  0.8486199600881902  1.0000
  H   H380      1.0  0.47236543963065303  0.38925851547932216  0.9169431800222068  1.0000
  H   H381      1.0  0.5156454980805673  0.3813347037906159  0.9099256931474078  1.0000
  H   H382      1.0  0.5509318237711839  0.43463387764169725  0.9873358122251352  1.0000
  H   H383      1.0  0.5078903095882802  0.4434065811661711  0.992867133348765  1.0000
  H   H384      1.0  0.5594303461662484  0.4884949494073961  0.981309271800829  1.0000
