data_image0
_chemical_formula_structural       FeS2FeS2FeSFeS3FeS2FeS2FeSFeS3FeS2FeS2FeSFeS3FeS2FeS2FeSFeS3FeS2FeS2FeSFeS3FeS2FeS2FeSFeS3FeS2FeS2FeSFeS3FeS2FeS2FeSFeS3FeS2FeS2FeSFeS3FeS2FeS2FeSFeS3FeS2FeS2FeSFeS3FeS2FeS2FeSFeS3C6H4C6H4C6H4C6H4C6H4C6H4C6H4C6H4C6H4C6H4C6H4C6H4C6H4C6H4C6H4C6H4C6H4C6H4C6H4C6H4C6H4C6H4C6H4C6H4NC4H12NC4H12NC4H12NC4H12NC4H12NC4H12NC4H12NC4H12NC4H12NC4H12NC4H12NC4H12NC4H12NC4H12NC4H12NC4H12NC4H12NC4H12NC4H12NC4H12NC4H12NC4H12NC4H12NC4H12
_chemical_formula_sum              "Fe48 S96 C240 H384 N24"
_cell_length_a       35.272914197808475
_cell_length_b       36.12122150479118
_cell_length_c       52.14308736472613
_cell_angle_alpha    89.68743534043205
_cell_angle_beta     89.93155339971777
_cell_angle_gamma    114.99558216793581

_space_group_name_H-M_alt    "P 1"
_space_group_IT_number       1

loop_
  _space_group_symop_operation_xyz
  'x, y, z'

loop_
  _atom_site_type_symbol
  _atom_site_label
  _atom_site_symmetry_multiplicity
  _atom_site_fract_x
  _atom_site_fract_y
  _atom_site_fract_z
  _atom_site_occupancy
  Fe  Fe1       1.0  0.49632528253306457  0.563255786772918  0.20585878497132612  1.0000
  S   S1        1.0  0.5317385769649235  0.6301762600334898  0.214656080009194  1.0000
  S   S2        1.0  0.5232905978333213  0.5249833261124403  0.1859423277157049  1.0000
  Fe  Fe2       1.0  0.4187047022448309  0.5552012291116837  0.23432877372049374  1.0000
  S   S3        1.0  0.4470366393714869  0.6207400052095935  0.24579523903196365  1.0000
  S   S4        1.0  0.35321221903770667  0.5124283502773093  0.24518752721611206  1.0000
  Fe  Fe3       1.0  0.4706460662934281  0.6331245320805396  0.2054088396430123  1.0000
  S   S5        1.0  0.45509659140387415  0.6802381404382344  0.18538846126852956  1.0000
  Fe  Fe4       1.0  0.5044209592747131  0.6113129802138201  0.2540853897228077  1.0000
  S   S6        1.0  0.5345760304001357  0.6310037170066934  0.29241084887549645  1.0000
  S   S7        1.0  0.43782262271507627  0.5678430663700459  0.1931765722616435  1.0000
  S   S8        1.0  0.4739073295014328  0.5442765379700877  0.24611540045016145  1.0000
  Fe  Fe5       1.0  0.26054327953861606  0.3662360399210201  0.35124148719195486  1.0000
  S   S9        1.0  0.3263969283286099  0.41206774701603116  0.35750989602866945  1.0000
  S   S10       1.0  0.23789394603491526  0.32783224726640336  0.31600897144819023  1.0000
  Fe  Fe6       1.0  0.23134586488145492  0.3794003781771089  0.40344312208050864  1.0000
  S   S11       1.0  0.2947034241410643  0.4265521333137204  0.4152230550869529  1.0000
  S   S12       1.0  0.1690575127251729  0.3549480317761108  0.42338739453191493  1.0000
  Fe  Fe7       1.0  0.29732960335145114  0.4504323604674102  0.375053731041684  1.0000
  S   S13       1.0  0.3251700982720174  0.5166459495431328  0.36417122020091736  1.0000
  Fe  Fe8       1.0  0.31869754691939184  0.38442293321886833  0.39678199646307744  1.0000
  S   S14       1.0  0.3679409598101175  0.36533042421285766  0.41042946834928073  1.0000
  S   S15       1.0  0.23203227887568528  0.4073377171111914  0.3648689666684707  1.0000
  S   S16       1.0  0.25520681628548547  0.3350124949768722  0.3890009939224635  1.0000
  Fe  Fe9       1.0  0.4111819189557665  0.22484861020552133  0.20618491358919588  1.0000
  S   S17       1.0  0.4525602202076181  0.2862491330817041  0.1895278207266296  1.0000
  S   S18       1.0  0.4056269298929025  0.16592600804896251  0.18885226126520058  1.0000
  Fe  Fe10      1.0  0.3910130424486657  0.2603710822727028  0.25417029069773156  1.0000
  S   S19       1.0  0.43013218020462796  0.3248036809441237  0.2417036962072237  1.0000
  S   S20       1.0  0.3634566891169293  0.24887419279841722  0.2939604072353199  1.0000
  Fe  Fe11      1.0  0.40206011194561325  0.3038300164550228  0.20301023701706739  1.0000
  S   S21       1.0  0.38139991929607914  0.345380538206443  0.18076229882304035  1.0000
  Fe  Fe12      1.0  0.4770586995245777  0.3017968500546774  0.22957318641542898  1.0000
  S   S22       1.0  0.5443898263977048  0.33979782406088826  0.23929863348077893  1.0000
  S   S23       1.0  0.3580251648280311  0.2409331998036493  0.21648216846097307  1.0000
  S   S24       1.0  0.4404300499950189  0.23882974676595434  0.2451470761608224  1.0000
  Fe  Fe13      1.0  0.6725067516644478  0.49139609023628994  0.3959926305920825  1.0000
  S   S25       1.0  0.6088269832162689  0.44893574682795157  0.4104913674766448  1.0000
  S   S26       1.0  0.7361424120904585  0.5037511390176582  0.411235898426445  1.0000
  Fe  Fe14      1.0  0.6399144795436984  0.5158401770484136  0.3487621411587007  1.0000
  S   S27       1.0  0.572941128502445  0.47616116640032774  0.35802247636882556  1.0000
  S   S28       1.0  0.6615205479610925  0.5537088559487611  0.3130307281204362  1.0000
  Fe  Fe15      1.0  0.5901398186402698  0.4985264962924237  0.3981912928542892  1.0000
  S   S29       1.0  0.5442238326837248  0.5150863242446957  0.41936805674479843  1.0000
  Fe  Fe16      1.0  0.5958090157396598  0.4293371926074972  0.36945307656534043  1.0000
  S   S30       1.0  0.5559191400014858  0.36438236336002  0.35910716765693335  1.0000
  S   S31       1.0  0.6552195460219358  0.5432953330449267  0.38780802958429794  1.0000
  S   S32       1.0  0.6611247307290525  0.46657862271864287  0.35599537137986925  1.0000
  Fe  Fe17      1.0  0.39546413310874085  0.8896820246719982  0.8546693163859904  1.0000
  S   S33       1.0  0.32526489292685234  0.85880383847107  0.8575360279325721  1.0000
  S   S34       1.0  0.4305498928070051  0.950707682447645  0.8358599163189723  1.0000
  Fe  Fe18      1.0  0.4082372958398049  0.8266226890558535  0.8870180861452028  1.0000
  S   S35       1.0  0.33980298477476156  0.7900427656828694  0.8930837081253772  1.0000
  S   S36       1.0  0.45651798112488384  0.8085227789544522  0.9037155612015046  1.0000
  Fe  Fe19      1.0  0.33359057269465264  0.8010845635622499  0.8513341156214772  1.0000
  S   S37       1.0  0.2929258880035621  0.7439867075205155  0.8300806143214233  1.0000
  Fe  Fe20      1.0  0.33712952258501516  0.85018260887831  0.8989197314638251  1.0000
  S   S38       1.0  0.2994777794083074  0.855251416603052  0.932291089004917  1.0000
  S   S39       1.0  0.4029004091598141  0.8328375305434831  0.8445886768394368  1.0000
  S   S40       1.0  0.40650696932847236  0.886170723571397  0.8967230614675498  1.0000
  Fe  Fe21      1.0  0.5670464268840966  0.8243258172083818  0.07431045752362651  1.0000
  S   S41       1.0  0.5100967347415022  0.8356312644725113  0.0807023586118301  1.0000
  S   S42       1.0  0.5840274459215056  0.7829559122630063  0.0995836634323313  1.0000
  Fe  Fe22      1.0  0.5908188245353305  0.875400403775819  0.025389361067011475  1.0000
  S   S43       1.0  0.5355674480125521  0.890615259974002  0.02760342016490109  1.0000
  S   S44       1.0  0.6330162555341575  0.8973618420908536  0.9912019043056697  1.0000
  Fe  Fe23      1.0  0.5512659420390023  0.8999826174517649  0.06935479328115893  1.0000
  S   S45       1.0  0.550294066044133  0.952949977055554  0.09103989329616534  1.0000
  Fe  Fe24      1.0  0.5002699499404641  0.8248043934046293  0.038635097022291356  1.0000
  S   S46       1.0  0.4369870136772839  0.7850146247160262  0.023577245247611525  1.0000
  S   S47       1.0  0.6097835486622117  0.8901123824442415  0.06642952368669318  1.0000
  S   S48       1.0  0.5540971004559005  0.8085691395049682  0.03281745993960409  1.0000
  Fe  Fe25      1.0  0.7106651104179524  0.15393332162887552  0.8899098404635651  1.0000
  S   S49       1.0  0.6493268462039756  0.12763676696621978  0.8690965126298958  1.0000
  S   S50       1.0  0.7712915689777249  0.19907102913470717  0.8725960171739781  1.0000
  Fe  Fe26      1.0  0.6747556008335747  0.10083035840177718  0.9371725986750795  1.0000
  S   S51       1.0  0.6108477355718743  0.06944814144325656  0.9201414303520368  1.0000
  S   S52       1.0  0.6826173247676368  0.0851402154425458  0.9779282044838118  1.0000
  Fe  Fe27      1.0  0.6445098055869887  0.0677710587311417  0.8840803642279699  1.0000
  S   S53       1.0  0.623077779878269  0.012115312673202316  0.8592929034765618  1.0000
  Fe  Fe28      1.0  0.6216888895180928  0.1322051758636737  0.9070439903009994  1.0000
  S   S54       1.0  0.567659013600262  0.1489192698550684  0.9110234032095108  1.0000
  S   S55       1.0  0.70782029548631  0.0931158903132814  0.9023269702143563  1.0000
  S   S56       1.0  0.6834597958389885  0.16422072671425292  0.9266744446007965  1.0000
  Fe  Fe29      1.0  0.4498593467786636  0.10257821276000813  0.029961765549323754  1.0000
  S   S57       1.0  0.3996261874097331  0.11938432251458926  0.015387751104196235  1.0000
  S   S58       1.0  0.5178792159833572  0.14452544648743473  0.0275808682921328  1.0000
  Fe  Fe30      1.0  0.38837155760108044  0.020502334921250257  0.05020617719098776  1.0000
  S   S59       1.0  0.3325957876544935  0.03017372181660605  0.03736685959653356  1.0000
  S   S60       1.0  0.37823928528289846  0.9619864306953133  0.07011658261030992  1.0000
  Fe  Fe31      1.0  0.3698101519857309  0.054603335915866066  0.0014478269231420636  1.0000
  S   S61       1.0  0.34343848612752514  0.03847812598035564  0.9618395809638122  1.0000
  Fe  Fe32      1.0  0.36777133540334056  0.09338130847465988  0.05279482782874971  1.0000
  S   S62       1.0  0.3374683345183538  0.12628289072651563  0.07574289726918744  1.0000
  S   S63       1.0  0.42306238128088286  0.039853888179590104  0.012979476159408242  1.0000
  S   S64       1.0  0.4208669029279269  0.0816996587746136  0.06851501203335916  1.0000
  Fe  Fe33      1.0  0.8249916738291831  0.5445757139495482  0.540947519322801  1.0000
  S   S65       1.0  0.8444693136095649  0.49672902707094  0.526678049324864  1.0000
  S   S66       1.0  0.7708280975323488  0.5564750378337442  0.5273049220066691  1.0000
  Fe  Fe34      1.0  0.8920435105185008  0.5754535409023047  0.5809999607638254  1.0000
  S   S67       1.0  0.918271375715299  0.5307123878769258  0.5712144444146589  1.0000
  S   S68       1.0  0.9197731016088678  0.6266262350890308  0.6090665785929406  1.0000
  Fe  Fe35      1.0  0.910120305704103  0.5450539164246578  0.5303239980766133  1.0000
  S   S69       1.0  0.9568982365030324  0.5536627553557618  0.49896359012093994  1.0000
  Fe  Fe36      1.0  0.8514166995238194  0.48537833813139486  0.5682289742836079  1.0000
  S   S70       1.0  0.837197915429527  0.42213787393524094  0.5820675424291062  1.0000
  S   S71       1.0  0.8900025452086411  0.5942349834670964  0.5401792957579263  1.0000
  S   S72       1.0  0.8256584080261983  0.5285434110022348  0.5825259372764002  1.0000
  Fe  Fe37      1.0  0.9161348107881938  0.3212591886082024  0.7352492540525749  1.0000
  S   S73       1.0  0.8672794204897017  0.25904184995044566  0.7248666017227553  1.0000
  S   S74       1.0  0.9751632795348183  0.33283606803803617  0.7563148526251775  1.0000
  Fe  Fe38      1.0  0.8703928522416038  0.36574971533705625  0.7111238687301653  1.0000
  S   S75       1.0  0.8172407552680675  0.30835251900341465  0.6988501340231763  1.0000
  S   S76       1.0  0.868434258683045  0.425016361563647  0.7008399149011661  1.0000
  Fe  Fe39      1.0  0.8220102648920112  0.2840621382456188  0.7376262318410757  1.0000
  S   S77       1.0  0.760595595435901  0.24787534982555154  0.7573033837243057  1.0000
  Fe  Fe40      1.0  0.8665309847495686  0.2884548944277924  0.6869248792560826  1.0000
  S   S78       1.0  0.8548199500621202  0.2551616287430777  0.6494394389081194  1.0000
  S   S79       1.0  0.870931296512528  0.343930469651734  0.7513051733193608  1.0000
  S   S80       1.0  0.9198739993776351  0.3481881991930011  0.6960918026081223  1.0000
  Fe  Fe41      1.0  0.09169506524123401  0.6583431521805819  0.7586859189800209  1.0000
  S   S81       1.0  0.12674438339860697  0.6208735352100049  0.7490215496319387  1.0000
  S   S82       1.0  0.12240545573297754  0.7192033392228872  0.778466949506145  1.0000
  Fe  Fe42      1.0  0.012503838143171185  0.5997346324090642  0.7323543004784616  1.0000
  S   S83       1.0  0.04094792459519119  0.5575346469216944  0.7204720538925783  1.0000
  S   S84       1.0  0.9446906546124175  0.5793236044464107  0.7225406607823256  1.0000
  Fe  Fe43      1.0  0.06738500473141953  0.5672659519172351  0.7601125244292992  1.0000
  S   S85       1.0  0.07047532487873878  0.5189597704320972  0.7861065258883327  1.0000
  Fe  Fe44      1.0  0.0971268166034448  0.6148256978178637  0.7105046741006134  1.0000
  S   S86       1.0  0.1315381454256054  0.6206457481492319  0.6735456078534912  1.0000
  S   S87       1.0  0.034484158341285896  0.6051314629085748  0.7731040371972061  1.0000
  S   S88       1.0  0.06659887142890007  0.6565466647477554  0.7188954408983264  1.0000
  Fe  Fe45      1.0  0.03524595040491792  0.3814209730431716  0.5625165620699124  1.0000
  S   S89       1.0  0.0478365792629129  0.44221917001741257  0.5796484753995909  1.0000
  S   S90       1.0  0.9709525847442072  0.33451895133094706  0.5534989402274884  1.0000
  Fe  Fe46      1.0  0.12703720803938734  0.3995519176899801  0.556883501883252  1.0000
  S   S91       1.0  0.14811134757973926  0.46161475102512783  0.5743775351316529  1.0000
  S   S92       1.0  0.17761377575056755  0.38188405053817165  0.5429836400068137  1.0000
  Fe  Fe47      1.0  0.09590608530507579  0.430936005960489  0.6024314560485127  1.0000
  S   S93       1.0  0.10076198368206529  0.44114324949861744  0.6447958596623197  1.0000
  Fe  Fe48      1.0  0.09872016588781508  0.4672782728613121  0.5499787899037558  1.0000
  S   S94       1.0  0.11540520139068394  0.5214348987708265  0.5239811403536994  1.0000
  S   S95       1.0  0.07939192035184738  0.3678786260987705  0.5875691997944462  1.0000
  S   S96       1.0  0.08110300923036719  0.4075050989981891  0.5303943715631347  1.0000
  C   C1        1.0  0.12720997356898092  0.5720137671347336  0.6655644381368239  1.0000
  C   C2        1.0  0.11945272393033951  0.5425314236528056  0.6847855653510143  1.0000
  C   C3        1.0  0.11242862868060545  0.5025818641119557  0.6783110710573526  1.0000
  C   C4        1.0  0.11270391708422908  0.4919263554798107  0.6525783654753494  1.0000
  C   C5        1.0  0.1210286971387628  0.5215267748930293  0.63332643657428  1.0000
  C   C6        1.0  0.1287068371204504  0.5617227969015022  0.6398608732269145  1.0000
  H   H1        1.0  0.118944462255492  0.5504644360822409  0.7047144415093258  1.0000
  H   H2        1.0  0.10633586124880959  0.47990822367908526  0.6932846373488842  1.0000
  H   H3        1.0  0.12147650255690219  0.5134668421791996  0.6134193611495243  1.0000
  H   H4        1.0  0.13478938113917618  0.584537129608965  0.6249689124994582  1.0000
  C   C7        1.0  0.0016509236856745435  0.3847664605921015  0.7640378914039684  1.0000
  C   C8        1.0  0.030661652671812787  0.39656768269340653  0.7840072335655064  1.0000
  C   C9        1.0  0.05172428043107528  0.4378833536923144  0.7905473530197198  1.0000
  C   C10       1.0  0.04488960012815259  0.4677193134920234  0.7766300784230916  1.0000
  C   C11       1.0  0.01688630714351218  0.4560656072821324  0.7560878586661692  1.0000
  C   C12       1.0  0.9945866362592893  0.414555989921605  0.7501272844898179  1.0000
  H   H5        1.0  0.036244620210997516  0.3736907204449988  0.7948049920776503  1.0000
  H   H6        1.0  0.07341355378620927  0.446748858525818  0.8064357287800745  1.0000
  H   H7        1.0  0.012113749582619217  0.47894691138786283  0.7450200375302823  1.0000
  H   H8        1.0  0.9723738514685307  0.4057370612021489  0.7346005985298474  1.0000
  C   C13       1.0  0.887897037463851  0.27881106717613574  0.6233320562383065  1.0000
  C   C14       1.0  0.9230895254413519  0.31615512264070184  0.6257141757277271  1.0000
  C   C15       1.0  0.9492893818685887  0.33345297763240017  0.6044130825475308  1.0000
  C   C16       1.0  0.9394751258998069  0.3138641260935097  0.580614470848551  1.0000
  C   C17       1.0  0.9035137907523829  0.27738157956256815  0.5781137542060807  1.0000
  C   C18       1.0  0.8780860531314622  0.2596845671852057  0.599460992707706  1.0000
  H   H9        1.0  0.9303045529397517  0.3315008362872425  0.64390858523174  1.0000
  H   H10       1.0  0.9769013747472847  0.3618876055793152  0.6063673815141226  1.0000
  H   H11       1.0  0.895879435655269  0.2621876614035647  0.5597559617315208  1.0000
  H   H12       1.0  0.8509105854719755  0.23086328030223938  0.597500719405737  1.0000
  C   C19       1.0  0.0019541420694795253  0.5468476542297818  0.506910082039208  1.0000
  C   C20       1.0  0.007682536035716669  0.5344290477552758  0.5315241330968762  1.0000
  C   C21       1.0  0.042493838214425504  0.5264873612330944  0.5368867428958451  1.0000
  C   C22       1.0  0.07225750204471988  0.5320206677126291  0.517775921984723  1.0000
  C   C23       1.0  0.06731063062390477  0.5456234081541699  0.49339325531402534  1.0000
  C   C24       1.0  0.03195874999104631  0.5525629640161956  0.4878943183749582  1.0000
  H   H13       1.0  0.985347663493022  0.5307109085725026  0.5463935810820405  1.0000
  H   H14       1.0  0.04682704083774232  0.5169680594165225  0.5559110182805789  1.0000
  H   H15       1.0  0.09040452276028825  0.550099143001075  0.4786036471239996  1.0000
  H   H16       1.0  0.027821130378754555  0.5623330158033649  0.46885667672844766  1.0000
  C   C25       1.0  0.9259901673657562  0.612859871387199  0.6405392241983957  1.0000
  C   C26       1.0  0.8979158859162254  0.5758099780758964  0.6513131124485879  1.0000
  C   C27       1.0  0.9031367397801698  0.5661761889931696  0.6768316895965775  1.0000
  C   C28       1.0  0.9370916233674286  0.5928775103892705  0.6912468182061802  1.0000
  C   C29       1.0  0.9652003973630292  0.6297172429063506  0.680362100362213  1.0000
  C   C30       1.0  0.9592562448188153  0.6399675483803555  0.6551924632305363  1.0000
  H   H17       1.0  0.8719850951078494  0.5548337576270654  0.640148402094758  1.0000
  H   H18       1.0  0.8813309455095052  0.5377373059610923  0.6853266204557973  1.0000
  H   H19       1.0  0.9910559984271092  0.6507558567379275  0.6915089967238305  1.0000
  H   H20       1.0  0.9808052114028283  0.6688081337966801  0.6469747086224155  1.0000
  C   C31       1.0  0.8482660654334456  0.42507600221814057  0.614769127197283  1.0000
  C   C32       1.0  0.8660088078083177  0.40049700722351916  0.6253341463511847  1.0000
  C   C33       1.0  0.8724137689197526  0.4006719728586468  0.6517933414974337  1.0000
  C   C34       1.0  0.8618637086078355  0.42600371183246366  0.6676732442025759  1.0000
  C   C35       1.0  0.8454225772952669  0.4516344115246205  0.6569641377841463  1.0000
  C   C36       1.0  0.8386830098185423  0.4512336820048241  0.6304687641662319  1.0000
  H   H21       1.0  0.8749035225628964  0.3813565903884088  0.6131168319636061  1.0000
  H   H22       1.0  0.8853866812991432  0.38104493445094484  0.6598095884349535  1.0000
  H   H23       1.0  0.8368846154085096  0.4709853592149621  0.6692189785096505  1.0000
  H   H24       1.0  0.8248549533486171  0.4702239617642581  0.6223745597410296  1.0000
  C   C37       1.0  0.5553826391828395  0.15061186183640915  0.94347936230116  1.0000
  C   C38       1.0  0.5824408661045433  0.14936899729560063  0.9627187965051786  1.0000
  C   C39       1.0  0.5718097600194778  0.14965429018295062  0.9886053611468998  1.0000
  C   C40       1.0  0.5331153523505354  0.1489999988433144  0.9952949115484592  1.0000
  C   C41       1.0  0.5057884320602317  0.14969668661474336  0.9760891346429809  1.0000
  C   C42       1.0  0.5174449928075593  0.1516583830084071  0.9502283925981575  1.0000
  H   H25       1.0  0.6118369964267737  0.14871848798813486  0.9577289919859088  1.0000
  H   H26       1.0  0.5933118843007441  0.14962102645905845  0.003362281189529624  1.0000
  H   H27       1.0  0.47599390455592894  0.14954815827319437  0.9811362783047604  1.0000
  H   H28       1.0  0.4968091108214568  0.15355158387154907  0.9354822593191785  1.0000
  C   C43       1.0  0.7686913400094656  0.21617735772803076  0.841306014890954  1.0000
  C   C44       1.0  0.7304077053060791  0.2109605995279647  0.8306893967853757  1.0000
  C   C45       1.0  0.7283264058784068  0.221588265095607  0.8049870241217957  1.0000
  C   C46       1.0  0.7646409370873878  0.238050958476839  0.78990905742745  1.0000
  C   C47       1.0  0.8032110595629478  0.2445463404477287  0.8007012286548181  1.0000
  C   C48       1.0  0.8051836515166525  0.23353925889067473  0.8263844723198563  1.0000
  H   H29       1.0  0.7024417846666675  0.1990695716619011  0.8423130906664457  1.0000
  H   H30       1.0  0.6985405976851694  0.21706376360201166  0.7967671358422735  1.0000
  H   H31       1.0  0.8313828624169235  0.25729896811483055  0.7891527671080246  1.0000
  H   H32       1.0  0.8349354308822663  0.23787710219083252  0.8345857128155791  1.0000
  C   C49       1.0  0.5019972188303324  0.9549864998572966  0.08628803863895997  1.0000
  C   C50       1.0  0.46813051411733336  0.921159558047683  0.07649977467182593  1.0000
  C   C51       1.0  0.4299141820041282  0.9232455394915109  0.07200011474734447  1.0000
  C   C52       1.0  0.425908028090638  0.9595861339174556  0.07641670463708519  1.0000
  C   C53       1.0  0.4599338746760653  0.9936681231232799  0.08586720928305625  1.0000
  C   C54       1.0  0.49774149275037255  0.9911158934685941  0.09126019340501282  1.0000
  H   H33       1.0  0.47115827698613305  0.8932487062293686  0.07240750633317913  1.0000
  H   H34       1.0  0.40368668874792274  0.8969057202653027  0.06456049633426297  1.0000
  H   H35       1.0  0.4568722117085216  0.021736010173595943  0.08946717056819622  1.0000
  H   H36       1.0  0.5238684406200947  0.017354460379279013  0.09884978008131994  1.0000
  C   C55       1.0  0.6524377872928525  0.9504858891297973  0.9882446106276433  1.0000
  C   C56       1.0  0.6516168919354032  0.9740215579417957  0.009239449050554516  1.0000
  C   C57       1.0  0.6638882393793099  0.016082715371504408  0.006179239769970035  1.0000
  C   C58       1.0  0.6744171587764987  0.03416479902703551  0.9818823834112318  1.0000
  C   C59       1.0  0.6758532087742448  0.010791771277057549  0.960931458033804  1.0000
  C   C60       1.0  0.6660869394886096  0.9691564932144758  0.964314029301561  1.0000
  H   H37       1.0  0.6419072859225404  0.9598985464498709  0.027868852662400245  1.0000
  H   H38       1.0  0.664410396200222  0.03454058276480643  0.022529344607975954  1.0000
  H   H39       1.0  0.6848344111258358  0.02486024651081964  0.9422158983008629  1.0000
  H   H40       1.0  0.6677872234855582  0.9511205980710054  0.9482303197998003  1.0000
  C   C61       1.0  0.3126229472796474  0.9063516537496167  0.9404150401954882  1.0000
  C   C62       1.0  0.31739766792064167  0.9353582424111057  0.9213128514751484  1.0000
  C   C63       1.0  0.3256123103133829  0.975597118397049  0.9281036206215619  1.0000
  C   C64       1.0  0.33092244220637124  0.9873953884511242  0.9538962812959633  1.0000
  C   C65       1.0  0.32728213976403264  0.9586518872380958  0.9729407073566863  1.0000
  C   C66       1.0  0.31732322021580445  0.9179875095477337  0.966228779735639  1.0000
  H   H41       1.0  0.3134218033001133  0.9264356950175778  0.9013693598198871  1.0000
  H   H42       1.0  0.32787581838136115  0.9976250098556182  0.9133731250694711  1.0000
  H   H43       1.0  0.3313726136821646  0.9675268795237035  0.9928803276545312  1.0000
  H   H44       1.0  0.31369122840456537  0.8956216329058488  0.9810407713520629  1.0000
  C   C67       1.0  0.5700265493929707  0.9954038807122676  0.8516257293445204  1.0000
  C   C68       1.0  0.5446726096402287  0.9535724704548774  0.8492979353136635  1.0000
  C   C69       1.0  0.501700331028967  0.9397315674821867  0.8447626481866187  1.0000
  C   C70       1.0  0.48437491277341566  0.967771027021393  0.8411888347354564  1.0000
  C   C71       1.0  0.5100498093500175  0.009698920914577025  0.8425479604558094  1.0000
  C   C72       1.0  0.5526374503285296  0.023490347846195192  0.8484548184592966  1.0000
  H   H45       1.0  0.5580358046906257  0.9317246472439996  0.8513285292757645  1.0000
  H   H46       1.0  0.4821696714828698  0.9073499749314735  0.8434421411500673  1.0000
  H   H47       1.0  0.4968650828095058  0.03148803375213638  0.8394762469172935  1.0000
  H   H48       1.0  0.5720881348605386  0.05586315889713003  0.8500678531165049  1.0000
  C   C73       1.0  0.44869976272507084  0.798826863176871  0.9366966196649142  1.0000
  C   C74       1.0  0.41533538619313864  0.8022449099776072  0.9493662026216773  1.0000
  C   C75       1.0  0.4107666724442871  0.7964088398416362  0.976018100577943  1.0000
  C   C76       1.0  0.44037561144524445  0.7885818311602678  0.9900721933202634  1.0000
  C   C77       1.0  0.4738700381763616  0.7854588355873638  0.9774002984500819  1.0000
  C   C78       1.0  0.47746325382866167  0.7896398180124483  0.9506835374079481  1.0000
  H   H49       1.0  0.3932325758068562  0.809750868387827  0.9387403229509502  1.0000
  H   H50       1.0  0.38507326712004847  0.7992906304715046  0.9857983130414923  1.0000
  H   H51       1.0  0.49699223729112235  0.7796518895653546  0.9880889052906884  1.0000
  H   H52       1.0  0.5032601365976829  0.7869365562671075  0.9409123482816105  1.0000
  C   C79       1.0  0.24481961530087804  0.7381117008582896  0.8173607089671795  1.0000
  C   C80       1.0  0.21509090772237743  0.6986562583633283  0.8117273006218302  1.0000
  C   C81       1.0  0.17675106635564927  0.6926535747173561  0.8007388430506369  1.0000
  C   C82       1.0  0.16830300248509572  0.7261493695527731  0.7948308764273071  1.0000
  C   C83       1.0  0.19759606423604742  0.7656478130483555  0.8010268902613282  1.0000
  C   C84       1.0  0.2359263956959313  0.7716705820081843  0.8122994281228282  1.0000
  H   H53       1.0  0.22177748322762508  0.6725905829960377  0.8158110831896185  1.0000
  H   H54       1.0  0.15381535685912073  0.6620407290693985  0.7967750093003859  1.0000
  H   H55       1.0  0.1910376877465132  0.7916465264589257  0.796531906377123  1.0000
  H   H56       1.0  0.25893299657748875  0.8022367032145068  0.816468809495481  1.0000
  C   C85       1.0  0.745202745790231  0.5193648786881786  0.4433120161091966  1.0000
  C   C86       1.0  0.7837317133753896  0.5262050276404648  0.4543356348970579  1.0000
  C   C87       1.0  0.7917538744882652  0.5381358557334139  0.48001312528050544  1.0000
  C   C88       1.0  0.7612999486845975  0.5433716487085676  0.4947841487291718  1.0000
  C   C89       1.0  0.7230576973303232  0.5375203699879114  0.48360133693019924  1.0000
  C   C90       1.0  0.7149231500824165  0.5253705798425319  0.457854459566166  1.0000
  H   H57       1.0  0.80730560279421  0.5218246930182796  0.44309848102532273  1.0000
  H   H58       1.0  0.8216359098034278  0.5434076467896691  0.4883171633354262  1.0000
  H   H59       1.0  0.6994311703880628  0.541578858174176  0.4949635913964916  1.0000
  H   H60       1.0  0.6851238346514369  0.5202071559115341  0.44939601307899385  1.0000
  C   C91       1.0  0.35504083955457866  0.13687695115485612  0.10751144836014985  1.0000
  C   C92       1.0  0.3510317583176992  0.16859685668862467  0.12089127443902747  1.0000
  C   C93       1.0  0.3664591863612778  0.17796941218171392  0.14601937792007605  1.0000
  C   C94       1.0  0.3851588401071133  0.15504095825035838  0.15784309770473484  1.0000
  C   C95       1.0  0.38831413232373174  0.12287376983645867  0.14461816606571726  1.0000
  C   C96       1.0  0.37365723583815036  0.11412366077341941  0.11946249339274051  1.0000
  H   H61       1.0  0.3364409351140185  0.18622972629034293  0.11175502612823605  1.0000
  H   H62       1.0  0.36377639316045907  0.2027519102278268  0.15625834559364765  1.0000
  H   H63       1.0  0.40273729976672795  0.10511981459046332  0.15378555697290813  1.0000
  H   H64       1.0  0.37625429864991494  0.08939187547339729  0.10948934587167823  1.0000
  C   C97       1.0  0.5491226912714205  0.3443235151091798  0.27271531947143357  1.0000
  C   C98       1.0  0.5868309617931451  0.3711768183349607  0.28377662573586365  1.0000
  C   C99       1.0  0.5892475990920696  0.37780302585062786  0.31037702133922757  1.0000
  C   C100      1.0  0.5542962676662426  0.3565419035451452  0.3259328107869815  1.0000
  C   C101      1.0  0.5170850195245968  0.3289517187666913  0.3148958832686946  1.0000
  C   C102      1.0  0.5142688705424632  0.32333312389651636  0.28833913115435467  1.0000
  H   H65       1.0  0.6139158603382834  0.3873344075255173  0.2717435980174377  1.0000
  H   H66       1.0  0.618298225738859  0.3987263751281526  0.31886851262961985  1.0000
  H   H67       1.0  0.4901416120927442  0.3124716254386494  0.3267984559683658  1.0000
  H   H68       1.0  0.4849651730209657  0.3028300598087002  0.2800298193105306  1.0000
  C   C103      1.0  0.17132069393176808  0.35897965024358564  0.45689157774646705  1.0000
  C   C104      1.0  0.13478007668202918  0.3519780315350719  0.4706275335445273  1.0000
  C   C105      1.0  0.13620631017127535  0.3572567659848493  0.4972760167737767  1.0000
  C   C106      1.0  0.17414662014904567  0.3694353292425503  0.5102899845080928  1.0000
  C   C107      1.0  0.21034234737721544  0.37448222039142237  0.49670732346961516  1.0000
  C   C108      1.0  0.2090571602281612  0.36970789560145617  0.46996046026708777  1.0000
  H   H69       1.0  0.10540202034098185  0.34308473057323896  0.460626299441583  1.0000
  H   H70       1.0  0.10788195752633103  0.35171316735198105  0.5077437863003899  1.0000
  H   H71       1.0  0.23964955218632086  0.38327292515262  0.5067839905570742  1.0000
  H   H72       1.0  0.23724438208440732  0.37442983214947606  0.45950314007214393  1.0000
  C   C109      1.0  0.41661326681723393  0.4067463486660867  0.4146662530161914  1.0000
  C   C110      1.0  0.4530355207829945  0.40159307859295496  0.409711530836714  1.0000
  C   C111      1.0  0.49227298326231117  0.43468206476375415  0.4116750324046321  1.0000
  C   C112      1.0  0.4953677610733215  0.47283476108295663  0.41943369532059244  1.0000
  C   C113      1.0  0.45895779588254  0.47774509665293347  0.4252761715821314  1.0000
  C   C114      1.0  0.41949464430475447  0.444876271197668  0.42240365474374864  1.0000
  H   H73       1.0  0.4509838323725532  0.3722389807126085  0.4038426715284895  1.0000
  H   H74       1.0  0.5201084467006092  0.4305640265455363  0.4071305124333718  1.0000
  H   H75       1.0  0.4612332778678395  0.5071505766876124  0.4314679619901607  1.0000
  H   H76       1.0  0.3913878350978966  0.4488465155494237  0.42654079937530215  1.0000
  C   C115      1.0  0.2708327797181706  0.3035394686648379  0.31032619756531993  1.0000
  C   C116      1.0  0.3036493753447575  0.3096201816067002  0.3271820102410511  1.0000
  C   C117      1.0  0.3315549680701232  0.29228903501326875  0.32207188132248254  1.0000
  C   C118      1.0  0.32714209671999284  0.26911161699542624  0.29997427287399375  1.0000
  C   C119      1.0  0.293821479329855  0.2622260501007273  0.28327960201065133  1.0000
  C   C120      1.0  0.26543231825019453  0.27925830053129913  0.2885757532150101  1.0000
  H   H77       1.0  0.3077930652449137  0.327814135522157  0.3441865724784445  1.0000
  H   H78       1.0  0.3570904339584793  0.2976362387417383  0.33502608484768587  1.0000
  H   H79       1.0  0.2900026333963522  0.24381283398337572  0.2663348785506965  1.0000
  H   H80       1.0  0.23982792414519924  0.2742040839021038  0.2755926675851913  1.0000
  C   C121      1.0  0.5732665818162815  0.6136180741290909  0.2979330898600053  1.0000
  C   C122      1.0  0.5822491008264565  0.6066381373333687  0.3231357534999769  1.0000
  C   C123      1.0  0.6096013938581729  0.5883866498893425  0.3278990478035901  1.0000
  C   C124      1.0  0.630024071858164  0.5795075078171625  0.3074706773586687  1.0000
  C   C125      1.0  0.6231382970948605  0.5889333696254639  0.2823336349331258  1.0000
  C   C126      1.0  0.593739959676645  0.6048154561046292  0.27748147022809394  1.0000
  H   H81       1.0  0.5673288854214374  0.614601373390243  0.33893546600117724  1.0000
  H   H82       1.0  0.6151802636463464  0.5815809718217896  0.34738773163964365  1.0000
  H   H83       1.0  0.6394991104353605  0.5827089871452428  0.26655934574849677  1.0000
  H   H84       1.0  0.5872952385483039  0.6107235991926845  0.257971132745314  1.0000
  C   C127      1.0  0.48453656285920393  0.4749830150521503  0.18250422896239157  1.0000
  C   C128      1.0  0.4942931177882581  0.44168519610855606  0.18671880820120926  1.0000
  C   C129      1.0  0.4627010594993555  0.40172541163713116  0.18607795854008305  1.0000
  C   C130      1.0  0.4216534641765739  0.394922985820806  0.18001965023701574  1.0000
  C   C131      1.0  0.4122517129386617  0.4281418707850986  0.1747616628096006  1.0000
  C   C132      1.0  0.4434654731769134  0.46812507145728993  0.1765383054194163  1.0000
  H   H85       1.0  0.5261294944655761  0.4466871130441759  0.19074851144531293  1.0000
  H   H86       1.0  0.4702834955212485  0.37618977097046  0.1899090312493811  1.0000
  H   H87       1.0  0.38074432120148405  0.42303477811943574  0.1696075133160755  1.0000
  H   H88       1.0  0.43593294683608746  0.4935968718470579  0.1726135029163084  1.0000
  C   C133      1.0  0.34424868072882414  0.5158308886892472  0.2779650403148212  1.0000
  C   C134      1.0  0.3070051354470571  0.4879445885305341  0.2891395809873524  1.0000
  C   C135      1.0  0.3007449703042868  0.4886702116833775  0.31562299582872555  1.0000
  C   C136      1.0  0.3307372267980864  0.5185762785298108  0.3307735506661256  1.0000
  C   C137      1.0  0.36696585249432895  0.5478632662822447  0.31936533348090435  1.0000
  C   C138      1.0  0.37423954501948503  0.5457815497191579  0.2931080809146011  1.0000
  H   H89       1.0  0.283422427014549  0.4650063034820089  0.27749587521509494  1.0000
  H   H90       1.0  0.27252943624413317  0.46619444430330376  0.32428787010683646  1.0000
  H   H91       1.0  0.39012196647438746  0.5712058023324654  0.33098193125197983  1.0000
  H   H92       1.0  0.4032625418510887  0.5671523094969457  0.2847965221146198  1.0000
  C   C139      1.0  0.49132588017859313  0.7086642171792011  0.1617806709190589  1.0000
  C   C140      1.0  0.4864935130684639  0.7409899152820905  0.14954884319265457  1.0000
  C   C141      1.0  0.5150001086329781  0.764130390029957  0.13060228668818133  1.0000
  C   C142      1.0  0.5482678015829272  0.7548650770325255  0.12361311419665634  1.0000
  C   C143      1.0  0.55322580351652  0.72265548213435  0.13595740310025856  1.0000
  C   C144      1.0  0.524742541153341  0.6994945585241467  0.15498909467465488  1.0000
  H   H93       1.0  0.46078166692466904  0.7482790866558584  0.15486510304761245  1.0000
  H   H94       1.0  0.5113441994235532  0.7893148934750253  0.12173530949129849  1.0000
  H   H95       1.0  0.5790755357733453  0.7154703993881151  0.13075869609809287  1.0000
  H   H96       1.0  0.5286622207203506  0.6745510312944506  0.16435152578072706  1.0000
  N   N1        1.0  0.3438332715510659  0.38883723846062407  0.24754652931822035  1.0000
  C   C145      1.0  0.33803165041350786  0.345924125870722  0.2470361132343534  1.0000
  C   C146      1.0  0.32405360974020575  0.3973640616591685  0.2246664227614108  1.0000
  C   C147      1.0  0.3890065508813112  0.4161985444966221  0.24748402549338272  1.0000
  C   C148      1.0  0.324166832557985  0.39572516816720893  0.2709821332369589  1.0000
  H   H97       1.0  0.3043626684337658  0.3245803692547098  0.2460205802426155  1.0000
  H   H98       1.0  0.35169929558959057  0.3380315632930862  0.26429071946406085  1.0000
  H   H99       1.0  0.3532615342155273  0.33968923488850655  0.23003340773656822  1.0000
  H   H100      1.0  0.3290194543675764  0.4299139223748429  0.2239259389828032  1.0000
  H   H101      1.0  0.33716272675380604  0.3908612621157948  0.2067031371259709  1.0000
  H   H102      1.0  0.2897476240066046  0.3780638715389537  0.2244563615530922  1.0000
  H   H103      1.0  0.3944102952396139  0.44891702887593055  0.24739490874338377  1.0000
  H   H104      1.0  0.40471501104142094  0.41127710568345704  0.23015275211458605  1.0000
  H   H105      1.0  0.40479204513000516  0.41066298032539156  0.2645574697927417  1.0000
  H   H106      1.0  0.33727336224331217  0.3882241708106041  0.2886447608003239  1.0000
  H   H107      1.0  0.28982204926986466  0.3763381862869031  0.27132843054581945  1.0000
  H   H108      1.0  0.32899124209055103  0.42806721348273236  0.2723077710126466  1.0000
  N   N2        1.0  0.9949188690558519  0.5280287097942131  0.6412453277152024  1.0000
  C   C149      1.0  0.9491739949289598  0.513076506975879  0.6385722872504328  1.0000
  C   C150      1.0  0.014170286633637397  0.5311307804032309  0.615651590318436  1.0000
  C   C151      1.0  0.004139289598693802  0.4992135663376622  0.657509617267592  1.0000
  C   C152      1.0  0.012068876460980994  0.5687339775765308  0.6533188463714577  1.0000
  H   H109      1.0  0.9351923508914662  0.4828361719673876  0.6290286003718801  1.0000
  H   H110      1.0  0.9409333552301515  0.5346144298111968  0.6270524540395823  1.0000
  H   H111      1.0  0.9336848374867319  0.5095941702351361  0.6576357155381799  1.0000
  H   H112      1.0  0.048780688141926404  0.5426684085817601  0.6170493305322458  1.0000
  H   H113      1.0  0.0022261139930428455  0.5009316858520735  0.6060255957737997  1.0000
  H   H114      1.0  0.007607550064001622  0.5525701973621037  0.6028972194254736  1.0000
  H   H115      1.0  0.03836874272242975  0.5099243205425406  0.6603219917060474  1.0000
  H   H116      1.0  0.9921527033909369  0.46828849542659706  0.6488210090989508  1.0000
  H   H117      1.0  0.9895759911627802  0.4958352222879009  0.6768615599783072  1.0000
  H   H118      1.0  0.005558913603343775  0.5912523543745308  0.6416070508163517  1.0000
  H   H119      1.0  0.04656573635671041  0.5810532161465161  0.6557055835504024  1.0000
  H   H120      1.0  0.9981861581510388  0.5675480604446816  0.6726399600636143  1.0000
  N   N3        1.0  0.5521428444038284  0.9228865361412333  0.9286169552654194  1.0000
  C   C153      1.0  0.5861449375945278  0.9504301946290734  0.9117917252998592  1.0000
  C   C154      1.0  0.559055549333745  0.8862152982583505  0.9347270583368966  1.0000
  C   C155      1.0  0.511744713455652  0.9107017026362306  0.915286496665054  1.0000
  C   C156      1.0  0.5515374690521991  0.9442360610655328  0.9525992285967149  1.0000
  H   H121      1.0  0.5813432260338651  0.977918354467405  0.9063308302770323  1.0000
  H   H122      1.0  0.5881372151558183  0.9349126161363221  0.893799334124379  1.0000
  H   H123      1.0  0.6171166488438565  0.9612703591898916  0.9212062652068052  1.0000
  H   H124      1.0  0.5362247646749758  0.8667060231044654  0.9492669294366349  1.0000
  H   H125      1.0  0.5556431624968425  0.8670950701771906  0.9174307943882437  1.0000
  H   H126      1.0  0.5907948389844018  0.8944219263847925  0.9427596503634316  1.0000
  H   H127      1.0  0.48525378474175906  0.8895467611489165  0.9273154017760263  1.0000
  H   H128      1.0  0.5111181406143599  0.894460565533851  0.8970646341987037  1.0000
  H   H129      1.0  0.5055449136393128  0.9375625137686798  0.910177541555109  1.0000
  H   H130      1.0  0.5255792239411006  0.9243081560780826  0.9654365044496996  1.0000
  H   H131      1.0  0.5475576417418235  0.9726522939284531  0.9485921630044097  1.0000
  H   H132      1.0  0.5811810974608663  0.9528365398368124  0.9634208083373709  1.0000
  N   N4        1.0  0.8011644209275682  0.631236629079467  0.5972374604340047  1.0000
  C   C157      1.0  0.7618248674599466  0.5967766481251889  0.5894087830613663  1.0000
  C   C158      1.0  0.7933399993943108  0.6677242664162288  0.6018810824969717  1.0000
  C   C159      1.0  0.8325489107987913  0.6402614471901747  0.5765813048636762  1.0000
  C   C160      1.0  0.8171168498547292  0.6202288923514574  0.6209533002407428  1.0000
  H   H133      1.0  0.7666535203677507  0.568733571137471  0.5857038856524447  1.0000
  H   H134      1.0  0.7494719678493781  0.6037211079913418  0.5712179348549649  1.0000
  H   H135      1.0  0.7371171424914356  0.5891026336565082  0.6043672080444535  1.0000
  H   H136      1.0  0.8225452582575358  0.6942611751657808  0.6076883563134652  1.0000
  H   H137      1.0  0.781366173697555  0.6768086117060624  0.5843026401731933  1.0000
  H   H138      1.0  0.7698049476052402  0.6620405490263971  0.617405091969329  1.0000
  H   H139      1.0  0.8630623295665734  0.6655974201407552  0.5818247282010041  1.0000
  H   H140      1.0  0.8216709735659271  0.6483459801331252  0.5582305447212385  1.0000
  H   H141      1.0  0.8387394042753477  0.6132326682086516  0.5726768443987655  1.0000
  H   H142      1.0  0.8471680709092461  0.6453673804741576  0.6271559879088288  1.0000
  H   H143      1.0  0.8236698756168228  0.5929721607868754  0.6180654363329674  1.0000
  H   H144      1.0  0.7943902761835552  0.6132083334063422  0.6370595276357381  1.0000
  N   N5        1.0  0.4186294636059214  0.26991369647706975  0.3794530168581595  1.0000
  C   C161      1.0  0.38891175356482627  0.2871061710254619  0.38684017973596874  1.0000
  C   C162      1.0  0.4618587441280878  0.3009467886980532  0.3833768983997542  1.0000
  C   C163      1.0  0.4126840896131883  0.25811245552333745  0.3521475352718979  1.0000
  C   C164      1.0  0.4111484001712363  0.2335720492158994  0.3954388964728747  1.0000
  H   H145      1.0  0.39449086309232667  0.3153022268170922  0.37565037501388343  1.0000
  H   H146      1.0  0.39199166414220704  0.2957611919414816  0.40746756805858303  1.0000
  H   H147      1.0  0.3558935832696182  0.26509511841507083  0.3835260784333269  1.0000
  H   H148      1.0  0.4853695053116948  0.2894859233904967  0.3775755860721208  1.0000
  H   H149      1.0  0.46840830781296766  0.3290053679940808  0.37178983036461644  1.0000
  H   H150      1.0  0.46787020507135885  0.31046935368125833  0.40378613569962774  1.0000
  H   H151      1.0  0.43459220639410695  0.2450402477131398  0.3457857690601974  1.0000
  H   H152      1.0  0.4182648887643184  0.28483695377449414  0.33948456307374003  1.0000
  H   H153      1.0  0.3802899744657626  0.23495099055506735  0.34829310296638466  1.0000
  H   H154      1.0  0.4332596180356447  0.22003467206102553  0.39036297859247715  1.0000
  H   H155      1.0  0.37878587522638024  0.2095220677724231  0.3928530119614829  1.0000
  H   H156      1.0  0.41536614984326065  0.24146396536374137  0.41617621012922373  1.0000
  N   N6        1.0  0.4630822457836736  0.5231406321985379  0.35266072424434985  1.0000
  C   C165      1.0  0.4637369870012076  0.48256588453973126  0.3511558869929255  1.0000
  C   C166      1.0  0.46648672572196476  0.5404413130613243  0.32654765543237274  1.0000
  C   C167      1.0  0.4985143346516355  0.5507168338046228  0.36837521608856544  1.0000
  C   C168      1.0  0.4234093929895521  0.5187576664965065  0.3645989368573317  1.0000
  H   H157      1.0  0.49324712300614326  0.4845935728259864  0.34230545780779736  1.0000
  H   H158      1.0  0.43697645405116586  0.46084719724736556  0.339801115914355  1.0000
  H   H159      1.0  0.46146870758570524  0.4688358913475748  0.3705353466176564  1.0000
  H   H160      1.0  0.4400363054001446  0.520696874889245  0.3142036019217829  1.0000
  H   H161      1.0  0.4662577689650268  0.5711977037819538  0.32694260151046123  1.0000
  H   H162      1.0  0.496172929942929  0.5442943944721141  0.31701705712815487  1.0000
  H   H163      1.0  0.501679283471542  0.5826950731530226  0.3676600083041257  1.0000
  H   H164      1.0  0.5286711954277635  0.5508196198948098  0.3620037436460898  1.0000
  H   H165      1.0  0.4944205127128445  0.5412526423560804  0.38885424287755754  1.0000
  H   H166      1.0  0.421860673989252  0.548764881450318  0.36649769912157665  1.0000
  H   H167      1.0  0.41931168035631045  0.5050983384717346  0.3841573014428956  1.0000
  H   H168      1.0  0.3960256031862927  0.49857744455533304  0.35310353074190187  1.0000
  N   N7        1.0  0.23038231540738474  0.7263404417978573  0.7222485879608466  1.0000
  C   C169      1.0  0.19237107328130687  0.7333258259997154  0.7260464269244299  1.0000
  C   C170      1.0  0.2643027729306915  0.763969301902556  0.7119499454856332  1.0000
  C   C171      1.0  0.2213785478820598  0.6925197288802181  0.7039775548389777  1.0000
  C   C172      1.0  0.24348836763714266  0.7155975193415647  0.7470548555900249  1.0000
  H   H169      1.0  0.16610778541290006  0.7056208147244644  0.733761981118579  1.0000
  H   H170      1.0  0.18140307016671997  0.7414153841848679  0.7077550403288542  1.0000
  H   H171      1.0  0.1977140077078694  0.7582747732570116  0.7400062902487213  1.0000
  H   H172      1.0  0.29356854676320854  0.7598908175155811  0.7089773581605707  1.0000
  H   H173      1.0  0.2554592886469724  0.7728672403695069  0.6931868129543445  1.0000
  H   H174      1.0  0.27169966042085014  0.7900383148217565  0.7253364325012118  1.0000
  H   H175      1.0  0.24949929861168085  0.6868308435255531  0.7001931486978062  1.0000
  H   H176      1.0  0.21004059579968248  0.6988179410305584  0.6852436825095932  1.0000
  H   H177      1.0  0.19655985481993765  0.663435549658452  0.7114486088815046  1.0000
  H   H178      1.0  0.2721960941873254  0.7102668430511835  0.7450432262654356  1.0000
  H   H179      1.0  0.2186478643917884  0.6872524521907352  0.7553496075703416  1.0000
  H   H180      1.0  0.2502609531710305  0.7402993538759692  0.7613947817566006  1.0000
  N   N8        1.0  0.04307566166663314  0.3399884741797897  0.6896231919627844  1.0000
  C   C173      1.0  0.021543805711902182  0.30347392929654693  0.7060099571093468  1.0000
  C   C174      1.0  0.021680114671953975  0.33358690022218096  0.6645763429476836  1.0000
  C   C175      1.0  0.08707620909288152  0.34689697057890034  0.6856796786983326  1.0000
  C   C176      1.0  0.04193497512776156  0.37601191871208317  0.7022943163221692  1.0000
  H   H181      1.0  0.9880058143723206  0.296992276749733  0.708898557727495  1.0000
  H   H182      1.0  0.03581999735249252  0.3077845177683246  0.7254520918949161  1.0000
  H   H183      1.0  0.02261605076580296  0.2758110016047811  0.6974351324291886  1.0000
  H   H184      1.0  0.022353928841979766  0.3069347211283638  0.6543212214427911  1.0000
  H   H185      1.0  0.9883366342132838  0.3278880728496297  0.6669583161768747  1.0000
  H   H186      1.0  0.03668350684942362  0.36072059254291444  0.6517918030111454  1.0000
  H   H187      1.0  0.10406756582517634  0.3519099856477551  0.7042302079383197  1.0000
  H   H188      1.0  0.10416853356346968  0.3743815228338049  0.6734507482747647  1.0000
  H   H189      1.0  0.08926918424511879  0.3204813409772431  0.6760222325189097  1.0000
  H   H190      1.0  0.05798507639330676  0.404221220749511  0.6906134034259144  1.0000
  H   H191      1.0  0.05737364514128346  0.3814928759712531  0.7214032828519722  1.0000
  H   H192      1.0  0.009298254072834652  0.3719482951808587  0.7055104820888942  1.0000
  N   N9        1.0  0.1316310039780624  0.2613307795206038  0.36795006059834484  1.0000
  C   C177      1.0  0.1601828916535545  0.24787043913812362  0.3540908023373184  1.0000
  C   C178      1.0  0.1357715260664316  0.25701500319382464  0.3959127036452249  1.0000
  C   C179      1.0  0.08803386011976279  0.2360508319236983  0.3601494305429107  1.0000
  C   C180      1.0  0.14253108743778936  0.3045662211786306  0.3616230266498061  1.0000
  H   H193      1.0  0.1584692142795607  0.2514941800273423  0.3329418129844571  1.0000
  H   H194      1.0  0.15287809138857852  0.21531503679418004  0.3582252964535797  1.0000
  H   H195      1.0  0.1933804883727914  0.2663537282397675  0.3595211199677388  1.0000
  H   H196      1.0  0.11518339849756681  0.2676224656823337  0.40696894023794367  1.0000
  H   H197      1.0  0.12767778252232564  0.2248080984781939  0.4015406289179111  1.0000
  H   H198      1.0  0.16827209848411384  0.2758704082017503  0.40250681381055475  1.0000
  H   H199      1.0  0.06580176577567771  0.24560185540596055  0.3702576202638869  1.0000
  H   H200      1.0  0.07868317358592043  0.20318680806854963  0.36465772547499514  1.0000
  H   H201      1.0  0.08388026693180303  0.23876493693705106  0.3391575991436846  1.0000
  H   H202      1.0  0.12201849440767781  0.31611237150186344  0.3719071197147353  1.0000
  H   H203      1.0  0.14043679841195197  0.30934473314649197  0.34065319739212335  1.0000
  H   H204      1.0  0.17504758573573564  0.3242619839648944  0.3674226656785385  1.0000
  N   N10       1.0  0.7107221663019083  0.0933407073593766  0.8068873506276077  1.0000
  C   C181      1.0  0.7008119362774773  0.05151676735980337  0.7979330187425864  1.0000
  C   C182      1.0  0.6722877490464083  0.10024234445354874  0.8065493440144861  1.0000
  C   C183      1.0  0.7425704385564974  0.12347483267566117  0.7898854263540138  1.0000
  C   C184      1.0  0.7271425524857655  0.09808286887272333  0.8333055747071842  1.0000
  H   H205      1.0  0.7289566321646995  0.04500754017423514  0.7983001783450562  1.0000
  H   H206      1.0  0.6885414434272684  0.04686900790731863  0.7779950838923907  1.0000
  H   H207      1.0  0.6765623515869342  0.028222056191453015  0.8103909399526551  1.0000
  H   H208      1.0  0.678622887726921  0.13156132561175227  0.8131124597073808  1.0000
  H   H209      1.0  0.6589026794035242  0.09676404946031103  0.7869358077689769  1.0000
  H   H210      1.0  0.6477300505779161  0.07822184800593424  0.8193943290670164  1.0000
  H   H211      1.0  0.7309131020138853  0.12198426627689818  0.7699224750505204  1.0000
  H   H212      1.0  0.7717345699336662  0.11872629447432193  0.7892467328014068  1.0000
  H   H213      1.0  0.7515415663655671  0.15518215795393342  0.7967188896248577  1.0000
  H   H214      1.0  0.7333743858705929  0.12869100155837465  0.8410942097072545  1.0000
  H   H215      1.0  0.7570380366423435  0.09472089428637309  0.8342437281759234  1.0000
  H   H216      1.0  0.7045571575655125  0.07495072175860429  0.8464892255954467  1.0000
  N   N11       1.0  0.5520404508263175  0.03180178181928883  0.018787872371965886  1.0000
  C   C185      1.0  0.5743931378407989  0.04736605102928548  0.9942691255976628  1.0000
  C   C186      1.0  0.5162862544540916  0.9918360717573493  0.014682561031864383  1.0000
  C   C187      1.0  0.5364485113689021  0.061017043632756174  0.028645592991318303  1.0000
  C   C188      1.0  0.5810127729287144  0.027244134571797307  0.03765658921984616  1.0000
  H   H217      1.0  0.5877951954626971  0.0267694493151176  0.9865979572115825  1.0000
  H   H218      1.0  0.6010698216865796  0.07793324645992428  0.9966970204256057  1.0000
  H   H219      1.0  0.5535609589609997  0.051086446239847705  0.9794587454929582  1.0000
  H   H220      1.0  0.4934212355509289  0.9943747089344325  0.0008905746008012194  1.0000
  H   H221      1.0  0.5268014054234272  0.96893619442682  0.007208238198711303  1.0000
  H   H222      1.0  0.4990638682485173  0.9792942593701808  0.03292167725239148  1.0000
  H   H223      1.0  0.5626295685765845  0.0910602821944646  0.03304400642490668  1.0000
  H   H224      1.0  0.5178389790992458  0.049715984675581026  0.04655670688154889  1.0000
  H   H225      1.0  0.5160072379550591  0.0665977778023561  0.014389939679369634  1.0000
  H   H226      1.0  0.6104145056960693  0.05575455857727185  0.03917572516445422  1.0000
  H   H227      1.0  0.5895422505769623  0.0019094022127310595  0.03247269822332899  1.0000
  H   H228      1.0  0.5668295432498226  0.020240645685556613  0.05709377868097687  1.0000
  N   N12       1.0  0.5949383158414078  0.8999747482094026  0.15053873012635785  1.0000
  C   C189      1.0  0.5501459287749108  0.8895546242977121  0.14630271449190815  1.0000
  C   C190      1.0  0.620698102179109  0.9380244490757553  0.1364320108100496  1.0000
  C   C191      1.0  0.6046300823438373  0.8663858077907296  0.1411524365052424  1.0000
  C   C192      1.0  0.6042296183964035  0.9058850565846409  0.17823361432692697  1.0000
  H   H229      1.0  0.5296570609786448  0.8605915114827495  0.15624159090133405  1.0000
  H   H230      1.0  0.5423386317768846  0.885617932072671  0.12556352757834371  1.0000
  H   H231      1.0  0.5416059813703613  0.9142011889207261  0.15314198653589567  1.0000
  H   H232      1.0  0.6547187435457059  0.9472843679905609  0.1394395252692195  1.0000
  H   H233      1.0  0.6149582274212954  0.9343431090950438  0.1154171932783316  1.0000
  H   H234      1.0  0.6132757832649652  0.9637904732798152  0.14240405286444524  1.0000
  H   H235      1.0  0.6383057488959366  0.8732921622052422  0.1435139307144051  1.0000
  H   H236      1.0  0.5973509362850382  0.860693730598845  0.12042409270110785  1.0000
  H   H237      1.0  0.5861177590071228  0.8371482214829162  0.1514573326937089  1.0000
  H   H238      1.0  0.6377616564987375  0.913571566294149  0.18209904240142363  1.0000
  H   H239      1.0  0.5851790761405243  0.8777043239290087  0.18940381024552416  1.0000
  H   H240      1.0  0.5973930566689105  0.9311336595269297  0.18592220091098657  1.0000
  N   N13       1.0  0.7797881011353572  0.602578926644719  0.36173957521888717  1.0000
  C   C193      1.0  0.7790461453256939  0.6049867845469141  0.3900421470067294  1.0000
  C   C194      1.0  0.7626423405828988  0.5593160873487776  0.35395617681687114  1.0000
  C   C195      1.0  0.8233496611800724  0.6238648527952927  0.3524415435675287  1.0000
  C   C196      1.0  0.7540906883429392  0.6219431710189368  0.3504689046351208  1.0000
  H   H241      1.0  0.7466713215917384  0.5889556910690322  0.3977864249915387  1.0000
  H   H242      1.0  0.7918196326309138  0.6371230695011904  0.3967562071202542  1.0000
  H   H243      1.0  0.7975836671263813  0.5900044308689584  0.3991679636558487  1.0000
  H   H244      1.0  0.7619277561501702  0.5560006013107597  0.3327303309212335  1.0000
  H   H245      1.0  0.7809402025981365  0.543410686397792  0.3621837643241392  1.0000
  H   H246      1.0  0.7300929676777448  0.5425188019872323  0.36096820274269276  1.0000
  H   H247      1.0  0.8433948639306033  0.6098049273184065  0.3606314029665965  1.0000
  H   H248      1.0  0.8373274346088693  0.6566414371783126  0.35797050519047463  1.0000
  H   H249      1.0  0.8250050368179007  0.6224058437755702  0.33116589551219217  1.0000
  H   H250      1.0  0.7209981049791678  0.6065262058304436  0.3570736074748035  1.0000
  H   H251      1.0  0.7533032530902872  0.619940961834497  0.32914157253758336  1.0000
  H   H252      1.0  0.7660526597367698  0.6546997332185215  0.35577910254018147  1.0000
  N   N14       1.0  0.4667988562473403  0.6902030628708413  0.0559293735395228  1.0000
  C   C197      1.0  0.4637335225310803  0.6970125227983628  0.028156305605069192  1.0000
  C   C198      1.0  0.5097200266568558  0.695558407221534  0.06214218007314447  1.0000
  C   C199      1.0  0.4367151590913277  0.648337112318712  0.06294137834703797  1.0000
  C   C200      1.0  0.45695382733744483  0.7199766758907999  0.07054893198226876  1.0000
  H   H253      1.0  0.4320076043244512  0.6942023960156015  0.022892129921337885  1.0000
  H   H254      1.0  0.470578627444291  0.6749509639745729  0.016387102132632825  1.0000
  H   H255      1.0  0.48612024311257185  0.7282668345308322  0.02222829773824363  1.0000
  H   H256      1.0  0.5132221235030978  0.6909607908347905  0.08300251441485439  1.0000
  H   H257      1.0  0.518412688345078  0.673695540911939  0.05144895462362997  1.0000
  H   H258      1.0  0.5333135330855178  0.726908782192366  0.0572557869444568  1.0000
  H   H259      1.0  0.4382945606469191  0.6422775689228878  0.08380264061754651  1.0000
  H   H260      1.0  0.4432080445364036  0.6250453196829253  0.05222983732999875  1.0000
  H   H261      1.0  0.4040217283171612  0.6433768728157255  0.05856729536003368  1.0000
  H   H262      1.0  0.4583948673870384  0.715538512955924  0.09160217046457045  1.0000
  H   H263      1.0  0.4252420990413156  0.7177156520191917  0.06584351543715725  1.0000
  H   H264      1.0  0.4794521781527986  0.7517264251098634  0.06589207638662924  1.0000
  N   N15       1.0  0.9245013478293143  0.4132093383908382  0.528640708752952  1.0000
  C   C201      1.0  0.959871845950621  0.41818633498549057  0.511571818516765  1.0000
  C   C202      1.0  0.9398447448717796  0.4235663986202418  0.5551899644834575  1.0000
  C   C203      1.0  0.8924278929959557  0.37053094583802776  0.5278290989329201  1.0000
  C   C204      1.0  0.9055939834028065  0.44060911243685214  0.520018282278094  1.0000
  H   H265      1.0  0.984281591488219  0.4502745544265215  0.5115213604230979  1.0000
  H   H266      1.0  0.9494355552461613  0.41025657238092766  0.49142002175258986  1.0000
  H   H267      1.0  0.9751931438505149  0.3982505708707634  0.5177468354028035  1.0000
  H   H268      1.0  0.9141772329221783  0.42074230416061925  0.5685351781877679  1.0000
  H   H269      1.0  0.9535542514439963  0.4029283728975087  0.5624608424358231  1.0000
  H   H270      1.0  0.9644220938052726  0.4553578113316199  0.5564236223284528  1.0000
  H   H271      1.0  0.8657568431249556  0.36588783303235045  0.5408987905159358  1.0000
  H   H272      1.0  0.9054452988254592  0.34871743512960285  0.5338810185820841  1.0000
  H   H273      1.0  0.8797674115050866  0.36190662265560175  0.5081419964810285  1.0000
  H   H274      1.0  0.8780570588049141  0.4365784483018034  0.532036061650329  1.0000
  H   H275      1.0  0.894961680864011  0.43481073344757043  0.4997508808323232  1.0000
  H   H276      1.0  0.9281371035086963  0.47317752578642575  0.5212058217959792  1.0000
  N   N16       1.0  0.20319136386452186  0.7472029744321  0.8931197349525565  1.0000
  C   C205      1.0  0.18558127915072956  0.7112959215517858  0.8761122430396062  1.0000
  C   C206      1.0  0.16900644583722993  0.7550166009828164  0.904657428153885  1.0000
  C   C207      1.0  0.2305808155262766  0.7833050907483786  0.8779967649079665  1.0000
  C   C208      1.0  0.22788986608106637  0.7394659931032103  0.9136422115195766  1.0000
  H   H277      1.0  0.16398575515882516  0.6835217249640931  0.886668578714978  1.0000
  H   H278      1.0  0.21079892640812778  0.7042982523494103  0.8675690185597216  1.0000
  H   H279      1.0  0.16794475231837208  0.7165983444917084  0.8598483268469737  1.0000
  H   H280      1.0  0.1476585929237105  0.728458810613601  0.9163009419473845  1.0000
  H   H281      1.0  0.1816277123556707  0.7821396609699605  0.9174818224478946  1.0000
  H   H282      1.0  0.14990168069016527  0.7611093150963324  0.8896347047218263  1.0000
  H   H283      1.0  0.21310816140949404  0.7903149700165383  0.8623724972907774  1.0000
  H   H284      1.0  0.25649036717201024  0.7782292348821084  0.8689041856963018  1.0000
  H   H285      1.0  0.24487482126516166  0.810977774660345  0.8902142945062808  1.0000
  H   H286      1.0  0.24303535016305902  0.7666248231332222  0.9262514607529301  1.0000
  H   H287      1.0  0.25331602973380035  0.7324677790188282  0.9055048497129564  1.0000
  H   H288      1.0  0.208077324272634  0.7131298426383172  0.9259611051669302  1.0000
  N   N17       1.0  0.3317410984061756  0.6164762946872926  0.2231900024749369  1.0000
  C   C209      1.0  0.3629734940408277  0.6595731226268919  0.22334539887111035  1.0000
  C   C210      1.0  0.32730016553559943  0.5990315270378622  0.24934218855600643  1.0000
  C   C211      1.0  0.34573506339888405  0.592931911346661  0.20546089711359058  1.0000
  C   C212      1.0  0.29097028916168904  0.6142865415832671  0.2145461419466748  1.0000
  H   H289      1.0  0.36788283380323483  0.6734517434690507  0.20378899938781359  1.0000
  H   H290      1.0  0.394103285045937  0.6623305181912865  0.22987293018856123  1.0000
  H   H291      1.0  0.35344509220969184  0.6784871034442495  0.2363320112431483  1.0000
  H   H292      1.0  0.316482142214459  0.615736499217074  0.2632919527729642  1.0000
  H   H293      1.0  0.30458502059791775  0.5662570047960183  0.24984875066940043  1.0000
  H   H294      1.0  0.3575432042952475  0.6003546810311322  0.256497094857107  1.0000
  H   H295      1.0  0.3232989571184192  0.5600941117778461  0.20499991592755037  1.0000
  H   H296      1.0  0.3763178106680331  0.5940269189297231  0.21146555261131406  1.0000
  H   H297      1.0  0.3499456545512005  0.6054040675234981  0.1855604076036263  1.0000
  H   H298      1.0  0.2668119332851028  0.582100728318613  0.21416314257021332  1.0000
  H   H299      1.0  0.2932717972880193  0.627191293210085  0.19485737820842802  1.0000
  H   H300      1.0  0.2793810384795439  0.6316677316568184  0.2275165001091861  1.0000
  N   N18       1.0  0.2176027906381643  0.4969785766311582  0.4944562266738703  1.0000
  C   C213      1.0  0.22319030042353336  0.5232453981792496  0.5170814552553241  1.0000
  C   C214      1.0  0.22498137763700135  0.5217570023842976  0.47077710122749467  1.0000
  C   C215      1.0  0.17450262603328764  0.4644983047947693  0.4942876621609237  1.0000
  C   C216      1.0  0.24754703027204808  0.47820990325791457  0.4957416029331112  1.0000
  H   H301      1.0  0.21736588307833093  0.5052405061730024  0.5352351881764998  1.0000
  H   H302      1.0  0.20101050449348826  0.5378626421048324  0.5167846951769293  1.0000
  H   H303      1.0  0.25541421857393376  0.5480311830893627  0.5179704670620932  1.0000
  H   H304      1.0  0.25728331749900724  0.5465404435896851  0.47016762284717556  1.0000
  H   H305      1.0  0.22071958948856413  0.5026394447800835  0.4533775622662242  1.0000
  H   H306      1.0  0.2027486164008734  0.5362756476299277  0.4693619392897014  1.0000
  H   H307      1.0  0.169336140498185  0.44334103087969  0.4778706287812019  1.0000
  H   H308      1.0  0.15092220955662872  0.4773709825306125  0.49297655249429057  1.0000
  H   H309      1.0  0.16773368692116172  0.44585575025299  0.5121547417282755  1.0000
  H   H310      1.0  0.2442232699481105  0.45820332123806606  0.4789256379453349  1.0000
  H   H311      1.0  0.24228767406312232  0.45888312510881824  0.5133202457968259  1.0000
  H   H312      1.0  0.28046866784282776  0.501712923549052  0.49612039231792576  1.0000
  N   N19       1.0  0.2934443304865898  0.9874817807842312  0.11526683804343087  1.0000
  C   C217      1.0  0.2700313874369198  0.9695521589873956  0.13910801484185786  1.0000
  C   C218      1.0  0.28054895481105224  0.9561384912580532  0.0949718335235511  1.0000
  C   C219      1.0  0.33874927720015685  0.001972845541321356  0.12004640729570194  1.0000
  C   C220      1.0  0.28448462974265176  0.022211314831071974  0.10700043626030482  1.0000
  H   H313      1.0  0.23570539322902717  0.9583228494750805  0.1361967847679453  1.0000
  H   H314      1.0  0.27912290038025167  0.9924707696064646  0.15481138303974057  1.0000
  H   H315      1.0  0.2761478612795927  0.9433028686411902  0.14588878733045968  1.0000
  H   H316      1.0  0.24654377041897282  0.9442968426133999  0.09078719690028894  1.0000
  H   H317      1.0  0.2976781365173615  0.9686264773241513  0.0767329248618296  1.0000
  H   H318      1.0  0.28756275628983147  0.9298042698340271  0.10035218037827168  1.0000
  H   H319      1.0  0.35732637328873273  0.016254949393907214  0.1025341238407306  1.0000
  H   H320      1.0  0.34688732489942287  0.976363419248697  0.1255032164306405  1.0000
  H   H321      1.0  0.3495815942717788  0.02504875019396917  0.1356229959788033  1.0000
  H   H322      1.0  0.29313581975157077  0.046191825911257825  0.12201312033319346  1.0000
  H   H323      1.0  0.25076422703085793  0.012351990999673948  0.1026013560160843  1.0000
  H   H324      1.0  0.3023693624263708  0.03719661413413441  0.08939554214600706  1.0000
  N   N20       1.0  0.760176539159653  0.2928993484308806  0.6227706424684227  1.0000
  C   C221      1.0  0.7633146902274714  0.3282684271960267  0.6382466458556351  1.0000
  C   C222      1.0  0.7507394854301277  0.25710202893907297  0.6397200069846899  1.0000
  C   C223      1.0  0.8002893075482975  0.30289763356487237  0.6093836141235548  1.0000
  C   C224      1.0  0.7264859647086549  0.28340205039390703  0.6036749944145648  1.0000
  H   H325      1.0  0.7889039653342956  0.33674865373903484  0.6525835028584306  1.0000
  H   H326      1.0  0.7338811821946426  0.3217056158413356  0.6490015462793807  1.0000
  H   H327      1.0  0.7701388292615154  0.355746231329329  0.6260024972717864  1.0000
  H   H328      1.0  0.7211070608748344  0.2489679783809382  0.6506012808217505  1.0000
  H   H329      1.0  0.7481206283547909  0.22983499780167913  0.628683925707784  1.0000
  H   H330      1.0  0.7760361090060796  0.2630391472158769  0.6539883471946895  1.0000
  H   H331      1.0  0.7997080308398465  0.2765045549139725  0.5982056422904392  1.0000
  H   H332      1.0  0.826447295357949  0.311132496699607  0.623312501616612  1.0000
  H   H333      1.0  0.808049697408664  0.3292001953675979  0.5959545389257863  1.0000
  H   H334      1.0  0.7234372247444215  0.2570124600975361  0.5915580901343468  1.0000
  H   H335      1.0  0.7327714128867222  0.3099438046236262  0.5906385749817851  1.0000
  H   H336      1.0  0.6957265430665099  0.2756424062797787  0.6131417020283221  1.0000
  N   N21       1.0  0.9116765975865808  0.47868204015059956  0.7728375640822224  1.0000
  C   C225      1.0  0.9341502264097588  0.4632978423646237  0.7908566643435717  1.0000
  C   C226      1.0  0.9319068602030074  0.4852831283622289  0.7473930909925  1.0000
  C   C227      1.0  0.9130971992878186  0.5177681694438057  0.7822619181921396  1.0000
  C   C228      1.0  0.867640591844132  0.44853332642924776  0.7706088504881985  1.0000
  H   H337      1.0  0.9200803483365275  0.4582646081471023  0.8103858754507974  1.0000
  H   H338      1.0  0.9677232354538962  0.4851731467880871  0.7925838629272485  1.0000
  H   H339      1.0  0.9334520556512277  0.43368310496382156  0.7843160433928026  1.0000
  H   H340      1.0  0.9642232207766992  0.5097579377761711  0.7480272265235889  1.0000
  H   H341      1.0  0.9333058021688833  0.4569732246627077  0.7401467809639259  1.0000
  H   H342      1.0  0.9144509082352545  0.49472388115695254  0.7329359174628187  1.0000
  H   H343      1.0  0.8973100341983727  0.5306051266928399  0.7686643893350115  1.0000
  H   H344      1.0  0.94590945315629  0.5411744712531411  0.7842252420784798  1.0000
  H   H345      1.0  0.8975974959120203  0.5139926291754285  0.801291593126362  1.0000
  H   H346      1.0  0.8499830377481117  0.45942613551304434  0.7571273188366193  1.0000
  H   H347      1.0  0.8513386047034729  0.4421213122446713  0.7894885795129263  1.0000
  H   H348      1.0  0.8654552078254139  0.4191057823446803  0.7628694719380125  1.0000
  N   N22       1.0  0.5540290426596208  0.4681141745296575  0.26136799303282254  1.0000
  C   C229      1.0  0.595636340844048  0.46928866976451783  0.2668068882993868  1.0000
  C   C230      1.0  0.5578771429673001  0.4976970160100772  0.2407685759539176  1.0000
  C   C231      1.0  0.5373175171320617  0.4787842869297103  0.28480394020635474  1.0000
  C   C232      1.0  0.5251861958011155  0.4266943095855039  0.2530229861442765  1.0000
  H   H349      1.0  0.5946275528012903  0.4501412484557883  0.2837787324874177  1.0000
  H   H350      1.0  0.6190435036350739  0.5008590565049837  0.271029737720749  1.0000
  H   H351      1.0  0.6076472351944922  0.4579185890677728  0.25028111167371586  1.0000
  H   H352      1.0  0.5712887974648411  0.491162039835309  0.22293905040985074  1.0000
  H   H353      1.0  0.526938256710056  0.4969314109550277  0.23580260409059814  1.0000
  H   H354      1.0  0.5784507938389578  0.5295012562543663  0.24635782100174483  1.0000
  H   H355      1.0  0.5064544563803822  0.4792185349929174  0.28117581322531543  1.0000
  H   H356      1.0  0.558860498528907  0.509499015417328  0.2918826688551731  1.0000
  H   H357      1.0  0.5334734047152078  0.4565291833513098  0.30058072083996856  1.0000
  H   H358      1.0  0.5374950877038888  0.41708296094039016  0.23582924070091688  1.0000
  H   H359      1.0  0.49396430728160473  0.4250250782831084  0.24777547228921765  1.0000
  H   H360      1.0  0.5205170088808165  0.4036019541143532  0.26832579813067636  1.0000
  N   N23       1.0  0.47919312227536015  0.22286613024021437  0.08477767170511363  1.0000
  C   C233      1.0  0.4936602045225991  0.2675180661331023  0.08201442095637312  1.0000
  C   C234      1.0  0.4698768752750583  0.21113073429247595  0.11206502566713605  1.0000
  C   C235      1.0  0.5121524878749335  0.2109745010077685  0.07563509555190118  1.0000
  C   C236      1.0  0.4409929560516398  0.20176603714076297  0.06936146090809525  1.0000
  H   H361      1.0  0.5009493227188901  0.27740820698605806  0.06163532960589424  1.0000
  H   H362      1.0  0.522428334775326  0.2844437244785925  0.09344639717714731  1.0000
  H   H363      1.0  0.4693613844883379  0.2773619632368886  0.08874313089304486  1.0000
  H   H364      1.0  0.4589680989136084  0.17763332943564392  0.11487403682722941  1.0000
  H   H365      1.0  0.4978753023249254  0.22660784054581606  0.12437900751010589  1.0000
  H   H366      1.0  0.4448639440927837  0.21933561167872462  0.1195621458812639  1.0000
  H   H367      1.0  0.502142532530121  0.17738923101616305  0.07742015233798893  1.0000
  H   H368      1.0  0.5415918080175323  0.22631120201413252  0.08671107480018936  1.0000
  H   H369      1.0  0.5197219086725213  0.2189596385343265  0.05500195050243728  1.0000
  H   H370      1.0  0.4467809053309396  0.20964352263421132  0.048617423302938834  1.0000
  H   H371      1.0  0.41517187374944475  0.20967796708496536  0.07573457882611745  1.0000
  H   H372      1.0  0.4292179147364938  0.16805071020027765  0.07105039387310819  1.0000
  N   N24       1.0  0.44814069849229554  0.04876731971522244  0.9014905873493879  1.0000
  C   C237      1.0  0.41773181567824935  0.013797043283660779  0.8870238286399756  1.0000
  C   C238      1.0  0.4618091473511349  0.08611223399696614  0.8854858318550303  1.0000
  C   C239      1.0  0.484691375181906  0.04081462614016389  0.9083177366898866  1.0000
  C   C240      1.0  0.4281375077256591  0.054305450581179346  0.9251342420411534  1.0000
  H   H373      1.0  0.4313427305390216  0.009897460241788721  0.8686013990595589  1.0000
  H   H374      1.0  0.3891003503160689  0.018114931863203104  0.8823158320695127  1.0000
  H   H375      1.0  0.40765179923018663  0.9846344013888835  0.8980124192276016  1.0000
  H   H376      1.0  0.47851536038542214  0.08362130909554119  0.8679105525869725  1.0000
  H   H377      1.0  0.4347969675365899  0.09227958890449074  0.8793788065688752  1.0000
  H   H378      1.0  0.48362068151683585  0.11340308337643992  0.8960770220494285  1.0000
  H   H379      1.0  0.5077779251061482  0.06634260993466616  0.9197113066154963  1.0000
  H   H380      1.0  0.501277577149368  0.037622767711257096  0.8909167570907796  1.0000
  H   H381      1.0  0.4751976616342716  0.012277966770316683  0.9198296327507621  1.0000
  H   H382      1.0  0.4502172257227466  0.07966578705577941  0.9369926652899928  1.0000
  H   H383      1.0  0.4162551099391312  0.026282739168641725  0.9373272448332353  1.0000
  H   H384      1.0  0.40117729706690247  0.061591994665132016  0.920672204788426  1.0000
