data_image0
_chemical_formula_structural       FeS2FeS2FeSFeS3FeS2FeS2FeSFeS3FeS2FeS2FeSFeS3FeS2FeS2FeSFeS3FeS2FeS2FeSFeS3FeS2FeS2FeSFeS3FeS2FeS2FeSFeS3FeS2FeS2FeSFeS3FeS2FeS2FeSFeS3FeS2FeS2FeSFeS3FeS2FeS2FeSFeS3FeS2FeS2FeSFeS3FeS2FeS2FeSFeS3FeS2FeS2FeSFeS3FeS2FeS2FeSFeS3FeS2FeS2FeSFeS3FeS2FeS2FeSFeS3FeS2FeS2FeSFeS3FeS2FeS2FeSFeS3FeS2FeS2FeSFeS3FeS2FeS2FeSFeS3FeS2FeS2FeSFeS3FeS2FeS2FeSFeS3FeS2FeS2FeSFeS3FeS2FeS2FeSFeS3FeS2FeS2FeSFeS3FeS2FeS2FeSFeS3FeS2FeS2FeSFeS3FeS2FeS2FeSFeS3C6H4C6H4C6H4C6H4C6H4C6H4C6H4C6H4C6H4C6H4C6H4C6H4C6H4C6H4C6H4C6H4C6H4C6H4C6H4C6H4C6H4C6H4C6H4C6H4C6H4C6H4C6H4C6H4C6H4C6H4C6H4C6H4C6H4C6H4C6H4C6H4C6H4C6H4C6H4C6H4C6H4C6H4C6H4C6H4C6H4C6H4C6H4C6H4C6H4C6H4C6H4C6H4C6H4C6H4C6H4C6H4C6H4C6H4NC4H12NC4H12NC4H12NC4H12NC4H12NC4H12NC4H12NC4H12NC4H12NC4H12NC4H12NC4H12NC4H12NC4H12NC4H12NC4H12NC4H12NC4H12NC4H12NC4H12NC4H12NC4H12NC4H12NC4H12NC4H12NC4H12NC4H12NC4H12NC4H12NC4H12NC4H12NC4H12NC4H12NC4H12NC4H12NC4H12NC4H12NC4H12NC4H12NC4H12NC4H12NC4H12NC4H12NC4H12NC4H12NC4H12NC4H12NC4H12NC4H12NC4H12NC4H12NC4H12NC4H12NC4H12NC4H12NC4H12NC4H12NC4H12
_chemical_formula_sum              "Fe116 S232 C580 H928 N58"
_cell_length_a       54.98638305416306
_cell_length_b       54.89187718162126
_cell_length_c       50.2015721330993
_cell_angle_alpha    82.31065774597354
_cell_angle_beta     83.21834133296478
_cell_angle_gamma    82.36438597024718

_space_group_name_H-M_alt    "P 1"
_space_group_IT_number       1

loop_
  _space_group_symop_operation_xyz
  'x, y, z'

loop_
  _atom_site_type_symbol
  _atom_site_label
  _atom_site_symmetry_multiplicity
  _atom_site_fract_x
  _atom_site_fract_y
  _atom_site_fract_z
  _atom_site_occupancy
  Fe  Fe1       1.0  0.11574244248254514  0.12624932506570777  0.13931493232687708  1.0000
  S   S1        1.0  0.09364131540365822  0.1363150293740337  0.17770507631546284  1.0000
  S   S2        1.0  0.09901916699739396  0.11498390373129316  0.10444964921368248  1.0000
  Fe  Fe2       1.0  0.16165478705629402  0.14639418343195176  0.15246781052946448  1.0000
  S   S3        1.0  0.14304199646538565  0.15876262721322737  0.19128900944299668  1.0000
  S   S4        1.0  0.20112053982840544  0.15308945850748606  0.140681574481769  1.0000
  Fe  Fe3       1.0  0.12841766002371746  0.12204018343326666  0.1969431124504083  1.0000
  S   S5        1.0  0.12894391940123337  0.10179181135899068  0.23872847098828395  1.0000
  Fe  Fe4       1.0  0.11040434328589344  0.17184406801178212  0.16826512014703673  1.0000
  S   S6        1.0  0.08837336163437487  0.20917289300483682  0.16913330955240727  1.0000
  S   S7        1.0  0.14927518129998102  0.10846193201489135  0.15946600241385678  1.0000
  S   S8        1.0  0.1304225977406093  0.16293435483822097  0.12875361533141938  1.0000
  Fe  Fe5       1.0  0.986626335155236  0.974929892644227  0.08323698129432278  1.0000
  S   S9        1.0  0.9823021840549573  0.9867316732916813  0.03940676934770838  1.0000
  S   S10       1.0  0.9732192822648978  0.941901440887994  0.10944992564936219  1.0000
  Fe  Fe6       1.0  0.013994967118672985  0.01804626980803211  0.08913984207972347  1.0000
  S   S11       1.0  0.012087543684300206  0.0343166388286903  0.045733783368413765  1.0000
  S   S12       1.0  0.028441769293583677  0.030479931764592592  0.12481749022760105  1.0000
  Fe  Fe7       1.0  0.9730435992070299  0.024971474620377635  0.05166946927326291  1.0000
  S   S13       1.0  0.9415251827252121  0.0525355890167777  0.03798702033591489  1.0000
  Fe  Fe8       1.0  0.0214031098330838  0.9949172795432404  0.03656066309634347  1.0000
  S   S14       1.0  0.046263084160795075  0.983395177370256  0.0004580763073321767  1.0000
  S   S15       1.0  0.9739736919203736  0.012428929622777746  0.09579603249865683  1.0000
  S   S16       1.0  0.026827838603262766  0.9793865549732054  0.0793180789418997  1.0000
  Fe  Fe9       1.0  0.05876982720767618  0.85874492395072  0.9497922220756757  1.0000
  S   S17       1.0  0.09663493316139812  0.840766619708415  0.95814428265329  1.0000
  S   S18       1.0  0.034048239429926214  0.8738090785228356  0.9842823753171268  1.0000
  Fe  Fe10      1.0  0.06544215495177895  0.8466001023727526  0.8919639316707714  1.0000
  S   S19       1.0  0.10385364945274793  0.8283976786632105  0.8953360335816011  1.0000
  S   S20       1.0  0.054174117461887994  0.8450701142995447  0.8508325654622647  1.0000
  Fe  Fe11      1.0  0.0883527501716989  0.8109670009950515  0.9353064439089749  1.0000
  S   S21       1.0  0.09889829328640726  0.7701455049544454  0.9431386578425711  1.0000
  Fe  Fe12      1.0  0.10847941871207098  0.8599353883803939  0.917337154754062  1.0000
  S   S22       1.0  0.14102390840036233  0.8815027432309004  0.9116101365125013  1.0000
  S   S23       1.0  0.04927077384325057  0.8269744507378464  0.9307772572635024  1.0000
  S   S24       1.0  0.07121412953109686  0.880237518666534  0.9103718270500095  1.0000
  Fe  Fe13      1.0  0.8608650360463258  0.8808713230856919  0.10099522876507303  1.0000
  S   S25       1.0  0.8496801692866233  0.8902809490799075  0.14320380651703188  1.0000
  S   S26       1.0  0.8797431366817466  0.9077941821471723  0.07026658721408746  1.0000
  Fe  Fe14      1.0  0.8369806032342018  0.8330982249985168  0.11113392631000563  1.0000
  S   S27       1.0  0.8238250553473639  0.8385484160741296  0.15400137591243734  1.0000
  S   S28       1.0  0.8281491327978519  0.8001925115020954  0.09335450793394476  1.0000
  Fe  Fe15      1.0  0.8135602737869088  0.8779951216763129  0.13768181938939594  1.0000
  S   S29       1.0  0.776031938534639  0.8968188783834811  0.14968872422699905  1.0000
  Fe  Fe16      1.0  0.86125384728682  0.8498837185344585  0.15520303862280826  1.0000
  S   S30       1.0  0.8802260122896182  0.8346388277519119  0.19204350503944978  1.0000
  S   S31       1.0  0.8235799419283405  0.8718421188093672  0.09445178845488891  1.0000
  S   S32       1.0  0.8756227478340977  0.8413518191306796  0.11331271841296806  1.0000
  Fe  Fe17      1.0  0.8406679098772293  0.09130212333389727  0.926193127279986  1.0000
  S   S33       1.0  0.8260220141470556  0.08219672125938378  0.9695084168085175  1.0000
  S   S34       1.0  0.8632837494350476  0.12261787007411715  0.912370009032434  1.0000
  Fe  Fe18      1.0  0.8162814319646663  0.051686687046319714  0.9067269547202605  1.0000
  S   S35       1.0  0.8000850942745406  0.03830565567651657  0.9483617529253423  1.0000
  S   S36       1.0  0.8078826736645816  0.037949855454767124  0.8690660259991602  1.0000
  Fe  Fe19      1.0  0.790759075855077  0.07866817203701652  0.952774168458614  1.0000
  S   S37       1.0  0.7522515823232321  0.09325293176750857  0.9679079990346736  1.0000
  Fe  Fe20      1.0  0.836741713276522  0.04274775490400758  0.9612829352454739  1.0000
  S   S38       1.0  0.8560916995195395  0.012888409704098562  0.9893335600051412  1.0000
  S   S39       1.0  0.8043600518225175  0.09181730502142092  0.9101834773953433  1.0000
  S   S40       1.0  0.8541043861757152  0.05219459112762207  0.9189777352708342  1.0000
  Fe  Fe21      1.0  0.24430642920832907  0.2726690430451134  0.15546099219978526  1.0000
  S   S41       1.0  0.24340751241464842  0.2589717540137726  0.1996311001855784  1.0000
  S   S42       1.0  0.21262639160570684  0.26669175113576987  0.13399020184380203  1.0000
  Fe  Fe22      1.0  0.29169134811905145  0.29578239976840337  0.15446552109825598  1.0000
  S   S43       1.0  0.2945341683422168  0.28416992053467516  0.19855022242001313  1.0000
  S   S44       1.0  0.3196507112912198  0.31722267767559287  0.12840439260778444  1.0000
  Fe  Fe23      1.0  0.28388945226783713  0.24834711927746683  0.19003946241308528  1.0000
  S   S45       1.0  0.3028999144326693  0.2122507273122139  0.20736422804815546  1.0000
  Fe  Fe24      1.0  0.2540083657633588  0.2962457473831238  0.20335675581276286  1.0000
  S   S46       1.0  0.23687449681543052  0.31799511555669513  0.23687904090638998  1.0000
  S   S47       1.0  0.28402344317633127  0.25871608141967956  0.14535869088517064  1.0000
  S   S48       1.0  0.25184510609248634  0.3110263066867455  0.15984326853651168  1.0000
  Fe  Fe25      1.0  0.24385784396005042  0.16329640098699802  0.33903402478874195  1.0000
  S   S49       1.0  0.26381478856652674  0.12606687006705652  0.3319263667330895  1.0000
  S   S50       1.0  0.25990838581481773  0.19923732997600357  0.3296032407851023  1.0000
  Fe  Fe26      1.0  0.19520561379401138  0.14385227031398992  0.35625310698299073  1.0000
  S   S51       1.0  0.21017197046302902  0.10473284915746717  0.35077552659498057  1.0000
  S   S52       1.0  0.15490648434407658  0.15516518765468137  0.3658420588527977  1.0000
  Fe  Fe27      1.0  0.24234317302458658  0.11249531325326295  0.37049845606476994  1.0000
  S   S53       1.0  0.25937798803525314  0.0810367456867122  0.3981435841976378  1.0000
  Fe  Fe28      1.0  0.23037528626293577  0.12110239134431305  0.3127527529196429  1.0000
  S   S54       1.0  0.23477827355966974  0.10490369804205382  0.27357088642061933  1.0000
  S   S55       1.0  0.22542746631572003  0.1503411771087606  0.3798729011245676  1.0000
  S   S56       1.0  0.2123240530967086  0.15964381300307853  0.31611401350446106  1.0000
  Fe  Fe29      1.0  0.062420068309488236  0.31831493239414804  0.3184112357536682  1.0000
  S   S57       1.0  0.10236964207967762  0.3243454326057798  0.31252244206681823  1.0000
  S   S58       1.0  0.03305466312451689  0.34442819611633424  0.3384660282637448  1.0000
  Fe  Fe30      1.0  0.07235180988521424  0.268331904441612  0.2965949053187452  1.0000
  S   S59       1.0  0.11309695360445823  0.26995804944051904  0.28950643753585387  1.0000
  S   S60       1.0  0.05692882754855855  0.23440251721879846  0.2885180829717409  1.0000
  Fe  Fe31      1.0  0.1086660640328076  0.2844995783696306  0.3295828777001814  1.0000
  S   S61       1.0  0.1352757613017439  0.2713211008184113  0.3604209765906836  1.0000
  Fe  Fe32      1.0  0.10256403867998243  0.30947780826583865  0.2731214196309161  1.0000
  S   S62       1.0  0.12185413960446762  0.32500373271794836  0.2341039636184195  1.0000
  S   S63       1.0  0.06877262617116349  0.27937248877163917  0.3384203689898592  1.0000
  S   S64       1.0  0.06186462151432311  0.3069048064694867  0.2771485844467891  1.0000
  Fe  Fe33      1.0  0.41620998041932317  0.46351212426864535  0.15235880897102153  1.0000
  S   S65       1.0  0.43249096610065196  0.4604283779325566  0.10979263663961861  1.0000
  S   S66       1.0  0.42297923426680933  0.49776847348553516  0.1692031132110051  1.0000
  Fe  Fe34      1.0  0.395478587407228  0.4141256510442237  0.15740579031340848  1.0000
  S   S67       1.0  0.41086909908643693  0.40678240556286877  0.11534612267296034  1.0000
  S   S68       1.0  0.3739207390536259  0.3873124555846672  0.18558661891966452  1.0000
  Fe  Fe35      1.0  0.4447283528248461  0.4210458258740423  0.12499153025401909  1.0000
  S   S69       1.0  0.4842895647322803  0.406599650730833  0.11385658359428362  1.0000
  Fe  Fe36      1.0  0.3969936766002324  0.4467574127551583  0.1045869870556822  1.0000
  S   S70       1.0  0.3788579144647027  0.46045526021119204  0.0668938948417827  1.0000
  S   S71       1.0  0.4308263055177239  0.4248472885634457  0.16821014071707474  1.0000
  S   S72       1.0  0.37925675589958036  0.45338006953359306  0.1458513389509049  1.0000
  Fe  Fe37      1.0  0.5762409090807901  0.584761587572468  0.13936526988053918  1.0000
  S   S73       1.0  0.5693750409770617  0.6026685665766438  0.0975928894615552  1.0000
  S   S74       1.0  0.5956109387690951  0.6033117846208247  0.16675649987802008  1.0000
  Fe  Fe38      1.0  0.5488164186224976  0.5408928457080502  0.13521459868360122  1.0000
  S   S75       1.0  0.5394766764443756  0.5555149781113737  0.09338140535090625  1.0000
  S   S76       1.0  0.5379151944127512  0.503126489895962  0.1512601024699643  1.0000
  Fe  Fe39      1.0  0.5785433641299379  0.564186196287599  0.08620462707850694  1.0000
  S   S77       1.0  0.6006719323243215  0.5547208084020127  0.04775021027783328  1.0000
  Fe  Fe40      1.0  0.531268011571848  0.5922350933483084  0.10914776127372713  1.0000
  S   S78       1.0  0.49725160207316  0.6175925204518983  0.09963075212263403  1.0000
  S   S79       1.0  0.5887826365075495  0.5469814493477233  0.1270401843757702  1.0000
  S   S80       1.0  0.5370713377417508  0.5770710434896358  0.1518673774926229  1.0000
  Fe  Fe41      1.0  0.4515811798107644  0.6017899823917522  0.971470362244937  1.0000
  S   S81       1.0  0.44073843544582153  0.5955865941376614  0.9314046118785466  1.0000
  S   S82       1.0  0.48799757329666005  0.6137316157174859  0.97644564640576  1.0000
  Fe  Fe42      1.0  0.4062684091785043  0.5829729179612488  0.0029549760908026213  1.0000
  S   S83       1.0  0.39099396633445005  0.5749740385909159  0.9661283465369026  1.0000
  S   S84       1.0  0.3882887055217572  0.574558460484201  0.04495339954651588  1.0000
  Fe  Fe43      1.0  0.4298892213041849  0.5597559983243987  0.9535015018828488  1.0000
  S   S85       1.0  0.4384657134904895  0.5223294798568436  0.93929477498829  1.0000
  Fe  Fe44      1.0  0.40293997852322755  0.6114286020641465  0.9474868818485016  1.0000
  S   S86       1.0  0.3780256686054892  0.6396526271944031  0.9237610742957953  1.0000
  S   S87       1.0  0.44413794451060795  0.5644572025993284  0.9921524941626295  1.0000
  S   S88       1.0  0.414723469279041  0.6209749863856535  0.9856984305286238  1.0000
  Fe  Fe45      1.0  0.5404949123693236  0.41368895698581903  0.9768992900984544  1.0000
  S   S89       1.0  0.5566534164182232  0.4227595570461102  0.9342763264305284  1.0000
  S   S90       1.0  0.5071730890505524  0.393977031212235  0.9901035368782359  1.0000
  Fe  Fe46      1.0  0.5779462963884625  0.43711091409045655  0.0006818438151622452  1.0000
  S   S91       1.0  0.5982997404319839  0.4486744494576545  0.9606225733780531  1.0000
  S   S92       1.0  0.5850483861196177  0.44394756882413955  0.04184235101550952  1.0000
  Fe  Fe47      1.0  0.5607660912199413  0.45944512038542956  0.9467693986477262  1.0000
  S   S93       1.0  0.5534220846620834  0.4946916576766255  0.9195744174745772  1.0000
  Fe  Fe48      1.0  0.5931837190168731  0.4112504613780937  0.9506285027753231  1.0000
  S   S94       1.0  0.6218234257564028  0.39016118586791276  0.9242170286387851  1.0000
  S   S95       1.0  0.5406509904907306  0.4518551141890839  0.9878631881043958  1.0000
  S   S96       1.0  0.5766267575215032  0.3982943281427512  0.9921829390403539  1.0000
  Fe  Fe49      1.0  0.7040154461778052  0.10699473590743482  0.7642566709651907  1.0000
  S   S97       1.0  0.6973272407242805  0.06865811155132401  0.7821453437711071  1.0000
  S   S98       1.0  0.7385827942720142  0.11228552152669694  0.7368397683257543  1.0000
  Fe  Fe50      1.0  0.6566539391011642  0.13028922484896724  0.7925334701041772  1.0000
  S   S99       1.0  0.6452474219952913  0.09367061464187319  0.8118138635730743  1.0000
  S   S100      1.0  0.6358969173325728  0.1667111993754071  0.8019936121463  1.0000
  Fe  Fe51      1.0  0.6847787371899272  0.08524022096544517  0.8204844170766548  1.0000
  S   S101      1.0  0.6942057271059491  0.07054572686631089  0.862398147343457  1.0000
  Fe  Fe52      1.0  0.6586807261454862  0.08074974057245175  0.7715086362676509  1.0000
  S   S102      1.0  0.6427606968633658  0.05296150584237231  0.7515612805541309  1.0000
  S   S103      1.0  0.695478707753124  0.12261221720364807  0.8036421225882016  1.0000
  S   S104      1.0  0.6662753941182753  0.11836389249063407  0.7511394079711419  1.0000
  Fe  Fe53      1.0  0.6659098651713525  0.20826730187702738  0.9293749952766205  1.0000
  S   S105      1.0  0.6503440819704553  0.24710666118829738  0.9153024029259522  1.0000
  S   S106      1.0  0.6526436554146756  0.1726921027418705  0.9230743639412964  1.0000
  Fe  Fe54      1.0  0.7086433394232159  0.2242287002357564  0.9528995575543165  1.0000
  S   S107      1.0  0.6975059928766103  0.2646364255580579  0.9410198831818459  1.0000
  S   S108      1.0  0.7431912528249045  0.20834454793520552  0.9718668507463496  1.0000
  Fe  Fe55      1.0  0.6592055354628867  0.255594015493765  0.9553969750089811  1.0000
  S   S109      1.0  0.6347110203062217  0.28092311171942347  0.9812795014894525  1.0000
  Fe  Fe56      1.0  0.6897400163930977  0.25306454389570293  0.9020780961012705  1.0000
  S   S110      1.0  0.7011371162812063  0.2726535189034911  0.8613155961061595  1.0000
  S   S111      1.0  0.6709244668795618  0.21611551014646438  0.9709712999537328  1.0000
  S   S112      1.0  0.704608428384136  0.21340084300128365  0.9124107917225961  1.0000
  Fe  Fe57      1.0  0.8426290041850681  0.18863692802466495  0.7766402695500922  1.0000
  S   S113      1.0  0.8057780689456491  0.20196695318371471  0.7969167470594184  1.0000
  S   S114      1.0  0.8559113846748944  0.14845664925781757  0.7871469571821436  1.0000
  Fe  Fe58      1.0  0.8488886671273183  0.23859652566031125  0.7443824700156361  1.0000
  S   S115      1.0  0.8123696114998379  0.25610492658820594  0.7618103527138032  1.0000
  S   S116      1.0  0.8752443513456827  0.260053888375726  0.7155718385892178  1.0000
  Fe  Fe59      1.0  0.8231697003488248  0.23561201149489192  0.8010388083286152  1.0000
  S   S117      1.0  0.8164399424334047  0.25119233659505963  0.8406030408078398  1.0000
  Fe  Fe60      1.0  0.7983579087714889  0.2209032233356367  0.755949848232404  1.0000
  S   S118      1.0  0.760433981762989  0.22090007763685554  0.7437592397636852  1.0000
  S   S119      1.0  0.8609538077923663  0.22076848581541827  0.7844013216745301  1.0000
  S   S120      1.0  0.8339731790941913  0.20487895885411947  0.7348695179956133  1.0000
  Fe  Fe61      1.0  0.06681716291860515  0.7259491182151377  0.7928535230473968  1.0000
  S   S121      1.0  0.10262551163292717  0.7373889575283677  0.7727893367417771  1.0000
  S   S122      1.0  0.058723618605238906  0.7319890398290999  0.8362888845164992  1.0000
  Fe  Fe62      1.0  0.05627344536677981  0.7025272343171313  0.7446472155035974  1.0000
  S   S123      1.0  0.09163000676320505  0.7114727352463309  0.7204763784337849  1.0000
  S   S124      1.0  0.02857625600216382  0.681101102012432  0.7316093298116942  1.0000
  Fe  Fe63      1.0  0.10846064858509762  0.6997343309739497  0.7593661282264444  1.0000
  S   S125      1.0  0.1453647520350719  0.6777574197616109  0.7635736290516958  1.0000
  Fe  Fe64      1.0  0.0823535747280389  0.7483989479091143  0.7361205419419746  1.0000
  S   S126      1.0  0.08654726545585714  0.7825607388892657  0.7067942009301791  1.0000
  S   S127      1.0  0.07399552878609027  0.6872108284952325  0.7821709353613973  1.0000
  S   S128      1.0  0.045494688119677516  0.740488553165309  0.7574707274049539  1.0000
  Fe  Fe65      1.0  0.2230017002438786  0.7072555059583341  0.9149894728490868  1.0000
  S   S129      1.0  0.2108525698965793  0.7044276958572165  0.874867730003024  1.0000
  S   S130      1.0  0.2145824192826295  0.7454309758387263  0.9272007248427258  1.0000
  Fe  Fe66      1.0  0.24532794522804052  0.6536352873190007  0.9217381380961861  1.0000
  S   S131      1.0  0.23473424059341114  0.6461220271154335  0.8819460790396844  1.0000
  S   S132      1.0  0.26628479682626244  0.6228449843263518  0.9469764409742591  1.0000
  Fe  Fe67      1.0  0.24780072815741397  0.6828516140020454  0.8666634980062518  1.0000
  S   S133      1.0  0.27200697037054566  0.692590487106791  0.828792005949789  1.0000
  Fe  Fe68      1.0  0.19880815948436806  0.66841124097171  0.894221117842527  1.0000
  S   S134      1.0  0.16027145796839545  0.6634017397457626  0.8877270217085598  1.0000
  S   S135      1.0  0.2611996495464734  0.6888799070743986  0.9051682516044318  1.0000
  S   S136      1.0  0.2081823061034342  0.67260275172581  0.9355139036719694  1.0000
  Fe  Fe69      1.0  0.2157580505861421  0.8425343890184448  0.786373765983718  1.0000
  S   S137      1.0  0.239165996642428  0.8143941775610868  0.7629932790803949  1.0000
  S   S138      1.0  0.22835002164070592  0.8531896716384991  0.8235713610107863  1.0000
  Fe  Fe70      1.0  0.17618552710910043  0.851178485654397  0.7482988824128171  1.0000
  S   S139      1.0  0.19614436754127937  0.8244622089556819  0.7210840202887698  1.0000
  S   S140      1.0  0.13866833862458058  0.868545886030643  0.7388100508909212  1.0000
  Fe  Fe71      1.0  0.20335772785219605  0.8003380812003174  0.7593818313557883  1.0000
  S   S141      1.0  0.19375678342970687  0.761578588416807  0.7643599045423453  1.0000
  Fe  Fe72      1.0  0.2298403516728726  0.8411528773747237  0.7268725035418795  1.0000
  S   S142      1.0  0.2578842780254298  0.8479988339334031  0.6914619196428851  1.0000
  S   S143      1.0  0.1808196468559565  0.8258210004621988  0.7865029862061935  1.0000
  S   S144      1.0  0.20913273606042335  0.8706951335449766  0.750409378455112  1.0000
  Fe  Fe73      1.0  0.5565142788284582  0.06565059500027906  0.6427972131576732  1.0000
  S   S145      1.0  0.5751021159296443  0.02783137273874958  0.6349503971627497  1.0000
  S   S146      1.0  0.5664847840129459  0.09405473468661048  0.6667777848750125  1.0000
  Fe  Fe74      1.0  0.5165216167472668  0.06481053759084285  0.6067918023122356  1.0000
  S   S147      1.0  0.5310780579624395  0.0273552385095887  0.5952067620306186  1.0000
  S   S148      1.0  0.4820192682668225  0.08606028054843773  0.5921695164765176  1.0000
  Fe  Fe75      1.0  0.5365856084982534  0.017259435796084428  0.6389467806083062  1.0000
  S   S149      1.0  0.5271522405400998  0.979414513817738  0.6567060420376597  1.0000
  Fe  Fe76      1.0  0.5682684471797121  0.040498674658762  0.5918951334652697  1.0000
  S   S150      1.0  0.5979329893849255  0.03393464880909511  0.5581491404165412  1.0000
  S   S151      1.0  0.5186401950127795  0.05375802359853009  0.6510586353672223  1.0000
  S   S152      1.0  0.5531398214191874  0.07914496349409385  0.5991039699963824  1.0000
  Fe  Fe77      1.0  0.37300859114425977  0.04470309051555897  0.5088399792578548  1.0000
  S   S153      1.0  0.39548496471240696  0.07267147512611889  0.484618987374644  1.0000
  S   S154      1.0  0.3478936380029213  0.052329419111945406  0.5458188380831012  1.0000
  Fe  Fe78      1.0  0.39069477607308617  0.005536603875160101  0.47193673674753367  1.0000
  S   S155      1.0  0.4146463697773967  0.0299054443522575  0.44425434008322007  1.0000
  S   S156      1.0  0.3880244997061878  0.9673930358303126  0.46264871927323203  1.0000
  Fe  Fe79      1.0  0.4251540154205198  0.04058583220479322  0.4825756089342572  1.0000
  S   S157      1.0  0.46506711820765745  0.04132501864825142  0.4874074447523838  1.0000
  Fe  Fe80      1.0  0.38265455254892217  0.05937217306633091  0.44884772795399047  1.0000
  S   S158      1.0  0.37023578230462273  0.08694765936364439  0.4143592607975674  1.0000
  S   S159      1.0  0.40379353631884135  0.013536689123046824  0.5100388616637984  1.0000
  S   S160      1.0  0.35763607300210687  0.033944204495582275  0.47352970509959175  1.0000
  Fe  Fe81      1.0  0.5534767005085579  0.9578642090756703  0.4747763244444951  1.0000
  S   S161      1.0  0.5790478350129414  0.9344317804010853  0.5019317842052848  1.0000
  S   S162      1.0  0.5614830495464229  0.9961292792551028  0.4585767007794862  1.0000
  Fe  Fe82      1.0  0.5231029633408417  0.9164541634488617  0.4722969599007053  1.0000
  S   S163      1.0  0.5464205555396838  0.8889365791103294  0.4987893686225069  1.0000
  S   S164      1.0  0.4926601999846038  0.9046625494053098  0.4528865603195338  1.0000
  Fe  Fe83      1.0  0.5447003351356198  0.9204106918386613  0.5235431545864458  1.0000
  S   S165      1.0  0.5352972579745437  0.9191614299500384  0.5683004073822927  1.0000
  Fe  Fe84      1.0  0.5784007525462824  0.9054607308832862  0.47453861973775113  1.0000
  S   S166      1.0  0.6146218186724697  0.88389086652582  0.4612577361213606  1.0000
  S   S167      1.0  0.5190406190143508  0.9466939955583876  0.4989257066485312  1.0000
  S   S168      1.0  0.5551440713297596  0.9303255127077554  0.4457269164298033  1.0000
  Fe  Fe85      1.0  0.4076035434166202  0.9005995304382505  0.6269313644068906  1.0000
  S   S169      1.0  0.3977791878247771  0.9407476936041826  0.6129595689509336  1.0000
  S   S170      1.0  0.43211901973835254  0.878979124346513  0.5976426275231164  1.0000
  Fe  Fe86      1.0  0.37145595235120693  0.9014886337686647  0.6773467691962798  1.0000
  S   S171      1.0  0.3577381628030262  0.9414866386017036  0.6668081540353706  1.0000
  S   S172      1.0  0.3550410813307549  0.8842231311479987  0.7173972160612877  1.0000
  Fe  Fe87      1.0  0.3590268544567868  0.9322389025177447  0.6247052492348132  1.0000
  S   S173      1.0  0.3302513075114349  0.944164324303439  0.5962612321369701  1.0000
  Fe  Fe88      1.0  0.3978684894238095  0.9456479315319121  0.6564330204870358  1.0000
  S   S174      1.0  0.4117256376177637  0.9777134833472932  0.6704349234385613  1.0000
  S   S175      1.0  0.3687343489846673  0.8917568033960831  0.6358942237971172  1.0000
  S   S176      1.0  0.411702455533818  0.9061459010742589  0.6695821909252342  1.0000
  Fe  Fe89      1.0  0.027083803963578193  0.43214334198173904  0.5123107478651  1.0000
  S   S177      1.0  0.9941334156360471  0.45535103050517894  0.49652812806339885  1.0000
  S   S178      1.0  0.03795857315546382  0.4387409849876632  0.5520883922084573  1.0000
  Fe  Fe90      1.0  0.03536026012332691  0.40113994056985913  0.4659861412913259  1.0000
  S   S179      1.0  0.003046032224930699  0.4216449555918391  0.44592339346121573  1.0000
  S   S180      1.0  0.061673691341620776  0.3712690539926178  0.44806878316670357  1.0000
  Fe  Fe91      1.0  0.016417899017794325  0.45566480108081414  0.4561893605536981  1.0000
  S   S181      1.0  0.01809534370895146  0.48722295811998906  0.4227819823583021  1.0000
  Fe  Fe92      1.0  0.983598048762444  0.41951335526499645  0.48771478762797166  1.0000
  S   S182      1.0  0.9436903669338236  0.4142143985258409  0.4965294349331757  1.0000
  S   S183      1.0  0.05062761796048491  0.43547374463831817  0.4726957308894205  1.0000
  S   S184      1.0  0.014729698973769542  0.39596109373724714  0.5072390927535917  1.0000
  Fe  Fe93      1.0  0.9954223608005779  0.5671419009687251  0.6293483042513798  1.0000
  S   S185      1.0  0.034568661331658264  0.5487442697372675  0.6285036458206454  1.0000
  S   S186      1.0  0.9597365304420336  0.5508563053001961  0.6417388057827905  1.0000
  Fe  Fe94      1.0  0.010335164805061687  0.6153609643511971  0.5983576859393525  1.0000
  S   S187      1.0  0.050378583023484635  0.6015401103892979  0.5947337137531166  1.0000
  S   S188      1.0  0.9947734909081977  0.6511470615999978  0.5764710516228435  1.0000
  Fe  Fe95      1.0  0.03867382716613217  0.5663508883430228  0.5854320542735448  1.0000
  S   S189      1.0  0.05418854152878057  0.5505822648076789  0.5471708864174952  1.0000
  Fe  Fe96      1.0  0.04281171801488654  0.5856344182407993  0.638077858751059  1.0000
  S   S190      1.0  0.07000033393547676  0.591575253158707  0.6660145142945169  1.0000
  S   S191      1.0  0.9990419037478866  0.5815451448025631  0.5855796568386017  1.0000
  S   S192      1.0  0.003238396455359589  0.602638299803599  0.6425010947154642  1.0000
  Fe  Fe97      1.0  0.9341453233818721  0.5884665777667436  0.47487852570567946  1.0000
  S   S193      1.0  0.9099447602493055  0.5641159239790842  0.46094521664772864  1.0000
  S   S194      1.0  0.9699823772280568  0.593248438764156  0.44977882558188453  1.0000
  Fe  Fe98      1.0  0.8996726964954777  0.5976450098663801  0.5250122302671646  1.0000
  S   S195      1.0  0.872445216508799  0.5738891403304652  0.515602247705319  1.0000
  S   S196      1.0  0.8946019412644773  0.6128915310071361  0.5647657774869995  1.0000
  Fe  Fe99      1.0  0.9058026511665161  0.5478111247824009  0.5042505768663698  1.0000
  S   S197      1.0  0.9126569630974386  0.506654212115016  0.5142575840153718  1.0000
  Fe  Fe100     1.0  0.8791507216626854  0.5926703709605129  0.4732760899108539  1.0000
  S   S198      1.0  0.8477992871347187  0.6054765145002272  0.44804360934836235  1.0000
  S   S199      1.0  0.9326086367609051  0.5698956233423073  0.5173569357966564  1.0000
  S   S200      1.0  0.9037626332242138  0.6188233566520672  0.48357256575196894  1.0000
  Fe  Fe101     1.0  0.9337956407696147  0.4223917262527013  0.6774431142477626  1.0000
  S   S201      1.0  0.8943141555591599  0.43444501657556944  0.6917349002436037  1.0000
  S   S202      1.0  0.9680109230215312  0.43708676264792784  0.68543909787431  1.0000
  Fe  Fe102     1.0  0.9205377277379544  0.3871618800191259  0.6418641346058913  1.0000
  S   S203      1.0  0.879865518715742  0.3960744737081628  0.6520293517136774  1.0000
  S   S204      1.0  0.9389320282138676  0.3594313579616033  0.6148142351571146  1.0000
  Fe  Fe103     1.0  0.8878210730758631  0.4354743112467429  0.6482784347810073  1.0000
  S   S205      1.0  0.8637420639730258  0.467649255011814  0.6287598529854016  1.0000
  Fe  Fe104     1.0  0.8896145356218561  0.39411308266761375  0.6944448760385933  1.0000
  S   S206      1.0  0.8654453509883667  0.3740855850184941  0.7269834375519817  1.0000
  S   S207      1.0  0.9277365735884932  0.42673857974980145  0.6338170276213253  1.0000
  S   S208      1.0  0.9298247365847692  0.38190022776894333  0.6845281211065272  1.0000
  Fe  Fe105     1.0  0.7025926514306273  0.7527427781445328  0.13250750731606267  1.0000
  S   S209      1.0  0.7124846870538791  0.7398227977986436  0.17447165896709826  1.0000
  S   S210      1.0  0.7146302257691368  0.7886281018688424  0.1116686445604034  1.0000
  Fe  Fe106     1.0  0.6728791529540659  0.7098278073491134  0.13170097085705035  1.0000
  S   S211      1.0  0.6797815752784891  0.6938563019017164  0.17399768963409612  1.0000
  S   S212      1.0  0.6527736174556855  0.6903620967653238  0.10586693493355714  1.0000
  Fe  Fe107     1.0  0.672797262867574  0.7331833140477945  0.18292428573210337  1.0000
  S   S213      1.0  0.6513791033747771  0.745215726361164  0.2206297813302548  1.0000
  Fe  Fe108     1.0  0.7184528309089421  0.7020228972488286  0.16108491382689025  1.0000
  S   S214      1.0  0.7510857502213955  0.6745103972738842  0.17049022005630846  1.0000
  S   S215      1.0  0.6622726341279714  0.7486662664121638  0.14171538284128665  1.0000
  S   S216      1.0  0.7123683415108208  0.7154085192600094  0.11804414523606653  1.0000
  Fe  Fe109     1.0  0.6807164209548671  0.8609475224266946  0.2629261387232285  1.0000
  S   S217      1.0  0.6859579461618296  0.8980107275591727  0.27383189701689625  1.0000
  S   S218      1.0  0.6718673248979178  0.8552992794155508  0.22192789032935067  1.0000
  Fe  Fe110     1.0  0.6974169095077565  0.8336773259294775  0.31541792643838895  1.0000
  S   S219      1.0  0.7046325741319972  0.868113757063417  0.3311296556054599  1.0000
  S   S220      1.0  0.7037435021375662  0.7952860227589835  0.3369059942109851  1.0000
  Fe  Fe111     1.0  0.6688523277916684  0.8843337728278245  0.31489841412731845  1.0000
  S   S221      1.0  0.637803855645321  0.9076940407498384  0.335729808577195  1.0000
  Fe  Fe112     1.0  0.7212168874042788  0.8784602373586675  0.2886374861934696  1.0000
  S   S222      1.0  0.7584458955203527  0.8913461707399201  0.27669241603543737  1.0000
  S   S223      1.0  0.660233257006153  0.8488870221646803  0.30269928085906356  1.0000
  S   S224      1.0  0.7172112088701369  0.8424124831851002  0.274566607373225  1.0000
  Fe  Fe113     1.0  0.8451603535245706  0.7127801071594445  0.259053806115693  1.0000
  S   S225      1.0  0.8080234982507555  0.7291184496037525  0.27586469978774397  1.0000
  S   S226      1.0  0.8563688055728016  0.7243579096773788  0.2151558115549037  1.0000
  Fe  Fe114     1.0  0.8544305942134637  0.6802028190501046  0.3114609322266416  1.0000
  S   S227      1.0  0.8178022826370154  0.693638014281746  0.3327517300645645  1.0000
  S   S228      1.0  0.8839689980273647  0.6546345301492887  0.3317811292130711  1.0000
  Fe  Fe115     1.0  0.803056999961982  0.6903129283332006  0.29373390421745355  1.0000
  S   S229      1.0  0.7656734199976515  0.6787358937979189  0.29209041810732844  1.0000
  Fe  Fe116     1.0  0.8261567968589305  0.7309829775500846  0.3129508489380418  1.0000
  S   S230      1.0  0.8185512533020876  0.7653414169998205  0.33354672262007434  1.0000
  S   S231      1.0  0.8389976013323666  0.6734881015130547  0.274030353184063  1.0000
  S   S232      1.0  0.8639966576436764  0.7181629470224351  0.2946838428529294  1.0000
  C   C1        1.0  0.7354967116567899  0.7872736033456564  0.33845155603356547  1.0000
  C   C2        1.0  0.7449830558152599  0.7624182250307333  0.34398859920802  1.0000
  C   C3        1.0  0.770558068699571  0.7556191639717758  0.34247800709063114  1.0000
  C   C4        1.0  0.7865998292349058  0.7738265010755582  0.33694769934924895  1.0000
  C   C5        1.0  0.7770537493487036  0.7988078104662055  0.3327641262428261  1.0000
  C   C6        1.0  0.751537719539976  0.8054901654966281  0.33288146690098547  1.0000
  H   H1        1.0  0.7326160656181442  0.7483093231290515  0.34865149130652817  1.0000
  H   H2        1.0  0.7778278688576541  0.7362853895406477  0.3458318225283282  1.0000
  H   H3        1.0  0.7893645921815193  0.8129786204487531  0.3288157017695697  1.0000
  H   H4        1.0  0.7443394762342923  0.8247687943699132  0.32882124599773316  1.0000
  C   C7        1.0  0.7546186958340012  0.6727020575777852  0.20492141635059324  1.0000
  C   C8        1.0  0.7342988282588866  0.6785445477808745  0.22346028501682855  1.0000
  C   C9        1.0  0.7375869448350842  0.6785318176188077  0.2507443478758035  1.0000
  C   C10       1.0  0.7613333722370298  0.6742587984265976  0.2591366469916071  1.0000
  C   C11       1.0  0.7815247111591822  0.66798205378623  0.24065464012129092  1.0000
  C   C12       1.0  0.7780806194966928  0.6665238285747954  0.21373940765958346  1.0000
  H   H5        1.0  0.7160440286217749  0.6829607594105598  0.21685924717992144  1.0000
  H   H6        1.0  0.7218286356217365  0.6825559655096602  0.26518158596413155  1.0000
  H   H7        1.0  0.7997863214396871  0.6639445470721533  0.24713415143538656  1.0000
  H   H8        1.0  0.7937582772839444  0.6613006924616619  0.19967072732591687  1.0000
  C   C13       1.0  0.6547728973545867  0.7765059880486315  0.22065748305357064  1.0000
  C   C14       1.0  0.6653456531393896  0.789759235916308  0.19741103941450358  1.0000
  C   C15       1.0  0.6700493686558351  0.8141018268922993  0.19784474059571458  1.0000
  C   C16       1.0  0.664707620546364  0.8251810145510348  0.2216589898125541  1.0000
  C   C17       1.0  0.6542596311491045  0.8119219150321371  0.2450310652850032  1.0000
  C   C18       1.0  0.6490496448402547  0.7876580843398722  0.24446782229409622  1.0000
  H   H9        1.0  0.6699902863351062  0.7813124334103033  0.17899736458586357  1.0000
  H   H10       1.0  0.6782226429362975  0.8241159768251419  0.17980462814493736  1.0000
  H   H11       1.0  0.6497248212690112  0.8204889387747848  0.26336205463789697  1.0000
  H   H12       1.0  0.6409469223375291  0.777425233511289  0.2625197100204514  1.0000
  C   C19       1.0  0.8581325586051124  0.6170549354206926  0.41497697739407885  1.0000
  C   C20       1.0  0.8832028543752958  0.6189603461644193  0.40755216742449185  1.0000
  C   C21       1.0  0.8910846104470288  0.6297808566913423  0.38158533408756945  1.0000
  C   C22       1.0  0.8739252052243903  0.6389061287690098  0.3630744045958333  1.0000
  C   C23       1.0  0.8489295977188224  0.6365034059555429  0.37027834650307717  1.0000
  C   C24       1.0  0.8410420625095525  0.6255621825583776  0.39621978140325204  1.0000
  H   H13       1.0  0.8965081673228783  0.6124026540094003  0.42190465790096365  1.0000
  H   H14       1.0  0.9104619247290439  0.6314870251455387  0.3760071241161985  1.0000
  H   H15       1.0  0.8356747804585452  0.6429989165084052  0.35587263844833866  1.0000
  H   H16       1.0  0.821661637298975  0.6239224172536874  0.4018568984830208  1.0000
  C   C25       1.0  0.8967266668454112  0.49480728036525584  0.5443977233825618  1.0000
  C   C26       1.0  0.904825316723683  0.471140322147284  0.5564429367578255  1.0000
  C   C27       1.0  0.8940838693220244  0.4622704976065098  0.5819695869357346  1.0000
  C   C28       1.0  0.8750297833266971  0.476923702339384  0.5953384961554427  1.0000
  C   C29       1.0  0.8657877579533015  0.4998931013097577  0.5824319063758036  1.0000
  C   C30       1.0  0.8769197028295124  0.5090542278116875  0.5571601624046731  1.0000
  H   H17       1.0  0.9196970396201699  0.4598001904019053  0.5462231483643913  1.0000
  H   H18       1.0  0.9003474525472338  0.44399843742215556  0.5910974779438967  1.0000
  H   H19       1.0  0.8502190694145935  0.5106790206028345  0.5921498849461204  1.0000
  H   H20       1.0  0.8700357680977717  0.5269723854435278  0.5475031052426315  1.0000
  C   C31       1.0  0.9624547007961087  0.5195212811597236  0.6549839707559847  1.0000
  C   C32       1.0  0.9419966819609222  0.5066044097168412  0.6563201026695524  1.0000
  C   C33       1.0  0.943725470635479  0.4813000337866297  0.6656221825510922  1.0000
  C   C34       1.0  0.9658803103886415  0.46884459265395306  0.6740632652189953  1.0000
  C   C35       1.0  0.9864359454218166  0.48171512453853016  0.672736498921491  1.0000
  C   C36       1.0  0.9847610238261327  0.5070589214064622  0.6630671739081058  1.0000
  H   H21       1.0  0.9248587287881175  0.5161200481310705  0.6499172530823965  1.0000
  H   H22       1.0  0.9277957224908844  0.471517482597234  0.6665188535802767  1.0000
  H   H23       1.0  0.003611804387680143  0.47213056003408804  0.6792615287425524  1.0000
  H   H24       1.0  0.0006037758866271163  0.5169569743388993  0.6622313770089457  1.0000
  C   C37       1.0  0.9648548737339083  0.6449911557114706  0.5737613519497919  1.0000
  C   C38       1.0  0.9552719965342343  0.6489058716506301  0.5487384439288246  1.0000
  C   C39       1.0  0.9334330268448917  0.6392776167956136  0.5458522985672305  1.0000
  C   C40       1.0  0.9206847132185374  0.6268320693072207  0.5683029746690181  1.0000
  C   C41       1.0  0.9296096184309558  0.6243105799051832  0.5935792380360938  1.0000
  C   C42       1.0  0.9519548665744277  0.6327994729861197  0.5961510761733715  1.0000
  H   H25       1.0  0.9652474134161279  0.6582872404410984  0.531389464924642  1.0000
  H   H26       1.0  0.9264844051519101  0.641400413494424  0.5263030438004795  1.0000
  H   H27       1.0  0.9199690601858456  0.6147822580107345  0.611004017511812  1.0000
  H   H28       1.0  0.9594423324113709  0.6292762815925608  0.61543470195677  1.0000
  C   C43       1.0  0.04492482825778375  0.46912476876929704  0.5502886007740247  1.0000
  C   C44       1.0  0.04858068690618989  0.4785591475630556  0.5738700963139862  1.0000
  C   C45       1.0  0.051490979974320304  0.503649801676778  0.5730614652931122  1.0000
  C   C46       1.0  0.05175894619028012  0.5190077954362592  0.548477630497228  1.0000
  C   C47       1.0  0.049258829474722605  0.5092800049982648  0.5246968426018669  1.0000
  C   C48       1.0  0.04543918699997423  0.48443285695838323  0.5256670060399672  1.0000
  H   H29       1.0  0.04848101399929031  0.46668352558210535  0.5928958435507301  1.0000
  H   H30       1.0  0.05387925652140534  0.5110131956225433  0.5913742879049401  1.0000
  H   H31       1.0  0.0495701184686168  0.5211035066298569  0.5056201245873535  1.0000
  H   H32       1.0  0.04277371886534466  0.4772298792409417  0.5073554285170933  1.0000
  C   C49       1.0  0.006031718334754034  0.5167413562590059  0.43143322475884305  1.0000
  C   C50       1.0  0.008635843730968044  0.5374524984282528  0.41223288931401586  1.0000
  C   C51       1.0  0.9981455841249096  0.5610734866338929  0.41818619329036577  1.0000
  C   C52       1.0  0.9843647919609987  0.5639318019236256  0.4430448326071415  1.0000
  C   C53       1.0  0.9819173080828829  0.5432798724875089  0.4623520274182337  1.0000
  C   C54       1.0  0.9931596389629624  0.5197974155731663  0.45674185500857284  1.0000
  H   H33       1.0  0.01866350917459725  0.5352529524295765  0.3926568910799769  1.0000
  H   H34       1.0  5.79640369586798e-05  0.5770059184383936  0.40320228666043567  1.0000
  H   H35       1.0  0.9715168198796037  0.545411064867429  0.48168001712791725  1.0000
  H   H36       1.0  0.99152192596359  0.5041111215959359  0.4718895795395744  1.0000
  C   C55       1.0  0.9401095552395449  0.3967972477135912  0.5283245009891746  1.0000
  C   C56       1.0  0.9211375281867772  0.4042931967734811  0.5477033274684411  1.0000
  C   C57       1.0  0.9203928676152812  0.3924652892396639  0.5742959203290167  1.0000
  C   C58       1.0  0.9381059119608727  0.37258535489439354  0.5811846374362436  1.0000
  C   C59       1.0  0.9560811484882702  0.36404001449675205  0.5614016577117412  1.0000
  C   C60       1.0  0.9572864148922723  0.376371290095528  0.5350663708179519  1.0000
  H   H37       1.0  0.9075366474385469  0.41976930833937215  0.5423875731432252  1.0000
  H   H38       1.0  0.9062238604460597  0.39887402043874026  0.5894613344458107  1.0000
  H   H39       1.0  0.969625018950943  0.3484707190348555  0.5666158211925979  1.0000
  H   H40       1.0  0.9714990001890913  0.37004818134089507  0.5199176171725055  1.0000
  C   C61       1.0  0.6209364074397817  0.8869736696347834  0.4260545853636249  1.0000
  C   C62       1.0  0.6453524820939535  0.8835838124859532  0.41430091953032216  1.0000
  C   C63       1.0  0.6507176661567676  0.8890796549808703  0.3862584875687991  1.0000
  C   C64       1.0  0.6316473033299885  0.8982645379685663  0.3701677143914912  1.0000
  C   C65       1.0  0.6072265712437858  0.9007064420211313  0.38182155935015427  1.0000
  C   C66       1.0  0.6018666015783297  0.8945088816648891  0.4096342402305314  1.0000
  H   H41       1.0  0.6601684242942648  0.8775345750378163  0.4269584989656486  1.0000
  H   H42       1.0  0.6696353235447015  0.8872304231867237  0.3772646882521421  1.0000
  H   H43       1.0  0.5924059224884959  0.9072780249984823  0.3692805700154056  1.0000
  H   H44       1.0  0.5829432961251542  0.8954709348923638  0.4182910450409255  1.0000
  C   C67       1.0  0.5068923664713433  0.9075197572547672  0.5770564037869441  1.0000
  C   C68       1.0  0.4936316376866129  0.9106634367835283  0.6021972525393687  1.0000
  C   C69       1.0  0.47030748017625096  0.9023908062538267  0.6085143401044587  1.0000
  C   C70       1.0  0.4607871942917285  0.8901041432272923  0.5900853002153411  1.0000
  C   C71       1.0  0.47412609109774234  0.8868551077477457  0.5651066946088354  1.0000
  C   C72       1.0  0.49690807994345776  0.8959615227975688  0.5584216080987957  1.0000
  H   H45       1.0  0.5013027576366772  0.9195486543514113  0.6167128400286209  1.0000
  H   H46       1.0  0.4600356164372093  0.9048705458842468  0.6278921102362394  1.0000
  H   H47       1.0  0.46684587451931053  0.8773366696616802  0.5508243870109044  1.0000
  H   H48       1.0  0.50683719338127  0.8936232790876393  0.5389433225849857  1.0000
  C   C73       1.0  0.41742797376198393  0.9508223644688575  0.45913768299863345  1.0000
  C   C74       1.0  0.43746870505380125  0.9592185871423448  0.4684401270092827  1.0000
  C   C75       1.0  0.4606613803202152  0.945034348877215  0.4668250903252409  1.0000
  C   C76       1.0  0.46390286799873326  0.9227066289244331  0.4555556203158975  1.0000
  C   C77       1.0  0.4438864474631145  0.9145450332432402  0.4460092540295291  1.0000
  C   C78       1.0  0.42065955531273963  0.9285166084477715  0.4479028576826374  1.0000
  H   H49       1.0  0.43503161713545324  0.9764220302088239  0.4772132213422334  1.0000
  H   H50       1.0  0.47594467065770346  0.9513498641176494  0.4742793009305029  1.0000
  H   H51       1.0  0.4463496371359403  0.8973164284832685  0.43719867765769005  1.0000
  H   H52       1.0  0.40521484310825717  0.9220453574996604  0.4405802677434049  1.0000
  C   C79       1.0  0.3406622380247295  0.023268630523624056  0.5610543472787974  1.0000
  C   C80       1.0  0.3297369661854586  0.008274543911732941  0.5466003265278605  1.0000
  C   C81       1.0  0.3253995390352081  0.9843355448945867  0.5580488603604801  1.0000
  C   C82       1.0  0.3329864274091754  0.9750166030320422  0.5834359739581205  1.0000
  C   C83       1.0  0.3440008235387949  0.9899472106734853  0.5978630300091397  1.0000
  C   C84       1.0  0.3474901171230904  0.014229064774086229  0.5868332245805556  1.0000
  H   H53       1.0  0.3247549060829688  0.015047476038554934  0.5265136512206676  1.0000
  H   H54       1.0  0.3169989632946915  0.9727725002334963  0.5467995079510711  1.0000
  H   H55       1.0  0.3499874625153275  0.9828067989078193  0.6174624478421539  1.0000
  H   H56       1.0  0.35628066386393564  0.025682441316017803  0.597853966878716  1.0000
  C   C85       1.0  0.4773407698163108  0.07578193392872239  0.5617486819727616  1.0000
  C   C86       1.0  0.4534047223639371  0.07660694167020836  0.5544890513734028  1.0000
  C   C87       1.0  0.449507061184609  0.06651264513473225  0.5312963506710047  1.0000
  C   C88       1.0  0.46959216277966465  0.0559732282273767  0.5151129016007201  1.0000
  C   C89       1.0  0.49356604963473755  0.05586652801238837  0.521919713182658  1.0000
  C   C90       1.0  0.4974246374103394  0.06559006931156011  0.5453099473943007  1.0000
  H   H57       1.0  0.4378226209642795  0.08441220813868121  0.5671971664045112  1.0000
  H   H58       1.0  0.4309365435013581  0.0665628645898838  0.5262467229620704  1.0000
  H   H59       1.0  0.509186744405941  0.04787616528214109  0.5093746216253986  1.0000
  H   H60       1.0  0.5160047818557993  0.06535578142164636  0.5504843370118363  1.0000
  C   C91       1.0  0.44382694542716017  0.9776247245621382  0.6660156913825582  1.0000
  C   C92       1.0  0.45974150583257944  0.9556554904594755  0.663984968018328  1.0000
  C   C93       1.0  0.48540631756746794  0.9561136708415223  0.6617684885927904  1.0000
  C   C94       1.0  0.495115547891298  0.9786181524725123  0.6606942777537355  1.0000
  C   C95       1.0  0.4791302963647789  0.0005201737339351008  0.6621329246309248  1.0000
  C   C96       1.0  0.45357636071493174  0.9999840741344042  0.6651806759738847  1.0000
  H   H61       1.0  0.45237435558441064  0.9383196331810255  0.6643557306000816  1.0000
  H   H62       1.0  0.4977214578111045  0.9391164028799023  0.6605307946975403  1.0000
  H   H63       1.0  0.48636686490885483  0.01789730383986971  0.6614547219853172  1.0000
  H   H64       1.0  0.44133959000825235  0.017010681503003507  0.6667317547517188  1.0000
  C   C97       1.0  0.5862658412989655  0.02507360944450113  0.5304056326899818  1.0000
  C   C98       1.0  0.595639639426684  0.03351401810333557  0.5041352170072149  1.0000
  C   C99       1.0  0.586996486046216  0.02570694134544263  0.48186691123777387  1.0000
  C   C100      1.0  0.5697337109928713  0.0086832980074933  0.4859694338627546  1.0000
  C   C101      1.0  0.5604810216626405  0.00013406755876910258  0.5122161084470839  1.0000
  C   C102      1.0  0.5683937639850309  0.00870934037293014  0.534393497605859  1.0000
  H   H65       1.0  0.6094399940390465  0.046232816904447256  0.5010439053958169  1.0000
  H   H66       1.0  0.5942124303973924  0.032312158603609184  0.4615825735713888  1.0000
  H   H67       1.0  0.5472953627016628  0.9868421862629774  0.5154050864097782  1.0000
  H   H68       1.0  0.5612768758113202  0.0020937287804713212  0.5545773344719188  1.0000
  C   C103      1.0  0.28603604831606133  0.853439861420997  0.7012430130164109  1.0000
  C   C104      1.0  0.3068325282403418  0.8527106459122763  0.6823484484213697  1.0000
  C   C105      1.0  0.32848481724033307  0.8608614868307088  0.6880369216024578  1.0000
  C   C106      1.0  0.3294243219524391  0.8699794786896089  0.7125139173230813  1.0000
  C   C107      1.0  0.30909308558253035  0.8693630098685198  0.7321541211993443  1.0000
  C   C108      1.0  0.2873554624340041  0.8610221848797865  0.7265418303834917  1.0000
  H   H69       1.0  0.3060534070331239  0.8462957173488843  0.6630319635324065  1.0000
  H   H70       1.0  0.34450078993976285  0.8599547651727114  0.6734746551651604  1.0000
  H   H71       1.0  0.3097931749338013  0.8762076303183245  0.7512489727575002  1.0000
  H   H72       1.0  0.2713146794416523  0.8615552890713265  0.7412756323408076  1.0000
  C   C109      1.0  0.2519236381567413  0.7091799367257479  0.806601021719817  1.0000
  C   C110      1.0  0.25883613522166704  0.7301122541273032  0.7898662307163227  1.0000
  C   C111      1.0  0.24117799211206856  0.7458350207631969  0.7757605511439206  1.0000
  C   C112      1.0  0.21682843670192706  0.7403746654931509  0.7782088540732026  1.0000
  C   C113      1.0  0.21044439690091352  0.7184675791380487  0.7933253489974511  1.0000
  C   C114      1.0  0.22793783969367515  0.7030187555592172  0.807785956349849  1.0000
  H   H73       1.0  0.2774855850443553  0.734742183284028  0.7887032701958219  1.0000
  H   H74       1.0  0.24638188663332186  0.7622419843582948  0.7632120003763537  1.0000
  H   H75       1.0  0.19179480759605655  0.7138130796384485  0.7946337663866572  1.0000
  H   H76       1.0  0.2227454130837224  0.6865126238123882  0.8202539206106959  1.0000
  C   C115      1.0  0.1501447771466165  0.6742834637924726  0.7979401170986276  1.0000
  C   C116      1.0  0.13062558743381453  0.6809345036957314  0.8171061476750809  1.0000
  C   C117      1.0  0.1337991686984525  0.6771603451750589  0.8446349877232009  1.0000
  C   C118      1.0  0.15676906613399005  0.667523247242988  0.8531573317594917  1.0000
  C   C119      1.0  0.17661192842425505  0.6615593898781836  0.83405460126609  1.0000
  C   C120      1.0  0.17320276988478964  0.6646026227046422  0.8064343656313597  1.0000
  H   H77       1.0  0.11296550772547209  0.6889555240613111  0.8109037763659175  1.0000
  H   H78       1.0  0.11850161898997234  0.6819660190713532  0.8592802925821753  1.0000
  H   H79       1.0  0.19443728315896194  0.6541062310282999  0.8406018165765876  1.0000
  H   H80       1.0  0.18847191932230567  0.6596621013535646  0.7917135499866854  1.0000
  C   C121      1.0  0.09872350134301089  0.806706516547982  0.7185032123037526  1.0000
  C   C122      1.0  0.09425656841983714  0.8307916334239295  0.7054162644952303  1.0000
  C   C123      1.0  0.10566451708275933  0.8500144217914255  0.7125776547620221  1.0000
  C   C124      1.0  0.12232044108202758  0.845023124820329  0.7321411335902759  1.0000
  C   C125      1.0  0.12667727282388896  0.8209681089842763  0.7454211603134376  1.0000
  C   C126      1.0  0.11450922394523949  0.8019429870715105  0.7390083096172306  1.0000
  H   H81       1.0  0.08211558714510755  0.8345616213050906  0.6895069208698018  1.0000
  H   H82       1.0  0.10229602978652673  0.8685391325536325  0.7021925715179752  1.0000
  H   H83       1.0  0.13955071887771106  0.8169022778467484  0.7604820100887913  1.0000
  H   H84       1.0  0.11828766531810476  0.7834522080196586  0.7490632405388081  1.0000
  C   C127      1.0  0.04067824305108447  0.65602282938651  0.7139399758742578  1.0000
  C   C128      1.0  0.06413867319570624  0.6552013229668778  0.6996666627586647  1.0000
  C   C129      1.0  0.07312298905856345  0.6352787714350407  0.6849796323113133  1.0000
  C   C130      1.0  0.058655278914871524  0.6162189296291843  0.6845292514937272  1.0000
  C   C131      1.0  0.03522656440954471  0.6170115700186901  0.6988528060225927  1.0000
  C   C132      1.0  0.026228953023682073  0.6369394797176735  0.7134827527486041  1.0000
  H   H85       1.0  0.07516955660664244  0.6700879815385212  0.699518725192889  1.0000
  H   H86       1.0  0.09111631300691204  0.6347964919849102  0.6735578265434962  1.0000
  H   H87       1.0  0.024073918757664178  0.6022023512701068  0.6987042754994192  1.0000
  H   H88       1.0  0.008056158360499973  0.6375206895643513  0.7245219993568108  1.0000
  C   C133      1.0  0.8723824404886514  0.2915948399507601  0.719448303922226  1.0000
  C   C134      1.0  0.8931787470926112  0.30431074146518133  0.713750223535487  1.0000
  C   C135      1.0  0.8910294704116736  0.32980230103706376  0.7154379802427098  1.0000
  C   C136      1.0  0.8681084546858253  0.3425931447656346  0.7231559027435707  1.0000
  C   C137      1.0  0.8473170098656879  0.3299006416142768  0.7289492284883479  1.0000
  C   C138      1.0  0.8494201646913259  0.3044715968326564  0.7268959612075977  1.0000
  H   H89       1.0  0.9110252194400825  0.2943906322595873  0.7081749070363852  1.0000
  H   H90       1.0  0.9072432389223124  0.3393799554519868  0.7114937489846346  1.0000
  H   H91       1.0  0.8294984311746575  0.3398407416610408  0.7345940899928134  1.0000
  H   H92       1.0  0.8331245888763233  0.29508170776516013  0.7302138195379635  1.0000
  C   C139      1.0  0.7333645374262603  0.2699311851834762  0.8560680664918897  1.0000
  C   C140      1.0  0.7449684097565786  0.2733662318490721  0.8297683052224764  1.0000
  C   C141      1.0  0.7705915576945314  0.2680601905867965  0.8250027957490851  1.0000
  C   C142      1.0  0.7847976109780452  0.26060197746276287  0.846620969613666  1.0000
  C   C143      1.0  0.7734104904055749  0.2591504894671215  0.8730756626690539  1.0000
  C   C144      1.0  0.7476161769654275  0.26305167738005164  0.8777944081422264  1.0000
  H   H93       1.0  0.7341326734169946  0.27959282200409047  0.8129846868434689  1.0000
  H   H94       1.0  0.7792332696788993  0.2699532470812037  0.8045770055737059  1.0000
  H   H95       1.0  0.7844534476555798  0.2543423260778938  0.8898603040890275  1.0000
  H   H96       1.0  0.7387989374507384  0.26087448450846656  0.8982332442624497  1.0000
  C   C145      1.0  0.6382642207009973  0.16869463831219386  0.8361829099318402  1.0000
  C   C146      1.0  0.6328755118909739  0.19138290054753473  0.8468352228211399  1.0000
  C   C147      1.0  0.6373100235777746  0.1929640931603101  0.8735766810186446  1.0000
  C   C148      1.0  0.6466013257088622  0.17173290912157255  0.8897142556636103  1.0000
  C   C149      1.0  0.6514709293862088  0.1491660408025596  0.879064967653821  1.0000
  C   C150      1.0  0.6475556179447917  0.14768271021204088  0.8524165679518452  1.0000
  H   H97       1.0  0.6256975298159079  0.20774206037849724  0.834319767743178  1.0000
  H   H98       1.0  0.6332849582231082  0.21046786241114318  0.8817707997522242  1.0000
  H   H99       1.0  0.6587706214488057  0.13278948370380822  0.8911297040233003  1.0000
  H   H100      1.0  0.6518085410000114  0.13013064559304757  0.8445200636768622  1.0000
  C   C151      1.0  0.7448901877953429  0.14282715209031177  0.7361416423541609  1.0000
  C   C152      1.0  0.7692650983828287  0.14782388479960612  0.7355814807713154  1.0000
  C   C153      1.0  0.7742144331191134  0.17184809763941053  0.7377789058051034  1.0000
  C   C154      1.0  0.7548969097295536  0.19112649250394947  0.7390910185954142  1.0000
  C   C155      1.0  0.730666737649764  0.18633393691572914  0.7382165550628661  1.0000
  C   C156      1.0  0.7255614885311692  0.1620726437519016  0.7375899197995252  1.0000
  H   H101      1.0  0.7842951816609581  0.13304941833346398  0.7341127399007051  1.0000
  H   H102      1.0  0.7929863030378419  0.17544581330875272  0.7382378899586299  1.0000
  H   H103      1.0  0.7157981868805993  0.20135337816892918  0.7385131093364656  1.0000
  H   H104      1.0  0.7066999991380303  0.15833106246727585  0.7378169141319869  1.0000
  C   C157      1.0  0.6208022395007439  0.06462714490577962  0.7289528566863609  1.0000
  C   C158      1.0  0.6126530915871888  0.08994305366027744  0.724724976481801  1.0000
  C   C159      1.0  0.5959048472304179  0.0988664458129009  0.7056091393933251  1.0000
  C   C160      1.0  0.5872667556257525  0.08250353517012743  0.6907479213596747  1.0000
  C   C161      1.0  0.595337409280362  0.05719181859379402  0.6951075721454901  1.0000
  C   C162      1.0  0.6120843280790851  0.048280114145939426  0.7141746772325676  1.0000
  H   H105      1.0  0.6190999765336589  0.10262682184342813  0.7362765471100758  1.0000
  H   H106      1.0  0.5895909349255629  0.11845618591852522  0.7024074024963872  1.0000
  H   H107      1.0  0.5885372234981094  0.04444067398812399  0.6839844380026  1.0000
  H   H108      1.0  0.618249162574629  0.02866243995652828  0.7175331445706575  1.0000
  C   C163      1.0  0.6292157223949012  0.3601503312797839  0.9402379076955786  1.0000
  C   C164      1.0  0.625803245293909  0.3554065959451978  0.9684039845710637  1.0000
  C   C165      1.0  0.6283523639932181  0.3310142396550553  0.9810658541409677  1.0000
  C   C166      1.0  0.6349149921530793  0.3113519089065312  0.9656000568924035  1.0000
  C   C167      1.0  0.6396821061525835  0.31613491920215536  0.9375088768534315  1.0000
  C   C168      1.0  0.6367428327988764  0.34056002655521567  0.9248054311194769  1.0000
  H   H109      1.0  0.6214103195360098  0.37052091705251183  0.9804805849782717  1.0000
  H   H110      1.0  0.6252652975845523  0.32734369812981634  0.0028432982015393904  1.0000
  H   H111      1.0  0.6448908882474974  0.30098892452669007  0.9254707767280639  1.0000
  H   H112      1.0  0.6396369377742045  0.3441386630114489  0.9030114641993011  1.0000
  C   C169      1.0  0.2974613455888756  0.6271569048450094  0.9430929939668027  1.0000
  C   C170      1.0  0.3044483538490647  0.6508251423668456  0.9422672586759182  1.0000
  C   C171      1.0  0.3293322346499344  0.6545344817470657  0.9368481684123552  1.0000
  C   C172      1.0  0.3472988453019595  0.6344839795494058  0.932785163340078  1.0000
  C   C173      1.0  0.34040200018709743  0.6106409674835015  0.9344558400362265  1.0000
  C   C174      1.0  0.31546094512406087  0.6069731941468304  0.9396323365608241  1.0000
  H   H113      1.0  0.29068343473686753  0.6662840477482159  0.9460035515996458  1.0000
  H   H114      1.0  0.3346647741272692  0.6729565713090435  0.9357942161658499  1.0000
  H   H115      1.0  0.35415127409913577  0.5952051600539793  0.9305303069939194  1.0000
  H   H116      1.0  0.3100361227664675  0.5886758353039694  0.9399776158231169  1.0000
  C   C175      1.0  0.4702280569621194  0.5150751524677992  0.9311390824101107  1.0000
  C   C176      1.0  0.48017640621466506  0.490264868553304  0.9312889637893291  1.0000
  C   C177      1.0  0.5057840865784322  0.4839412790275981  0.9275785254320996  1.0000
  C   C178      1.0  0.5213811507567383  0.5025388015087392  0.9220634465517222  1.0000
  C   C179      1.0  0.511362299695197  0.5274137790294555  0.9203499872757837  1.0000
  C   C180      1.0  0.485834157682956  0.5336848479391557  0.9256655861613207  1.0000
  H   H117      1.0  0.4680670118137643  0.4759241767684989  0.9347241142518355  1.0000
  H   H118      1.0  0.5134036341988901  0.4646794373905802  0.9286173223335742  1.0000
  H   H119      1.0  0.5233579878591114  0.5417976409224776  0.9154158518966028  1.0000
  H   H120      1.0  0.4782321188503105  0.552906464648787  0.9251086074389443  1.0000
  C   C181      1.0  0.6126986587104138  0.6266182023149758  0.14997457344330203  1.0000
  C   C182      1.0  0.6198742832167998  0.627710385112199  0.12222523866646055  1.0000
  C   C183      1.0  0.6321851637676166  0.6473740642116053  0.10881470873201769  1.0000
  C   C184      1.0  0.6376237889786732  0.6658235176140958  0.12316530989504486  1.0000
  C   C185      1.0  0.6309341603051348  0.6644294380332788  0.15103600224230515  1.0000
  C   C186      1.0  0.6185623150576145  0.6447996880505509  0.1644328439047207  1.0000
  H   H121      1.0  0.616052033293424  0.6133666479415741  0.11107056119921638  1.0000
  H   H122      1.0  0.6375352482475123  0.6482693132014157  0.08727836460102009  1.0000
  H   H123      1.0  0.6345741238860152  0.6788675525759046  0.1621532514703732  1.0000
  H   H124      1.0  0.6130123893020197  0.6440190203164158  0.18592267344710017  1.0000
  C   C187      1.0  0.5984420794737707  0.5234616495402041  0.045916559646910125  1.0000
  C   C188      1.0  0.604648174705233  0.5132698731836809  0.021511261679338308  1.0000
  C   C189      1.0  0.6004806515811555  0.48880007482642945  0.01989954846311671  1.0000
  C   C190      1.0  0.5907370413736357  0.4744454250845702  0.04288270842326886  1.0000
  C   C191      1.0  0.5850291213537845  0.48462805881348453  0.06719440398341761  1.0000
  C   C192      1.0  0.5885623853379152  0.509081054474255  0.06863264088521948  1.0000
  H   H125      1.0  0.6123414628956495  0.5243644016490473  0.0038650583027797334  1.0000
  H   H126      1.0  0.6052275539986991  0.48094758691305006  0.0010984175161695606  1.0000
  H   H127      1.0  0.5774810571185905  0.4738617086571451  0.08495426432677598  1.0000
  H   H128      1.0  0.5836161713995076  0.5166980484441455  0.08749102518564833  1.0000
  C   C193      1.0  0.4944983621378389  0.6187962513401013  0.06508917648146138  1.0000
  C   C194      1.0  0.4712185410561563  0.6197011930724474  0.056143557686064646  1.0000
  C   C195      1.0  0.4691110196092118  0.6182314557822047  0.028867213462291735  1.0000
  C   C196      1.0  0.4901640930162555  0.6171383905842432  0.010276054330602413  1.0000
  C   C197      1.0  0.5133335249912332  0.617414194323845  0.019055601284203933  1.0000
  C   C198      1.0  0.5155850944337635  0.6175328928866839  0.04656531492341611  1.0000
  H   H129      1.0  0.4548456465902066  0.6209647941214351  0.07036388481445892  1.0000
  H   H130      1.0  0.45116208574501915  0.6182027936793092  0.022245028457994257  1.0000
  H   H131      1.0  0.5296239317474624  0.6170179247301284  0.004678675924881882  1.0000
  H   H132      1.0  0.5336233081702829  0.6169606190199224  0.05335233262560699  1.0000
  C   C199      1.0  0.4549075418705041  0.49898232142562526  0.16715035240018908  1.0000
  C   C200      1.0  0.4642939858751055  0.5207654559269372  0.1707039563115157  1.0000
  C   C201      1.0  0.48983672425114655  0.5223746236681567  0.1658573551390023  1.0000
  C   C202      1.0  0.5059858042868518  0.5018931608267848  0.15840315377609693  1.0000
  C   C203      1.0  0.49652891039800556  0.47996303288037945  0.15602195455359658  1.0000
  C   C204      1.0  0.47114603405938044  0.4786188597784174  0.1599089508656353  1.0000
  H   H133      1.0  0.45179550769004373  0.5365273056924706  0.17658636094240965  1.0000
  H   H134      1.0  0.4970325343394562  0.5392909132650893  0.16817720094966476  1.0000
  H   H135      1.0  0.5086745843733287  0.4640207732399341  0.1506506813553514  1.0000
  H   H136      1.0  0.46419636451885543  0.4617393097462319  0.15718269615220734  1.0000
  C   C205      1.0  0.49039395933343294  0.4010703009877034  0.08002650256650659  1.0000
  C   C206      1.0  0.4723620689887499  0.3941955105649621  0.06593646729118995  1.0000
  C   C207      1.0  0.477783435203759  0.39073350193476575  0.038492289468290745  1.0000
  C   C208      1.0  0.5009475678885981  0.39494417769310497  0.025063868004512935  1.0000
  C   C209      1.0  0.5188048968474734  0.40171526872376245  0.03931828782724819  1.0000
  C   C210      1.0  0.5136825624137418  0.40438002870222056  0.0667244716205306  1.0000
  H   H137      1.0  0.45435760029809785  0.3913715357295988  0.07621491880496883  1.0000
  H   H138      1.0  0.46383095446743794  0.38550329583391985  0.027578898357235843  1.0000
  H   H139      1.0  0.536561048443166  0.4053472225483298  0.02931534487459789  1.0000
  H   H140      1.0  0.5276247810288771  0.4098131795926258  0.07730720722196176  1.0000
  C   C211      1.0  0.37953836940945185  0.4924496841935468  0.06079442458465372  1.0000
  C   C212      1.0  0.376424640732996  0.5067516693432449  0.08228518519142954  1.0000
  C   C213      1.0  0.3782006473062323  0.5322310793337863  0.07726406851331731  1.0000
  C   C214      1.0  0.3845252632907996  0.5430697871163551  0.05097586092507383  1.0000
  C   C215      1.0  0.3880382240555038  0.5286497400067999  0.02957957096829152  1.0000
  C   C216      1.0  0.3848031380687668  0.5035309224930465  0.03438439765464488  1.0000
  H   H141      1.0  0.3723208768563227  0.4982168872499828  0.10275454714740648  1.0000
  H   H142      1.0  0.3752350616549896  0.5433473327045526  0.0938661495569691  1.0000
  H   H143      1.0  0.39308676577694807  0.536759673647219  0.009254160787066465  1.0000
  H   H144      1.0  0.387052581542745  0.49253422346140535  0.017721727649571837  1.0000
  C   C217      1.0  0.04095641764979233  0.35172337173372215  0.36898928010506493  1.0000
  C   C218      1.0  0.022526929188658264  0.361145465584303  0.3878928749335435  1.0000
  C   C219      1.0  0.028700310581191102  0.3669975811648471  0.4124273548519348  1.0000
  C   C220      1.0  0.053365940339235855  0.36391116220545755  0.417796585258922  1.0000
  C   C221      1.0  0.07179863934164256  0.35491917060416633  0.39871603255987376  1.0000
  C   C222      1.0  0.0655801273632428  0.3485062474800289  0.3745282733389541  1.0000
  H   H145      1.0  0.0034228069251693426  0.3634845700193622  0.38374077500837933  1.0000
  H   H146      1.0  0.014320509610328422  0.37341777031452483  0.42734523082229725  1.0000
  H   H147      1.0  0.09095802759730366  0.35313598281832964  0.4025142517006846  1.0000
  H   H148      1.0  0.07991475425373393  0.3415399089941266  0.35999213034809263  1.0000
  C   C223      1.0  0.14940567591608067  0.18736399088589287  0.36503518791283684  1.0000
  C   C224      1.0  0.1267954165428637  0.19979778415688756  0.3578813610777307  1.0000
  C   C225      1.0  0.12257360090405088  0.22565995891265545  0.3560676280261932  1.0000
  C   C226      1.0  0.1405330733543943  0.23901696573620518  0.3626498868121866  1.0000
  C   C227      1.0  0.16299215695273242  0.22657969440551484  0.37026483342129063  1.0000
  C   C228      1.0  0.16762540136262463  0.20078299926645599  0.37091132042186026  1.0000
  H   H149      1.0  0.11267299193008003  0.18947004422573746  0.35340493310798454  1.0000
  H   H150      1.0  0.10528811564105554  0.23516580427254483  0.34985910225486944  1.0000
  H   H151      1.0  0.17696329573724187  0.23687564583249915  0.37525881395875216  1.0000
  H   H152      1.0  0.18510181905841627  0.19125820734218077  0.37651156347134235  1.0000
  C   C229      1.0  0.2905003706909265  0.08263539329943863  0.40095211427771976  1.0000
  C   C230      1.0  0.30122631317056753  0.10436489223855001  0.3918415796827565  1.0000
  C   C231      1.0  0.3260510820305642  0.10540250244457694  0.3951880452818994  1.0000
  C   C232      1.0  0.3401309467540696  0.08469373910089986  0.40745907367760326  1.0000
  C   C233      1.0  0.3296115799728163  0.06271088115451148  0.41539929304868306  1.0000
  C   C234      1.0  0.3047573014108337  0.06176747490272129  0.41250381393530955  1.0000
  H   H153      1.0  0.2902765385803186  0.12058182619012375  0.38291363809684964  1.0000
  H   H154      1.0  0.33418114585083447  0.12242678158674779  0.38884384219813334  1.0000
  H   H155      1.0  0.34069769689490614  0.04630995699113323  0.4234795264928784  1.0000
  H   H156      1.0  0.2966170651468904  0.04479015082698605  0.4191009463877065  1.0000
  C   C235      1.0  0.2048554542622692  0.3214916719208883  0.23581023880049207  1.0000
  C   C236      1.0  0.19514091875753897  0.31628793787172743  0.2129846936546352  1.0000
  C   C237      1.0  0.1695913722849779  0.3179301762791648  0.21244004367162692  1.0000
  C   C238      1.0  0.1536672589688844  0.3239467719598041  0.23505086260113392  1.0000
  C   C239      1.0  0.16332376750752378  0.3289297086524703  0.25807358234371053  1.0000
  C   C240      1.0  0.18894359996700252  0.32815268069345815  0.25826184339433617  1.0000
  H   H157      1.0  0.2071750898537241  0.31089879617472743  0.1956503828134434  1.0000
  H   H158      1.0  0.16214701686525593  0.31400293308722294  0.19464164216656782  1.0000
  H   H159      1.0  0.1509991477935011  0.3338181756414202  0.2754814925554358  1.0000
  H   H160      1.0  0.1963905879561698  0.33221578182894257  0.2759626319113286  1.0000
  C   C241      1.0  0.2932966990912034  0.20833986472001162  0.24197319873510123  1.0000
  C   C242      1.0  0.2901020793019669  0.18471262901195853  0.2550927987332327  1.0000
  C   C243      1.0  0.27990629390080707  0.18181309125826722  0.2820946833848803  1.0000
  C   C244      1.0  0.27406475904695793  0.20236541116299314  0.29638866975931116  1.0000
  C   C245      1.0  0.27848249559400884  0.22582401507556962  0.28362341954501685  1.0000
  C   C246      1.0  0.28746985166279754  0.22892034675936132  0.25622808564195726  1.0000
  H   H161      1.0  0.2946166905334676  0.1687648713334098  0.24410155986036827  1.0000
  H   H162      1.0  0.2766935159432113  0.16365403995468497  0.2917774913112723  1.0000
  H   H163      1.0  0.2744963686183769  0.2416755852588732  0.294783839662619  1.0000
  H   H164      1.0  0.29011167717762726  0.24720747140081714  0.24628187877731791  1.0000
  C   C247      1.0  0.33512205901163133  0.33627462048243384  0.14440164710636946  1.0000
  C   C248      1.0  0.33671334770549327  0.3321642661883193  0.17227050398000865  1.0000
  C   C249      1.0  0.34892967627315635  0.34775484811986257  0.1846864396323183  1.0000
  C   C250      1.0  0.3593449197573735  0.36772821757198904  0.16935650536518848  1.0000
  C   C251      1.0  0.3575967979569856  0.37196046455689646  0.1415179080756087  1.0000
  C   C252      1.0  0.34577758119737734  0.3560744752509327  0.12901786182519662  1.0000
  H   H165      1.0  0.32881703357876285  0.3169178610522626  0.1842885645561194  1.0000
  H   H166      1.0  0.350317688163564  0.3444073484702011  0.20622784489314783  1.0000
  H   H167      1.0  0.3650409623504472  0.38764822749479233  0.12961791734875194  1.0000
  H   H168      1.0  0.34451384391971357  0.35944740927781227  0.10744953917108388  1.0000
  C   C253      1.0  0.8598755187493775  0.14136356244071074  0.8215721331844704  1.0000
  C   C254      1.0  0.8609183790377284  0.16012445911008397  0.8375773821747409  1.0000
  C   C255      1.0  0.8632875033241509  0.15417331020030695  0.8652876847982767  1.0000
  C   C256      1.0  0.8633152095887655  0.12961801794811093  0.8772523970011097  1.0000
  C   C257      1.0  0.8620612931579529  0.11090251994041067  0.8612884161432126  1.0000
  C   C258      1.0  0.8610561999794748  0.11671428302476547  0.8333554113568996  1.0000
  H   H169      1.0  0.8602252303303615  0.1791751310083272  0.8285577783030781  1.0000
  H   H170      1.0  0.8645105193902372  0.16868588898597875  0.877501891569806  1.0000
  H   H171      1.0  0.8621634820629464  0.09188135934362134  0.8703601374141436  1.0000
  H   H172      1.0  0.8607882676695623  0.10212853519163828  0.8209148069399509  1.0000
  C   C259      1.0  0.7497411806015961  0.12484525593202549  0.9714824746371393  1.0000
  C   C260      1.0  0.7699036665339487  0.1357061592793153  0.9771284135623377  1.0000
  C   C261      1.0  0.7675398754387811  0.1612705460189486  0.9789271010459095  1.0000
  C   C262      1.0  0.7453019325563555  0.17602805324902998  0.974064413478058  1.0000
  C   C263      1.0  0.7252526039017976  0.16503332547174818  0.9686018996872338  1.0000
  C   C264      1.0  0.7273553227102133  0.139519586123287  0.9677772933053111  1.0000
  H   H173      1.0  0.7871801567536285  0.12441320337924305  0.9804125266465861  1.0000
  H   H174      1.0  0.7830657797020433  0.169672567565931  0.983422156828306  1.0000
  H   H175      1.0  0.7080759462122762  0.1761660075138394  0.9647535964512202  1.0000
  H   H176      1.0  0.7116990193527233  0.13141899528475937  0.9635899945270212  1.0000
  C   C265      1.0  0.7759664508986586  0.044447985109341295  0.8674537951883728  1.0000
  C   C266      1.0  0.7611024766461638  0.05337748273813967  0.8893921901749701  1.0000
  C   C267      1.0  0.7359723776342878  0.060593851461224923  0.8877875735894226  1.0000
  C   C268      1.0  0.7254945695495307  0.05959466978179902  0.8640096873358831  1.0000
  C   C269      1.0  0.740221880437969  0.050507009818023724  0.8419319233039738  1.0000
  C   C270      1.0  0.7654446821032482  0.04257286318702616  0.8437976440288694  1.0000
  H   H177      1.0  0.7689063263547503  0.054959223910078715  0.9076792569914071  1.0000
  H   H178      1.0  0.7248966382699776  0.06746925287418838  0.9049020011156331  1.0000
  H   H179      1.0  0.7321562045961914  0.049318394035058895  0.8236104031902244  1.0000
  H   H180      1.0  0.776852459436589  0.03547750455092461  0.8268045458486242  1.0000
  C   C271      1.0  0.8774623100788528  0.8028845613602832  0.19796437920366214  1.0000
  C   C272      1.0  0.8783864619766796  0.7902125308196987  0.2240275419181337  1.0000
  C   C273      1.0  0.8723295490477406  0.7658333010361544  0.22948778500109868  1.0000
  C   C274      1.0  0.8663704313686822  0.7538366269388552  0.2086432306672349  1.0000
  C   C275      1.0  0.8671637322860292  0.7660057611010651  0.18229115109006563  1.0000
  C   C276      1.0  0.8721336729094776  0.7906274509282039  0.17707367069565752  1.0000
  H   H181      1.0  0.8828623971568719  0.7995401650144736  0.24016387401367714  1.0000
  H   H182      1.0  0.8722436622495585  0.7563936095019848  0.24977947318857716  1.0000
  H   H183      1.0  0.8634731723597167  0.756642503206789  0.16589012746280496  1.0000
  H   H184      1.0  0.8718165823581289  0.8001087190224062  0.1568112849367599  1.0000
  C   C277      1.0  0.7714130070034751  0.8970404365799095  0.18478607402535485  1.0000
  C   C278      1.0  0.7912461115225905  0.8971033456837487  0.19989200035277566  1.0000
  C   C279      1.0  0.7871245935526291  0.8966308148960753  0.22812743870235122  1.0000
  C   C280      1.0  0.763381653609918  0.8949883861096608  0.241273902541292  1.0000
  C   C281      1.0  0.7437516294237378  0.8947107182274644  0.22605184268396006  1.0000
  C   C282      1.0  0.7476272036251981  0.8963580785105999  0.1978967627227608  1.0000
  H   H185      1.0  0.809676492432346  0.8978435637161511  0.18982894555557844  1.0000
  H   H186      1.0  0.8023700336955004  0.8970096608436007  0.2397954450447547  1.0000
  H   H187      1.0  0.7254579433796121  0.8932849130955196  0.23584664124662139  1.0000
  H   H188      1.0  0.7321514524234661  0.8966101873463094  0.18645956672736919  1.0000
  C   C283      1.0  0.7966634594248642  0.7964720109212148  0.09886343944378193  1.0000
  C   C284      1.0  0.7829869005167518  0.8010329559852245  0.12339439715823847  1.0000
  C   C285      1.0  0.7582156968014755  0.7966244968785879  0.12815470257493458  1.0000
  C   C286      1.0  0.7466866253373086  0.7888742449806827  0.10789027661282528  1.0000
  C   C287      1.0  0.7603367121634743  0.7842519423184623  0.08339606374250039  1.0000
  C   C288      1.0  0.785420176232613  0.7875931497597485  0.07909243399166553  1.0000
  H   H189      1.0  0.7916148087117324  0.8074527914920607  0.13892393399616698  1.0000
  H   H190      1.0  0.7478260816655855  0.7998074271396084  0.14724117820377208  1.0000
  H   H191      1.0  0.7514172781926186  0.7785190470287964  0.06755756419085626  1.0000
  H   H192      1.0  0.7959434904653867  0.7839529172618286  0.06012299002571133  1.0000
  C   C289      1.0  0.1653572746818453  0.8726596411903126  0.8875920424076796  1.0000
  C   C290      1.0  0.16467731113412173  0.8527762190079012  0.8730165664213437  1.0000
  C   C291      1.0  0.18382022430558653  0.8468962664713859  0.8530123320392377  1.0000
  C   C292      1.0  0.20395639030922288  0.8605787522118686  0.8479883940007655  1.0000
  C   C293      1.0  0.20503721995613397  0.879903062019894  0.8631622905750709  1.0000
  C   C294      1.0  0.18563901539884423  0.8861163402325226  0.882708817274199  1.0000
  H   H193      1.0  0.14957563464689377  0.8418216002221943  0.8772300344043643  1.0000
  H   H194      1.0  0.18335593596738523  0.8313440054625612  0.8421033552282917  1.0000
  H   H195      1.0  0.22071968226378494  0.890346866884052  0.8595168238943299  1.0000
  H   H196      1.0  0.18637720894528775  0.9014062743343612  0.8940268820608367  1.0000
  C   C295      1.0  0.13101652943775624  0.7637443411513777  0.9384381661713279  1.0000
  C   C296      1.0  0.14160758899587592  0.7395158080990852  0.9358347714026274  1.0000
  C   C297      1.0  0.1672460311596332  0.7340725001229385  0.9318123003282983  1.0000
  C   C298      1.0  0.18245256589845527  0.752675853519087  0.9312032838764109  1.0000
  C   C299      1.0  0.17187578616735213  0.777052800468784  0.9334274865555375  1.0000
  C   C300      1.0  0.1461134413380255  0.7826361618015912  0.9367958750260755  1.0000
  H   H197      1.0  0.13004665284295605  0.7248884592558186  0.9371504313671921  1.0000
  H   H198      1.0  0.17517262588671062  0.7153253097764244  0.9297695136573155  1.0000
  H   H199      1.0  0.18354913514772844  0.7915527357764967  0.9328201278891409  1.0000
  H   H200      1.0  0.1380098463578686  0.8014272114726266  0.9388154089764428  1.0000
  C   C301      1.0  0.05564774207951974  0.8137109447529719  0.8461940646785062  1.0000
  C   C302      1.0  0.05486277996140494  0.8067265225630111  0.8205066248007832  1.0000
  C   C303      1.0  0.05599538740111677  0.7815539579296578  0.8171716486510103  1.0000
  C   C304      1.0  0.05738311007808728  0.7634839643909375  0.8396396175252638  1.0000
  C   C305      1.0  0.05846851390637745  0.7704772709196634  0.8651420349958181  1.0000
  C   C306      1.0  0.0580318236294764  0.7954441402301089  0.8682998292194595  1.0000
  H   H201      1.0  0.053243321874617  0.8207217737314156  0.8032354850215261  1.0000
  H   H202      1.0  0.05528021137646044  0.7762393511119153  0.7973228336382238  1.0000
  H   H203      1.0  0.05959448877445246  0.7566258072385049  0.8825336911534353  1.0000
  H   H204      1.0  0.05907126983258651  0.8004527841408344  0.8880456485369965  1.0000
  C   C307      1.0  0.9164026350598088  0.04029194855564184  0.028445737834386545  1.0000
  C   C308      1.0  0.9176591587462828  0.015250227818667871  0.02505736167718715  1.0000
  C   C309      1.0  0.898669429039836  0.006723758795349122  0.013785524793221548  1.0000
  C   C310      1.0  0.8785099753773365  0.02328157110138253  0.005692494645540168  1.0000
  C   C311      1.0  0.8766474370323273  0.04800400829080725  0.01039337164659454  1.0000
  C   C312      1.0  0.8954488171533692  0.05642344605739774  0.021993494784967278  1.0000
  H   H205      1.0  0.9335220345722092  0.002591801957302921  0.03032896738689505  1.0000
  H   H206      1.0  0.9000692790559757  0.9874963280476445  0.010443660389809492  1.0000
  H   H207      1.0  0.8607581936712638  0.06068620174796916  0.005153883124649962  1.0000
  H   H208      1.0  0.8940599673168943  0.07565119601076914  0.02535816288324307  1.0000
  C   C313      1.0  0.9457279727079699  0.9339839404082427  0.10032565836341811  1.0000
  C   C314      1.0  0.9360262945283038  0.9127338731633646  0.11358610575280531  1.0000
  C   C315      1.0  0.9151761404838654  0.9050654370050101  0.10501688105140453  1.0000
  C   C316      1.0  0.904285890081545  0.9184232382764668  0.08287284702427833  1.0000
  C   C317      1.0  0.9136736638787204  0.9399480301389183  0.06996709731113436  1.0000
  C   C318      1.0  0.9341575887798313  0.9479086597870614  0.07892950406796917  1.0000
  H   H209      1.0  0.9448736268137881  0.9019388981450791  0.13021457216868362  1.0000
  H   H210      1.0  0.9079677141863487  0.8884398500312736  0.11511488090745062  1.0000
  H   H211      1.0  0.9053578715768759  0.9503682518208864  0.05282889884795328  1.0000
  H   H212      1.0  0.9412811295520054  0.9645256325969637  0.06889645889659624  1.0000
  C   C319      1.0  0.041514045725374815  0.953474088734317  0.9955225787576835  1.0000
  C   C320      1.0  0.032899198301258537  0.9371158605938514  0.01731515262489025  1.0000
  C   C321      1.0  0.03073704140370981  0.9126540161357799  0.013667229441937101  1.0000
  C   C322      1.0  0.03669915291682628  0.9045976294967939  0.988141869269691  1.0000
  C   C323      1.0  0.04490034452489849  0.9210713584938083  0.9662405632230631  1.0000
  C   C324      1.0  0.047310104394742335  0.9455012412150129  0.9699417748603973  1.0000
  H   H213      1.0  0.028545467066539487  0.9431218779025476  0.03716552239871494  1.0000
  H   H214      1.0  0.024899250156453556  0.8998832682075226  0.03082117971581866  1.0000
  H   H215      1.0  0.04907668177099858  0.9151539061734217  0.9463997005787204  1.0000
  H   H216      1.0  0.05356642412754506  0.9582869767448039  0.9529772116903833  1.0000
  C   C325      1.0  0.07963181594904717  0.2162053752805193  0.20224721510326085  1.0000
  C   C326      1.0  0.06528140387490775  0.20092710780099304  0.22036361652376388  1.0000
  C   C327      1.0  0.057672540690293164  0.20706508143396005  0.24656922112537494  1.0000
  C   C328      1.0  0.06506207866384665  0.22803453548774494  0.25500810863716034  1.0000
  C   C329      1.0  0.07943272229501311  0.2432892817441141  0.23686729680100224  1.0000
  C   C330      1.0  0.08645270554183929  0.2375326492206264  0.21041108297399497  1.0000
  H   H217      1.0  0.05962291665236029  0.18466974507154493  0.21397004489321417  1.0000
  H   H218      1.0  0.046011661451844786  0.195576606641161  0.26026059113436445  1.0000
  H   H219      1.0  0.08492279568556117  0.25971628047101697  0.2430502917819588  1.0000
  H   H220      1.0  0.09731066621729657  0.24955898670359514  0.19632538563291793  1.0000
  C   C331      1.0  0.1588233185959179  0.0998685887978878  0.2483727306113449  1.0000
  C   C332      1.0  0.16244487274462355  0.0968900776135792  0.27578737851270113  1.0000
  C   C333      1.0  0.18582335627312177  0.09820512984527947  0.2836433328615267  1.0000
  C   C334      1.0  0.2059130218074343  0.10111359220697297  0.26411843107225563  1.0000
  C   C335      1.0  0.20258570516535745  0.1025157531635759  0.23673758725630142  1.0000
  C   C336      1.0  0.17894935397119904  0.10260634823933118  0.22884539394173511  1.0000
  H   H221      1.0  0.14708537465832444  0.09417254282541525  0.29098419697427574  1.0000
  H   H222      1.0  0.18826011568674988  0.09669087047145401  0.3048157798147805  1.0000
  H   H223      1.0  0.2181250120470479  0.10413533228844514  0.22153024170286414  1.0000
  H   H224      1.0  0.17638840346202542  0.10455725200848862  0.20761743692246243  1.0000
  C   C337      1.0  0.20438415864507742  0.18478810303621487  0.13653089162699583  1.0000
  C   C338      1.0  0.18357091677907075  0.20246137338015968  0.13696931998194137  1.0000
  C   C339      1.0  0.18628733982542853  0.2276768048478759  0.13536640730983096  1.0000
  C   C340      1.0  0.2097705364105481  0.2352574246171876  0.1339943832849511  1.0000
  C   C341      1.0  0.23063058828314986  0.21760740042449192  0.13349952017585306  1.0000
  C   C342      1.0  0.2279415619148376  0.19241594028078116  0.1343754612799742  1.0000
  H   H225      1.0  0.1653325797454873  0.1967656013959166  0.13869174538831947  1.0000
  H   H226      1.0  0.17012473290692542  0.24129350966224375  0.1357764827181518  1.0000
  H   H227      1.0  0.24881340985773268  0.2233971286098271  0.13219415586554417  1.0000
  H   H228      1.0  0.2440852282158395  0.17880556921943813  0.13384431823251977  1.0000
  C   C343      1.0  0.07949431010275261  0.09145149220794671  0.11052229792219524  1.0000
  C   C344      1.0  0.06976261291401852  0.08412964596814251  0.08864021210084452  1.0000
  C   C345      1.0  0.05407528950380001  0.06543902455527925  0.09278253456431856  1.0000
  C   C346      1.0  0.047969530629494245  0.05405267794076509  0.11888743152908665  1.0000
  C   C347      1.0  0.05754013053819218  0.06152191753187002  0.14081458037801112  1.0000
  C   C348      1.0  0.07329530483025182  0.08017613548913094  0.13666166190797163  1.0000
  H   H229      1.0  0.07455766143984217  0.09276722345617217  0.06836949204936765  1.0000
  H   H230      1.0  0.046820395607701536  0.0597854440053511  0.07577010232357698  1.0000
  H   H231      1.0  0.05290273678411422  0.05275484141964348  0.16105487974301963  1.0000
  H   H232      1.0  0.08076115232411056  0.0856912521331385  0.15363004345183642  1.0000
  N   N1        1.0  0.11951903166212656  0.9114409673984435  0.9836034423789014  1.0000
  C   C349      1.0  0.11074539191905249  0.9214060543443547  0.9571306321769603  1.0000
  C   C350      1.0  0.09859484383780567  0.9034552578654932  0.0025545434297999936  1.0000
  C   C351      1.0  0.13017759913619628  0.9309422020202327  0.9944783940528195  1.0000
  C   C352      1.0  0.13849921405636142  0.8900244222299982  0.9802223333382681  1.0000
  H   H233      1.0  0.0974077863016634  0.9383782241170006  0.9586502226896889  1.0000
  H   H234      1.0  0.10142611815024619  0.9076299239879357  0.9489189074347224  1.0000
  H   H235      1.0  0.12626822677165853  0.9263484405884435  0.9418792431320291  1.0000
  H   H236      1.0  0.1045842442972423  0.8952604218215106  0.022556387565493052  1.0000
  H   H237      1.0  0.0842906772727351  0.9193394422742859  0.006118154570078804  1.0000
  H   H238      1.0  0.08951319801483383  0.8893202730215812  0.9946124610463295  1.0000
  H   H239      1.0  0.1369679556251807  0.9241343038296415  0.014484000202630298  1.0000
  H   H240      1.0  0.11619765440586784  0.9473484307665436  0.9972875170590024  1.0000
  H   H241      1.0  0.14594016905863857  0.9374975991327335  0.9805947245699145  1.0000
  H   H242      1.0  0.15438600956381923  0.8952547594609869  0.9656308604022689  1.0000
  H   H243      1.0  0.13093151290677746  0.8750041981828971  0.97211542170086  1.0000
  H   H244      1.0  0.14572455437800713  0.8820826993523497  0.999715086293938  1.0000
  N   N2        1.0  0.9285002428751132  0.48399665917917495  0.439514206791289  1.0000
  C   C353      1.0  0.9296192533393483  0.45919588392298766  0.4307067920545539  1.0000
  C   C354      1.0  0.9032174527705708  0.49169312567929163  0.45146388728996895  1.0000
  C   C355      1.0  0.9353454508561846  0.5021205461316394  0.416179613952996  1.0000
  C   C356      1.0  0.9459705130501671  0.4829341198681186  0.45990539611836334  1.0000
  H   H245      1.0  0.9485358414921126  0.4526558659151386  0.4219571931974714  1.0000
  H   H246      1.0  0.9167071102833083  0.45917655181245254  0.41524631659958666  1.0000
  H   H247      1.0  0.9246023014187628  0.4452121115771426  0.448072993153733  1.0000
  H   H248      1.0  0.897863125084737  0.4788315950772272  0.4697298397476389  1.0000
  H   H249      1.0  0.9016514775216563  0.5104597169569993  0.458057676729968  1.0000
  H   H250      1.0  0.8893967887834513  0.49224884466017865  0.4368471106750472  1.0000
  H   H251      1.0  0.934677981633517  0.520987927220949  0.42238404356655607  1.0000
  H   H252      1.0  0.9226235287900809  0.5034806333842764  0.4002365862340644  1.0000
  H   H253      1.0  0.9544991663642998  0.4970287733596017  0.4069843723369172  1.0000
  H   H254      1.0  0.9457943009402161  0.5013694048781588  0.4668710218161458  1.0000
  H   H255      1.0  0.9651629467966657  0.47697886064832085  0.4515708505286454  1.0000
  H   H256      1.0  0.9412025923022527  0.4697289463638884  0.4780886367788493  1.0000
  N   N3        1.0  0.21406175053089183  0.17788417214544391  0.2204905486477018  1.0000
  C   C357      1.0  0.19681950819847427  0.16789093409887967  0.2428724433940299  1.0000
  C   C358      1.0  0.23445426817838871  0.18696519521403382  0.2315470786062066  1.0000
  C   C359      1.0  0.20074326464207784  0.19844685559547398  0.20381448623908338  1.0000
  C   C360      1.0  0.22433112382068754  0.15805919116000308  0.20369861266849942  1.0000
  H   H257      1.0  0.18168327132342044  0.16012864995004605  0.23508709207754297  1.0000
  H   H258      1.0  0.18834700921941366  0.1823662728281137  0.2557528275098351  1.0000
  H   H259      1.0  0.20645140138973175  0.152646798384814  0.25607385493464485  1.0000
  H   H260      1.0  0.2481787915144713  0.19400344413633194  0.2150984363209787  1.0000
  H   H261      1.0  0.22769724788086557  0.20227898268492653  0.24390108783620668  1.0000
  H   H262      1.0  0.2445168397976661  0.17187773948319915  0.2446091415047178  1.0000
  H   H263      1.0  0.21343728985102656  0.20709477678511498  0.18745034292386564  1.0000
  H   H264      1.0  0.19183422717166096  0.2133541365848146  0.21590667814433062  1.0000
  H   H265      1.0  0.18609584949927432  0.1918912951502362  0.19396351854150184  1.0000
  H   H266      1.0  0.2354065053542971  0.1427309684673222  0.2153832396628108  1.0000
  H   H267      1.0  0.2365363714125127  0.16511684323311457  0.18583881036521088  1.0000
  H   H268      1.0  0.20946656757986656  0.1499318047135205  0.19588000535750738  1.0000
  N   N4        1.0  0.10590734025637356  0.1573262756736115  0.2931608674464741  1.0000
  C   C361      1.0  0.094468384023948  0.13409899779816925  0.2959581110887737  1.0000
  C   C362      1.0  0.08843370742636995  0.1764751358424185  0.30558910831570685  1.0000
  C   C363      1.0  0.11210651958252711  0.16566763208516394  0.2641978396413586  1.0000
  C   C364      1.0  0.12858917101313483  0.15300458574630227  0.3070554342452619  1.0000
  H   H269      1.0  0.07757838825418951  0.13657740239061075  0.28516923495270163  1.0000
  H   H270      1.0  0.08922260021953292  0.1274200234990819  0.317521766928553  1.0000
  H   H271      1.0  0.10728751024431003  0.11910725125523973  0.28724443284865697  1.0000
  H   H272      1.0  0.08395165904550743  0.17110040113463285  0.3276037672623368  1.0000
  H   H273      1.0  0.09603913252017195  0.19456789197233776  0.3031115255430633  1.0000
  H   H274      1.0  0.07075778268128825  0.1797354804712158  0.2962702844267945  1.0000
  H   H275      1.0  0.1261307251610393  0.15208122682096614  0.25457227509795344  1.0000
  H   H276      1.0  0.11934531538425046  0.18394130786999754  0.2611331679939967  1.0000
  H   H277      1.0  0.09566043830963102  0.16765309423597824  0.2528245012887246  1.0000
  H   H278      1.0  0.12471448142617374  0.14526792472180447  0.32855931591382365  1.0000
  H   H279      1.0  0.13690907661167895  0.17044085421013125  0.3068745259934697  1.0000
  H   H280      1.0  0.14279135008112376  0.13963077747227845  0.29748699391752803  1.0000
  N   N5        1.0  0.5520775693385649  0.32772844198975104  0.9769861403526595  1.0000
  C   C365      1.0  0.5583672494713026  0.3471121936266643  0.9547490585226358  1.0000
  C   C366      1.0  0.566709768633108  0.30391363180048075  0.9718176132289628  1.0000
  C   C367      1.0  0.5255178342543868  0.3251072582181928  0.978593433544896  1.0000
  C   C368      1.0  0.5577292090212248  0.334792044454485  0.00278931393595383  1.0000
  H   H281      1.0  0.5475713598707104  0.3653134421065214  0.957955780347173  1.0000
  H   H282      1.0  0.554564788032694  0.34235306346897487  0.9349113376502471  1.0000
  H   H283      1.0  0.5782793035665647  0.34963437129375846  0.9530923659332229  1.0000
  H   H284      1.0  0.5628228745697782  0.2978310170687072  0.9526390695223227  1.0000
  H   H285      1.0  0.5867868849653912  0.305371460581243  0.9700526670485821  1.0000
  H   H286      1.0  0.5630352877908542  0.28890841667894396  0.988476951634895  1.0000
  H   H287      1.0  0.5139229942323279  0.34273695094825013  0.9825716534382403  1.0000
  H   H288      1.0  0.5201803995533043  0.3106354438751198  0.9951925952901747  1.0000
  H   H289      1.0  0.5205616213991537  0.319946384178606  0.9594024661605178  1.0000
  H   H290      1.0  0.5467267749701076  0.35254814181570926  0.00746601067302799  1.0000
  H   H291      1.0  0.5775759361245166  0.3372439495970792  0.0021334918872315534  1.0000
  H   H292      1.0  0.553604919562999  0.3204317420169449  0.019994004333313553  1.0000
  N   N6        1.0  0.6347579071360901  0.9624035338206981  0.426994749155371  1.0000
  C   C369      1.0  0.6310075448825504  0.9697943895580846  0.4545836404510042  1.0000
  C   C370      1.0  0.6120846623152547  0.9535024879985772  0.42088508389247226  1.0000
  C   C371      1.0  0.6554283405836652  0.9423105175410461  0.42529793249905345  1.0000
  C   C372      1.0  0.640376639576145  0.9839022959691899  0.4072250833704983  1.0000
  H   H293      1.0  0.6265838751515613  0.9539678333447706  0.46994293448867147  1.0000
  H   H294      1.0  0.6153974966977954  0.9847861080094594  0.4565971253296415  1.0000
  H   H295      1.0  0.6476959293893967  0.9767029564126878  0.4599681581779037  1.0000
  H   H296      1.0  0.6143004187003993  0.9473521673735521  0.4003777824642033  1.0000
  H   H297      1.0  0.6072375752100849  0.9374894435007068  0.4356736681259241  1.0000
  H   H298      1.0  0.5960634588158421  0.9681761708909729  0.42176835731678847  1.0000
  H   H299      1.0  0.6585202183471953  0.9360591717433111  0.40480555126923906  1.0000
  H   H300      1.0  0.6516642000482982  0.9258461951509459  0.4400704357629633  1.0000
  H   H301      1.0  0.6729511757393825  0.9483207662613193  0.4296192402982238  1.0000
  H   H302      1.0  0.6431407905128607  0.9788923197428648  0.3861868224005753  1.0000
  H   H303      1.0  0.6574448418381469  0.9911047035215459  0.4111418137545682  1.0000
  H   H304      1.0  0.6250529823051789  0.9993521264168987  0.40809086581843707  1.0000
  N   N7        1.0  0.7029592533266555  0.21023577074818886  0.8142567745735445  1.0000
  C   C373      1.0  0.6924402419563459  0.2136650739680481  0.8421664615457692  1.0000
  C   C374      1.0  0.6876714763803813  0.1950836592176341  0.8025543777055711  1.0000
  C   C375      1.0  0.7284095426721584  0.19761795885827096  0.8146178327904893  1.0000
  C   C376      1.0  0.7032715077535033  0.23460064504772446  0.7977382745370108  1.0000
  H   H305      1.0  0.7043830249860319  0.22365572491752023  0.8521796842251532  1.0000
  H   H306      1.0  0.6903122823423916  0.1956451764676205  0.854802663892412  1.0000
  H   H307      1.0  0.6739138311448688  0.2247223709838363  0.8425853524994842  1.0000
  H   H308      1.0  0.6684846616710419  0.20437995752513588  0.8015157533919798  1.0000
  H   H309      1.0  0.6950800725879579  0.19163404439767118  0.7817172713539304  1.0000
  H   H310      1.0  0.6865719595123797  0.17673357433700687  0.8147606800908075  1.0000
  H   H311      1.0  0.7367342892492907  0.19447467012669867  0.7938859007241197  1.0000
  H   H312      1.0  0.7288170811652328  0.17932727497271284  0.8272077171346804  1.0000
  H   H313      1.0  0.7405056427386183  0.2090111482386331  0.8227313171733184  1.0000
  H   H314      1.0  0.684333635033962  0.2445364974233144  0.7967078529448945  1.0000
  H   H315      1.0  0.7116719779642966  0.23274060308046293  0.7766819385023074  1.0000
  H   H316      1.0  0.714125707831712  0.24667719107952085  0.806445863933139  1.0000
  N   N8        1.0  0.786067347167202  0.11038959574468406  0.8120520299893962  1.0000
  C   C377      1.0  0.7943572848819926  0.1345902589285115  0.8009621274940656  1.0000
  C   C378      1.0  0.8078006007970207  0.09184285160961764  0.8161528029274783  1.0000
  C   C379      1.0  0.7711563549596256  0.10239831661333172  0.7929218789063093  1.0000
  C   C380      1.0  0.7709141805570376  0.11272305764595464  0.838141850020777  1.0000
  H   H317      1.0  0.8059567115222589  0.13347121529957143  0.78128486205526  1.0000
  H   H318      1.0  0.8058275858043825  0.14108650195264638  0.8148184756707774  1.0000
  H   H319      1.0  0.778513452738605  0.14903781161167995  0.7972623070665408  1.0000
  H   H320      1.0  0.8024552511881801  0.07285036320800119  0.8215548901894936  1.0000
  H   H321      1.0  0.821085126429789  0.0915630700208292  0.7976167580071033  1.0000
  H   H322      1.0  0.817811702783689  0.0955543397456756  0.8328894888101996  1.0000
  H   H323      1.0  0.7547069676911282  0.11604671888200047  0.7891965965387258  1.0000
  H   H324      1.0  0.7643176132956668  0.08433785574620901  0.8006857995314306  1.0000
  H   H325      1.0  0.7820165479190105  0.10015949799932455  0.7730587574216117  1.0000
  H   H326      1.0  0.7541950230433329  0.12632352558778892  0.8357156987601458  1.0000
  H   H327      1.0  0.7816075588976759  0.11853595180723375  0.8531903135031201  1.0000
  H   H328      1.0  0.7644688149019025  0.09475859040324752  0.8470039996212594  1.0000
  N   N9        1.0  0.5844644107510806  0.950593600077472  0.6039966576581659  1.0000
  C   C381      1.0  0.5903362952857948  0.9255388806650046  0.5954889431376525  1.0000
  C   C382      1.0  0.5590530958032628  0.9604663430015201  0.5984056346162557  1.0000
  C   C383      1.0  0.6018026560185612  0.9671301386591139  0.5888085329666614  1.0000
  C   C384      1.0  0.586425684562244  0.9493462130202698  0.6332827467969079  1.0000
  H   H329      1.0  0.6093180887720434  0.9172900772182374  0.5995511932530377  1.0000
  H   H330      1.0  0.5888530277609563  0.9259007028132643  0.5734848396824402  1.0000
  H   H331      1.0  0.5771968562700491  0.912809329905567  0.6062601414872846  1.0000
  H   H332      1.0  0.5453642688977782  0.9486830194720371  0.6098348770941381  1.0000
  H   H333      1.0  0.5541312810739738  0.9792833375464036  0.6044926040327474  1.0000
  H   H334      1.0  0.5567201857153549  0.9614983909009133  0.5765730781962533  1.0000
  H   H335      1.0  0.5977317886630132  0.9862416154745035  0.5946905792058512  1.0000
  H   H336      1.0  0.6005764225458832  0.968737269271781  0.5666368221963451  1.0000
  H   H337      1.0  0.6212226640673083  0.9603392502773195  0.5924975041952004  1.0000
  H   H338      1.0  0.5820859348510778  0.9680229708839732  0.6402756752474926  1.0000
  H   H339      1.0  0.6052672323489683  0.941719193291953  0.6384760932985896  1.0000
  H   H340      1.0  0.5730682416716719  0.9375303479740766  0.6453260657538857  1.0000
  N   N10       1.0  0.6152166072390709  0.4535610727652838  0.8677897962891847  1.0000
  C   C385      1.0  0.5917673738027143  0.44255477026559664  0.8735650387876328  1.0000
  C   C386      1.0  0.6116879993653781  0.4764940852163277  0.8488487573045582  1.0000
  C   C387      1.0  0.634487133637891  0.43564657677746255  0.8557247195437452  1.0000
  C   C388      1.0  0.6228394628287264  0.4595258686862939  0.8931886474904126  1.0000
  H   H341      1.0  0.593961637133118  0.42491889393405563  0.8873317638403981  1.0000
  H   H342      1.0  0.5851639152877768  0.4382368529902786  0.8548171648289369  1.0000
  H   H343      1.0  0.5769371708771661  0.45530536874309824  0.8833861260805494  1.0000
  H   H344      1.0  0.6289781586278018  0.48541159793135485  0.8441290124360034  1.0000
  H   H345      1.0  0.6058926390102046  0.4727176693668749  0.8294373813549331  1.0000
  H   H346      1.0  0.5971487116951506  0.4902381092257803  0.8575772830371508  1.0000
  H   H347      1.0  0.6374817657342431  0.41816777401276833  0.8697499016044197  1.0000
  H   H348      1.0  0.6525084421012559  0.4432389345925816  0.8512113346171968  1.0000
  H   H349      1.0  0.6293313323835437  0.4305299547216637  0.8366040764460188  1.0000
  H   H350      1.0  0.6402914230358634  0.46819535756253944  0.8896199952695942  1.0000
  H   H351      1.0  0.6260949050938935  0.4425259795295308  0.9077456635120533  1.0000
  H   H352      1.0  0.608468045229944  0.4725975256281714  0.9031853587454762  1.0000
  N   N11       1.0  0.5581578297977416  0.4251912290463713  0.12880268758339858  1.0000
  C   C389      1.0  0.5486323612269834  0.42651094742985723  0.15743578021870236  1.0000
  C   C390      1.0  0.5577477043669979  0.39984839323561217  0.12208807544055245  1.0000
  C   C391      1.0  0.5837406775991754  0.4315462567898441  0.12431783628889734  1.0000
  C   C392      1.0  0.5424760057262784  0.4428928693907105  0.11133002475869179  1.0000
  H   H353      1.0  0.5292795616076102  0.42191781739678313  0.16145783198228564  1.0000
  H   H354      1.0  0.5487398202480382  0.4454577504501374  0.1631479952689546  1.0000
  H   H355      1.0  0.5599612375856617  0.4133753682350153  0.17123302978379487  1.0000
  H   H356      1.0  0.565088314726859  0.3982230696401611  0.1006512565196238  1.0000
  H   H357      1.0  0.5691300147513996  0.3859227065592004  0.13507283005325613  1.0000
  H   H358      1.0  0.5385867110920942  0.39464879395386526  0.12490444546041743  1.0000
  H   H359      1.0  0.5961389721499757  0.41853583888530443  0.13708171019398885  1.0000
  H   H360      1.0  0.5846356226559559  0.45059799170767  0.12926928247382147  1.0000
  H   H361      1.0  0.5914470887072257  0.43086804254122496  0.1028137009633059  1.0000
  H   H362      1.0  0.5490717549673038  0.4423125037016991  0.08957366027285599  1.0000
  H   H363      1.0  0.5424409452082392  0.4622539913529928  0.11574325086200365  1.0000
  H   H364      1.0  0.5230046695914047  0.43869211373501393  0.11424570921809246  1.0000
  N   N12       1.0  0.8792347594465102  0.318498750652773  0.6320150348694608  1.0000
  C   C393      1.0  0.8733817296695376  0.2966206737632651  0.6208543424261876  1.0000
  C   C394      1.0  0.9027394248658613  0.31221159743109006  0.6443355935036678  1.0000
  C   C395      1.0  0.8592661588467357  0.3258889522270578  0.6528316142452297  1.0000
  C   C396      1.0  0.8815737095147002  0.3391797632777105  0.6101053462367365  1.0000
  H   H365      1.0  0.8557110416973991  0.3006353507632852  0.6114549831221953  1.0000
  H   H366      1.0  0.8715121511720101  0.28068013235986294  0.6369666917397788  1.0000
  H   H367      1.0  0.8881425750295255  0.29050280176663673  0.6051602028387775  1.0000
  H   H368      1.0  0.9020506824017215  0.295788724500795  0.6599250050449594  1.0000
  H   H369      1.0  0.9185064469821875  0.3079340362491748  0.628949669381469  1.0000
  H   H370      1.0  0.9071352839994571  0.32787413142499466  0.6542256935198886  1.0000
  H   H371      1.0  0.8635416834743407  0.34168239625619046  0.6625982173716096  1.0000
  H   H372      1.0  0.8564258984905024  0.31034597309621  0.6690978581276763  1.0000
  H   H373      1.0  0.8414009807624964  0.3316340161078647  0.6441332019425253  1.0000
  H   H374      1.0  0.8858207209965984  0.35597988552184884  0.6179387379664383  1.0000
  H   H375      1.0  0.8642950719087606  0.34432872683206683  0.6001164825185579  1.0000
  H   H376      1.0  0.8968547043740331  0.33447597959712005  0.5943073743087142  1.0000
  N   N13       1.0  0.9229699754665605  0.07532501001835756  0.9411023245542134  1.0000
  C   C397      1.0  0.9203830496119546  0.04902723030757028  0.9506313229660257  1.0000
  C   C398      1.0  0.904815119300536  0.09131492852615475  0.9571850208924904  1.0000
  C   C399      1.0  0.9185480712105972  0.08066377984072837  0.9122991612587302  1.0000
  C   C400      1.0  0.9481515749450946  0.08031808775218274  0.9443872364442671  1.0000
  H   H377      1.0  0.9012667380006013  0.04474150555465517  0.9497522473449017  1.0000
  H   H378      1.0  0.9246423724304295  0.04417146571750097  0.9719361573205282  1.0000
  H   H379      1.0  0.9331444772671446  0.03641700744807319  0.9383126272366051  1.0000
  H   H380      1.0  0.8856779249513566  0.08692752993507313  0.9567238186539132  1.0000
  H   H381      1.0  0.9086849460362341  0.08910578477133213  0.9786564470185052  1.0000
  H   H382      1.0  0.9050394834105115  0.11124977896073163  0.9493316811880105  1.0000
  H   H383      1.0  0.9198971339557096  0.10047805772187268  0.9045438360539944  1.0000
  H   H384      1.0  0.89971176199584  0.07701032367530591  0.9092268211332525  1.0000
  H   H385      1.0  0.931979340902198  0.06911606759759126  0.8994312529056295  1.0000
  H   H386      1.0  0.9623833833783026  0.06857856488435732  0.9325616266392427  1.0000
  H   H387      1.0  0.9520193140647744  0.0763502233643869  0.9659878645399332  1.0000
  H   H388      1.0  0.9507119667344027  0.10004400807856961  0.9375846438884924  1.0000
  N   N14       1.0  0.857476023247718  0.7074587089073007  0.398006334540352  1.0000
  C   C401      1.0  0.8454619105030566  0.6852745825946808  0.4093830234667537  1.0000
  C   C402      1.0  0.8727831824214205  0.713669145964912  0.4178571143110205  1.0000
  C   C403      1.0  0.8383820442045988  0.7284291491663514  0.3917627342602597  1.0000
  C   C404      1.0  0.873310316272611  0.7023830248650115  0.372986174685333  1.0000
  H   H389      1.0  0.8338250143877485  0.6799905155072882  0.39487616134840225  1.0000
  H   H390      1.0  0.8333715443445132  0.6882789539349816  0.42832763591264184  1.0000
  H   H391      1.0  0.859334026790332  0.6690482552654956  0.41422696937537895  1.0000
  H   H392      1.0  0.8821213328039124  0.7303405395081857  0.40989657922142464  1.0000
  H   H393      1.0  0.8614602856268259  0.7174749433009096  0.43706968603294655  1.0000
  H   H394      1.0  0.887363709900358  0.6981192076195049  0.4228678703642087  1.0000
  H   H395      1.0  0.8467052151461766  0.7453822438814333  0.38242248146128344  1.0000
  H   H396      1.0  0.8262631579396452  0.7330890783709316  0.4101787411804004  1.0000
  H   H397      1.0  0.8262907924143954  0.7241034615122466  0.3771482362259917  1.0000
  H   H398      1.0  0.8825977992479751  0.7187093044658375  0.3636094067312977  1.0000
  H   H399      1.0  0.8624110392401376  0.6974831744686862  0.3576320150327297  1.0000
  H   H400      1.0  0.8878523015357488  0.686501466463596  0.37678221338134754  1.0000
  N   N15       1.0  0.3038309421813256  0.0963728263303675  0.4897018811224831  1.0000
  C   C405      1.0  0.3000187937880838  0.0701027705198938  0.49068064548036666  1.0000
  C   C406      1.0  0.28946671200260654  0.11148671891553628  0.4689575515367787  1.0000
  C   C407      1.0  0.33029873818501193  0.09902311875882938  0.4827591960621567  1.0000
  C   C408      1.0  0.2956469084906607  0.10478663177669682  0.5164344500152835  1.0000
  H   H401      1.0  0.3060790778923459  0.0631077774887714  0.47085728157728474  1.0000
  H   H402      1.0  0.28024833082066686  0.06738370473042742  0.49584060606657837  1.0000
  H   H403      1.0  0.3106771159106662  0.05818175014582941  0.5061009543395344  1.0000
  H   H404      1.0  0.2918141840056148  0.13145282234880298  0.4676466900885941  1.0000
  H   H405      1.0  0.2955042295222466  0.10563339467839898  0.448595263523643  1.0000
  H   H406      1.0  0.26941467129911023  0.10967231758933385  0.4732180677229534  1.0000
  H   H407      1.0  0.34160498255751554  0.08831596621347258  0.4983267484665732  1.0000
  H   H408      1.0  0.3338804509961334  0.11867134373772484  0.4811047924975335  1.0000
  H   H409      1.0  0.33733587366827256  0.09219318368608928  0.46308854597537363  1.0000
  H   H410      1.0  0.3062021010212313  0.09354626166530992  0.5324562558287734  1.0000
  H   H411      1.0  0.27574256285702786  0.10308872757344656  0.5223703213481194  1.0000
  H   H412      1.0  0.2984984920115528  0.1244700888835836  0.5165310121272927  1.0000
  N   N16       1.0  0.6752899846791522  0.09180766580047792  0.9451921299281055  1.0000
  C   C409      1.0  0.6923245740599092  0.10630389257347746  0.9264502855113023  1.0000
  C   C410      1.0  0.6759029286031747  0.09761981832838793  0.9730008784441511  1.0000
  C   C411      1.0  0.6830054837626286  0.06509513362632637  0.9440273292893714  1.0000
  C   C412      1.0  0.6499629732360658  0.09823700858404044  0.9372575039599932  1.0000
  H   H413      1.0  0.6871620143399142  0.12657222736447177  0.9269478471343878  1.0000
  H   H414      1.0  0.6921906767896916  0.10253552256855351  0.9052270884309843  1.0000
  H   H415      1.0  0.7116603082161048  0.10175727051348465  0.9317002332974013  1.0000
  H   H416      1.0  0.6632199504538326  0.08711011279270817  0.98771617190907  1.0000
  H   H417      1.0  0.6948153771583474  0.09291564209952279  0.9796038284944978  1.0000
  H   H418      1.0  0.6702899345354361  0.1177229880197697  0.9744655293120476  1.0000
  H   H419      1.0  0.6705988765680244  0.05356225648776085  0.9579049308037908  1.0000
  H   H420      1.0  0.7021198658932112  0.05967751122151889  0.9498112398720773  1.0000
  H   H421      1.0  0.6827366519767931  0.060127126185502984  0.9232342462299448  1.0000
  H   H422      1.0  0.6488956223453952  0.09395949166262807  0.91635330107719  1.0000
  H   H423      1.0  0.6436492604644939  0.11836750068278708  0.9377287410800612  1.0000
  H   H424      1.0  0.6365628196339073  0.08777332468199084  0.9510155296163918  1.0000
  N   N17       1.0  0.5388336455111945  0.5478417279907404  0.9904919921098378  1.0000
  C   C413      1.0  0.5503900592692681  0.5232604056978833  0.9837087266549759  1.0000
  C   C414      1.0  0.5507986958911417  0.5547373900684315  0.012747877700674077  1.0000
  C   C415      1.0  0.5122728250164245  0.5468978461924207  0.9989262201036826  1.0000
  C   C416      1.0  0.5419887582569727  0.5664961132968669  0.9666073762139656  1.0000
  H   H425      1.0  0.5412862305254496  0.5171481774623842  0.9675775238663485  1.0000
  H   H426      1.0  0.5492457917908933  0.5088830493752539  0.001553970677617536  1.0000
  H   H427      1.0  0.5702866483152615  0.5234762611385259  0.9763680750364403  1.0000
  H   H428      1.0  0.5704922032984134  0.5570887966480302  0.00630759584175469  1.0000
  H   H429      1.0  0.5418951545499312  0.5725240862243953  0.01952389682592266  1.0000
  H   H430      1.0  0.5501663925489435  0.5404728013923136  0.03071023344303666  1.0000
  H   H431      1.0  0.5031014981713269  0.5651545609251347  0.004334020823507367  1.0000
  H   H432      1.0  0.5093039018308821  0.5329290585311095  0.0168080517408455  1.0000
  H   H433      1.0  0.5026487333126899  0.542149204497724  0.9823136028512373  1.0000
  H   H434      1.0  0.5617640442738882  0.5668111573977935  0.9588195861926117  1.0000
  H   H435      1.0  0.5347331492799179  0.5854540450210384  0.9714951621978862  1.0000
  H   H436      1.0  0.5319395694145439  0.5628514403754881  0.949895974257657  1.0000
  N   N18       1.0  0.9593988119362463  0.8837236931196408  0.025645323044651613  1.0000
  C   C417      1.0  0.9627755816020074  0.9075036524671666  0.03462024999829927  1.0000
  C   C418      1.0  0.9624518712610652  0.8860425035839745  0.9957922473052628  1.0000
  C   C419      1.0  0.9343956859992307  0.8773318397509161  0.03576006241085161  1.0000
  C   C420      1.0  0.9779816665901412  0.8640634273912877  0.036472017095919185  1.0000
  H   H437      1.0  0.9809052872756346  0.9136048459178114  0.026318062247952856  1.0000
  H   H438      1.0  0.9619030506580823  0.9060430759390696  0.05702052624187437  1.0000
  H   H439      1.0  0.9483626437134471  0.9225435540599783  0.027911805996102546  1.0000
  H   H440      1.0  0.9602924412346957  0.8683665446900402  0.98824777778115  1.0000
  H   H441      1.0  0.948673540474765  0.9007016367818161  0.9869806286530647  1.0000
  H   H442      1.0  0.9811336423531427  0.8909771246140468  0.9875638047077644  1.0000
  H   H443      1.0  0.9310709844355586  0.8595202622202118  0.029369168706790294  1.0000
  H   H444      1.0  0.9198412176769497  0.8918709340818085  0.028226425760457863  1.0000
  H   H445      1.0  0.9314701564929404  0.8754942550807567  0.05824859274421246  1.0000
  H   H446      1.0  0.9761795789154712  0.8458911321009268  0.02984508339885905  1.0000
  H   H447      1.0  0.9761480929934291  0.8617897496239897  0.058972419016405375  1.0000
  H   H448      1.0  0.9970559509957361  0.868379792421095  0.029396601993341598  1.0000
  N   N19       1.0  0.813981982868481  0.7281684836072223  0.1483899099013546  1.0000
  C   C421      1.0  0.8403182184365084  0.7188070281895019  0.1427566274522738  1.0000
  C   C422      1.0  0.8016768031469852  0.7099119863765235  0.16787218976664242  1.0000
  C   C423      1.0  0.8021103041054379  0.7321546236506797  0.12297900984414945  1.0000
  C   C424      1.0  0.8118347802599017  0.7517953601032911  0.16001113386952182  1.0000
  H   H449      1.0  0.842614317313966  0.7011324672582568  0.1336779568561628  1.0000
  H   H450      1.0  0.8497636880373396  0.7152119583020817  0.16158904885548164  1.0000
  H   H451      1.0  0.8502826772816459  0.7324137408126823  0.12851954132448262  1.0000
  H   H452      1.0  0.8027483273503652  0.6918617727915912  0.15973641611499256  1.0000
  H   H453      1.0  0.8103244527312862  0.7063480721309796  0.1872554663277648  1.0000
  H   H454      1.0  0.7817579736419465  0.7163563425162311  0.1726372113724779  1.0000
  H   H455      1.0  0.7824287912937122  0.7401544543403024  0.1262203640501911  1.0000
  H   H456      1.0  0.8025087701785143  0.7145202898131284  0.11420258615987611  1.0000
  H   H457      1.0  0.8116459949993574  0.7451423109132975  0.10752159369808734  1.0000
  H   H458      1.0  0.8198973064908267  0.7492257248824086  0.17964693361091832  1.0000
  H   H459      1.0  0.7922277809495714  0.7597087741094709  0.16373124141607498  1.0000
  H   H460      1.0  0.8216875670029072  0.76579391816321  0.1462224251320392  1.0000
  N   N20       1.0  0.05258599859512615  0.1821581344231524  0.10749837554833634  1.0000
  C   C425      1.0  0.04286053354199719  0.16919505855858455  0.08778553316801202  1.0000
  C   C426      1.0  0.07815611842579948  0.18685771241720198  0.09774978465692713  1.0000
  C   C427      1.0  0.05227523649438359  0.1665123066079097  0.13383950221112623  1.0000
  C   C428      1.0  0.03720539499208021  0.20599634611690265  0.11075543451764915  1.0000
  H   H461      1.0  0.023629180715908686  0.16519647158074902  0.09451395419446101  1.0000
  H   H462      1.0  0.05426358028937561  0.15107993603943154  0.08517342356587607  1.0000
  H   H463      1.0  0.04297686583307012  0.18032524330567187  0.06756581252134655  1.0000
  H   H464      1.0  0.08626043172892149  0.19622861899567212  0.11240260073180576  1.0000
  H   H465      1.0  0.09022899741832056  0.169261906188568  0.0947441323876377  1.0000
  H   H466      1.0  0.07911469475506311  0.1988829206624604  0.07808127023804261  1.0000
  H   H467      1.0  0.05975984308468502  0.1755908225111115  0.14915202039150544  1.0000
  H   H468      1.0  0.0636154387179739  0.14832333331941222  0.13209132638124266  1.0000
  H   H469      1.0  0.03327856273882076  0.16265916435222488  0.14192312900519036  1.0000
  H   H470      1.0  0.04434466490013973  0.21599345056939237  0.12562376192213273  1.0000
  H   H471      1.0  0.017785521805407  0.20321496263529218  0.11823936170329549  1.0000
  H   H472      1.0  0.03708309888831205  0.2183926207946248  0.09131798412091305  1.0000
  N   N21       1.0  0.7226769080130772  0.7517323617609363  0.26474088203808355  1.0000
  C   C429      1.0  0.7025883779604458  0.7441642816172814  0.2518423496316212  1.0000
  C   C430      1.0  0.7461231769949028  0.7475770119008788  0.24736744636037208  1.0000
  C   C431      1.0  0.7247197940103146  0.7369309338394523  0.2913977331414694  1.0000
  C   C432      1.0  0.7171850569715776  0.7782855664554978  0.2682523653800434  1.0000
  H   H473      1.0  0.7060961044072235  0.7244158348100875  0.24825336298578493  1.0000
  H   H474      1.0  0.7004215814063501  0.7552088888249787  0.2318618598577015  1.0000
  H   H475      1.0  0.6846021446580998  0.7466326067466822  0.2644983320184986  1.0000
  H   H476      1.0  0.7447594472671607  0.7574499514126961  0.22664416238312088  1.0000
  H   H477      1.0  0.7614914634401343  0.7541135088646826  0.25591843090375327  1.0000
  H   H478      1.0  0.7513485999314073  0.7275224759560127  0.24547325327154926  1.0000
  H   H479      1.0  0.7417613673209335  0.7395787296097479  0.3000088947120846  1.0000
  H   H480      1.0  0.725669156128141  0.7167912525843491  0.2899992477550651  1.0000
  H   H481      1.0  0.7086507101987053  0.7419040520665878  0.30615332277836427  1.0000
  H   H482      1.0  0.7315598090055507  0.7844892537923016  0.2787866268623375  1.0000
  H   H483      1.0  0.6992332349647572  0.7821270655927622  0.2806750634161583  1.0000
  H   H484      1.0  0.7158121796553123  0.7900870190886204  0.24850312606229677  1.0000
  N   N22       1.0  0.13785641212610114  0.7585517032238993  0.8474008571610379  1.0000
  C   C433      1.0  0.1211463081109965  0.7451948005476804  0.8677149933701176  1.0000
  C   C434      1.0  0.15500992170980554  0.7698500997493741  0.8612926596377661  1.0000
  C   C435      1.0  0.1231780444471413  0.778108183123192  0.8307891270333827  1.0000
  C   C436      1.0  0.15205534525212294  0.7409459256283351  0.8298455897273762  1.0000
  H   H485      1.0  0.10778486219219925  0.736723582150465  0.8578353218006313  1.0000
  H   H486      1.0  0.1103400983126558  0.7579035507025658  0.8815448449031057  1.0000
  H   H487      1.0  0.13167468622436462  0.730109568023101  0.8803122959626581  1.0000
  H   H488      1.0  0.1677589837962576  0.7803046404153445  0.8465721316686307  1.0000
  H   H489      1.0  0.1448430700333328  0.7828783647759996  0.8751452853297745  1.0000
  H   H490      1.0  0.16647413533664743  0.7554863132014578  0.8738061152333323  1.0000
  H   H491      1.0  0.13517210370309982  0.7884900871360869  0.8150625401432284  1.0000
  H   H492      1.0  0.11200757916741633  0.7916029973472133  0.8434295776970595  1.0000
  H   H493      1.0  0.11001973011743418  0.7701196368557787  0.8201049867468876  1.0000
  H   H494      1.0  0.16504950492884252  0.750340330583243  0.8144443364072509  1.0000
  H   H495      1.0  0.139722217580047  0.7322860787834513  0.8187785508018747  1.0000
  H   H496      1.0  0.16309685848409372  0.7256486206446463  0.8416760123328925  1.0000
  N   N23       1.0  0.545146928910435  0.6715700662808778  0.12853922238176618  1.0000
  C   C437      1.0  0.5698096115668135  0.6742606413207607  0.1139848062361076  1.0000
  C   C438      1.0  0.535718599388364  0.6943312827709845  0.14102922426015033  1.0000
  C   C439      1.0  0.5469490942300779  0.6502393040883155  0.1498701636643209  1.0000
  C   C440      1.0  0.5281452829791693  0.6674434689677147  0.10929817359967427  1.0000
  H   H497      1.0  0.5692559194165786  0.6901981408197586  0.09775452318322629  1.0000
  H   H498      1.0  0.5774859991167464  0.6573937371508619  0.10431687956720516  1.0000
  H   H499      1.0  0.5831753653251338  0.6772896212072238  0.1278879714291196  1.0000
  H   H500      1.0  0.517087779373459  0.6929415762113125  0.15211736283808672  1.0000
  H   H501      1.0  0.54816864467278  0.6978642413536045  0.1557118178448059  1.0000
  H   H502      1.0  0.5342552560686317  0.7108471105303334  0.12554105950488254  1.0000
  H   H503      1.0  0.5287063962911118  0.6475546936369866  0.1613086824882385  1.0000
  H   H504      1.0  0.5599072701963251  0.6524759804512705  0.16460179262450317  1.0000
  H   H505      1.0  0.5539437658716333  0.6327375932503259  0.14122790398212468  1.0000
  H   H506      1.0  0.5095050366619112  0.6645188685187294  0.11963247931771358  1.0000
  H   H507      1.0  0.5350306481586875  0.6506944925988413  0.09908302229574521  1.0000
  H   H508      1.0  0.5258864982099117  0.6833507750742788  0.0931943742366508  1.0000
  N   N24       1.0  0.2696501328950624  0.37711861279956516  0.19054855791746816  1.0000
  C   C441      1.0  0.2815200420312666  0.3752018396915574  0.1627730608521682  1.0000
  C   C442      1.0  0.27228237802944305  0.40161678963426206  0.1982882594723204  1.0000
  C   C443      1.0  0.28170646286111456  0.3575262221165555  0.20946296655411625  1.0000
  C   C444      1.0  0.2431854200928413  0.3741336120301258  0.19174547706256728  1.0000
  H   H509      1.0  0.28071651505079553  0.3566340189256907  0.15648421438737553  1.0000
  H   H510      1.0  0.3013389691591716  0.378105089706968  0.16104581728141099  1.0000
  H   H511      1.0  0.2724845610350656  0.38922775315859476  0.1477855619955099  1.0000
  H   H512      1.0  0.2636597215852974  0.40364131561354494  0.21920694489762715  1.0000
  H   H513      1.0  0.29209816578812153  0.4044042394325359  0.19755089471533957  1.0000
  H   H514      1.0  0.2634168685669069  0.4168760973905627  0.184429852087281  1.0000
  H   H515      1.0  0.2808778311985016  0.3388333377563077  0.20362353085282173  1.0000
  H   H516      1.0  0.2725321270184725  0.3576916579893143  0.23045177795783098  1.0000
  H   H517      1.0  0.3014466050283415  0.35977337172525004  0.20994667900435235  1.0000
  H   H518      1.0  0.24056577309206092  0.35579172492690087  0.18615341995820875  1.0000
  H   H519      1.0  0.23338415368300666  0.3885583508548876  0.17776359222559565  1.0000
  H   H520      1.0  0.23372154206399107  0.3751444030734444  0.21252300156041518  1.0000
  N   N25       1.0  0.6957557536618983  0.0690222689546914  0.6867560326316778  1.0000
  C   C445      1.0  0.6796686055736634  0.09218284254478033  0.6912917456467759  1.0000
  C   C446      1.0  0.6809214472551444  0.05103753700077058  0.6789459481658985  1.0000
  C   C447      1.0  0.706804912302613  0.058554941727798814  0.7118848928320954  1.0000
  C   C448      1.0  0.7155891688349163  0.07439992432903406  0.6650371035741591  1.0000
  H   H521      1.0  0.6902233579459996  0.10618875713966178  0.6973337327521025  1.0000
  H   H522      1.0  0.6645486871166477  0.08872671185756535  0.7076006652608757  1.0000
  H   H523      1.0  0.6708083816937291  0.10057310614967108  0.6728655793246211  1.0000
  H   H524      1.0  0.6924284731534124  0.033336165791213644  0.6752203631886413  1.0000
  H   H525      1.0  0.6659903020414785  0.04651606149353823  0.695214715339916  1.0000
  H   H526      1.0  0.6718496046317446  0.05848575654389852  0.6603706342696988  1.0000
  H   H527      1.0  0.719402109115359  0.04127004777311549  0.7091745556195258  1.0000
  H   H528      1.0  0.6923593580198181  0.053873760080000936  0.7285655764055887  1.0000
  H   H529      1.0  0.7175941186387393  0.07187923936428366  0.7188305962017493  1.0000
  H   H530      1.0  0.7281070450069982  0.057331938353187686  0.6610275580715452  1.0000
  H   H531      1.0  0.7270837858600935  0.08786303453415906  0.670615181972671  1.0000
  H   H532      1.0  0.707912107878883  0.08252779020214214  0.6458163554527421  1.0000
  N   N26       1.0  0.018310740700392573  0.6091067922597758  0.4994005824474638  1.0000
  C   C449      1.0  0.007319345120453294  0.6314082697628751  0.48311692390065986  1.0000
  C   C450      1.0  0.03410739439755673  0.6166430402308904  0.5179769879190762  1.0000
  C   C451      1.0  0.03327985007636604  0.5923785721459942  0.4813558842680192  1.0000
  C   C452      1.0  0.9985111805699354  0.5960097120195734  0.5152176619280956  1.0000
  H   H533      1.0  0.02175905966866048  0.641710611635254  0.47093193061712674  1.0000
  H   H534      1.0  0.9957533918822017  0.6442474023576534  0.496170896063348  1.0000
  H   H535      1.0  0.9952832621628256  0.6265461610187549  0.46880947789159844  1.0000
  H   H536      1.0  0.042542195302276646  0.6004100992171226  0.5308401680413752  1.0000
  H   H537      1.0  0.049429889407841335  0.6263229552852996  0.5067671473206408  1.0000
  H   H538      1.0  0.023336582139666055  0.6292871424598229  0.5318267087643476  1.0000
  H   H539      1.0  0.04189929030142563  0.5753957703411787  0.49310842239717634  1.0000
  H   H540      1.0  0.04838676212363051  0.6015528375081608  0.46896929968660833  1.0000
  H   H541      1.0  0.021777385032580872  0.5862595204037723  0.4672242589707755  1.0000
  H   H542      1.0  0.00629343670587115  0.5786713742159019  0.5269789303275463  1.0000
  H   H543      1.0  0.9858118977019756  0.5907235689763225  0.5018865541147914  1.0000
  H   H544      1.0  0.9872062486983706  0.6077372601017097  0.529659308874043  1.0000
  N   N27       1.0  0.8714502870506906  0.5559078094067773  0.6285254005672105  1.0000
  C   C453      1.0  0.8526165906365766  0.568330697358358  0.6473482786605973  1.0000
  C   C454      1.0  0.8742452003665864  0.5289479605211903  0.6371467519979127  1.0000
  C   C455      1.0  0.8952330257394013  0.5656141491914657  0.6286934376679454  1.0000
  C   C456      1.0  0.863666872139979  0.5609086352749212  0.6009152280372467  1.0000
  H   H545      1.0  0.8500153812345201  0.5887250376603306  0.6413576086944306  1.0000
  H   H546      1.0  0.8580025291815864  0.5650613623285778  0.6683469253606237  1.0000
  H   H547      1.0  0.8344241079312751  0.5614047221192427  0.6477277490002359  1.0000
  H   H548      1.0  0.8801037926641065  0.5244844939532398  0.6578952003925258  1.0000
  H   H549      1.0  0.8566118732933644  0.5209789380177788  0.6373557007560399  1.0000
  H   H550      1.0  0.8882158246242527  0.5188889413143765  0.6233562584740252  1.0000
  H   H551      1.0  0.8935312917458164  0.5859150321059777  0.622465196185999  1.0000
  H   H552      1.0  0.9098550934107436  0.5570690145795922  0.6143725113353885  1.0000
  H   H553      1.0  0.9020302867209831  0.5620479810829289  0.649062461398412  1.0000
  H   H554      1.0  0.8459909137673373  0.5535196128806383  0.5997679106173903  1.0000
  H   H555      1.0  0.8778008415393604  0.5524720779133372  0.5859941481270323  1.0000
  H   H556      1.0  0.8609085647272211  0.58114216159112  0.594046181164652  1.0000
  N   N28       1.0  0.6380775398620326  0.8138682543232503  0.3830902424372257  1.0000
  C   C457      1.0  0.6295683628368599  0.8007283849213866  0.4095137931011886  1.0000
  C   C458      1.0  0.6414101258122181  0.7967065078303188  0.3622709180649668  1.0000
  C   C459      1.0  0.6618160322545412  0.8230601494769991  0.3850141753108143  1.0000
  C   C460      1.0  0.6195260008366509  0.8349979184576867  0.37564280741430506  1.0000
  H   H557      1.0  0.6116543372745608  0.7935771568562705  0.40884996826364567  1.0000
  H   H558      1.0  0.626865847920562  0.8132195754886256  0.4256787887326257  1.0000
  H   H559      1.0  0.6431956121449398  0.7847057206467263  0.4157732307296465  1.0000
  H   H560      1.0  0.6478451087649095  0.8060575350388167  0.3421043285109322  1.0000
  H   H561      1.0  0.6555589235333302  0.7806974997140795  0.36707085545985113  1.0000
  H   H562      1.0  0.623921485436332  0.7892981099792281  0.36027927092541523  1.0000
  H   H563      1.0  0.6765439823504963  0.8075545012216881  0.38956329418227026  1.0000
  H   H564      1.0  0.66021874320291  0.835363246919755  0.401163548736597  1.0000
  H   H565      1.0  0.6684020556918886  0.8337936799049445  0.36570419472336735  1.0000
  H   H566      1.0  0.6257873054517812  0.8461158775122245  0.3564093427903233  1.0000
  H   H567      1.0  0.6158878272207764  0.8477068072333737  0.3915048475066456  1.0000
  H   H568      1.0  0.6016090060130874  0.8287671942143106  0.3729960913490095  1.0000
  N   N29       1.0  0.16483257079938013  0.7512813536254057  0.6955297433345805  1.0000
  C   C461      1.0  0.16425258826025602  0.7781705214225217  0.6963718924256848  1.0000
  C   C462      1.0  0.14975113100160609  0.7405489071528707  0.7194316297645055  1.0000
  C   C463      1.0  0.1905367079286418  0.7392721043387558  0.6956208979567698  1.0000
  C   C464      1.0  0.15460735645851484  0.7471509755513637  0.6707853303876445  1.0000
  H   H569      1.0  0.1769143384929629  0.7866700717700715  0.6798480955635481  1.0000
  H   H570      1.0  0.1697661054659901  0.7820411442518626  0.715869081080877  1.0000
  H   H571      1.0  0.14542713753853465  0.7880535795653304  0.6942596733115618  1.0000
  H   H572      1.0  0.1498219463904465  0.7202438832810987  0.7196285634198524  1.0000
  H   H573      1.0  0.1567333435065654  0.7434012283202024  0.7385833820028316  1.0000
  H   H574      1.0  0.13029748635685512  0.7492290077755098  0.7198446065800475  1.0000
  H   H575      1.0  0.19156155452096807  0.7188910302062983  0.6955692684566247  1.0000
  H   H576      1.0  0.19872566602887892  0.7423384113052405  0.7139848915440888  1.0000
  H   H577      1.0  0.20248449584826503  0.7467502247562504  0.6777690073852422  1.0000
  H   H578      1.0  0.13506979133368827  0.7558312630850544  0.670465722112792  1.0000
  H   H579      1.0  0.154787786841615  0.7270504229413881  0.6694556737122167  1.0000
  H   H580      1.0  0.165308424981651  0.7553179681537084  0.6523005891428448  1.0000
  N   N30       1.0  0.2865493607006302  0.05150329509795215  0.32101835379370613  1.0000
  C   C465      1.0  0.30344692420923713  0.05892536065436116  0.3384914905416359  1.0000
  C   C466      1.0  0.288271614404523  0.06694986607903641  0.2945192319358421  1.0000
  C   C467      1.0  0.26098261295192676  0.054946446740220756  0.3340173874181355  1.0000
  C   C468      1.0  0.2934188982596464  0.025176342475969893  0.31709103812963496  1.0000
  H   H581      1.0  0.30241357287268683  0.047789250905163616  0.3587477007988845  1.0000
  H   H582      1.0  0.2987036008760851  0.07869096066331438  0.34196392372502127  1.0000
  H   H583      1.0  0.3229593516745607  0.05661504315630195  0.32944853609664365  1.0000
  H   H584      1.0  0.27541223757200006  0.06216740760221873  0.28096335056362687  1.0000
  H   H585      1.0  0.283242196108526  0.08695357666523829  0.296715628370454  1.0000
  H   H586      1.0  0.3072521118137957  0.0647686187184513  0.28397737064633427  1.0000
  H   H587      1.0  0.24752536619922436  0.05017426542870207  0.3211787177588238  1.0000
  H   H588      1.0  0.25546730445962257  0.0744689797810536  0.337696315812804  1.0000
  H   H589      1.0  0.2588703686866325  0.04355465370238942  0.3540701880388695  1.0000
  H   H590      1.0  0.2809475909851272  0.01903016253311418  0.3040260143668665  1.0000
  H   H591      1.0  0.2922603770835539  0.01303686696258799  0.33673121577365533  1.0000
  H   H592      1.0  0.31262878686735474  0.02188115197312701  0.30732798255605426  1.0000
  N   N31       1.0  0.3889450865125073  0.9153712538461914  0.5356854066021111  1.0000
  C   C469      1.0  0.4161974910799663  0.9129019908271412  0.533417290239624  1.0000
  C   C470      1.0  0.3789702907798759  0.9416068780456041  0.5370033752612818  1.0000
  C   C471      1.0  0.37971208828418246  0.9002158930356797  0.5604482473450679  1.0000
  C   C472      1.0  0.3808168045402873  0.9067064552357483  0.5119257625010888  1.0000
  H   H593      1.0  0.4238528676049316  0.9235744094174712  0.5145784454382135  1.0000
  H   H594      1.0  0.42430992720549326  0.8932219385904578  0.5331316317491066  1.0000
  H   H595      1.0  0.422917855387513  0.9196140616295156  0.5508716763303102  1.0000
  H   H596      1.0  0.35850934190844236  0.9442319952142313  0.5376344951992351  1.0000
  H   H597      1.0  0.3837299405697358  0.9485093447541072  0.5553450343850371  1.0000
  H   H598      1.0  0.38625639192005884  0.9537655880969349  0.5191413989984092  1.0000
  H   H599      1.0  0.3858008869391168  0.9060637566267152  0.5786453188584462  1.0000
  H   H600      1.0  0.38685254265854724  0.8802732836017989  0.5602404044727229  1.0000
  H   H601      1.0  0.35918649994861007  0.9019969523115889  0.5631642427182945  1.0000
  H   H602      1.0  0.38680103581582664  0.9182033193876843  0.4929576485346845  1.0000
  H   H603      1.0  0.36035838504606044  0.9078604968819881  0.5132743198720371  1.0000
  H   H604      1.0  0.3886007146318115  0.8871933846599853  0.5098602862170574  1.0000
  N   N32       1.0  0.9883298850412716  0.9788477375125991  0.17431472349265043  1.0000
  C   C473      1.0  0.9648165054859016  0.9715222428845015  0.16829941659361236  1.0000
  C   C474      1.0  0.008155573343047047  0.9716125089631445  0.15331975882474042  1.0000
  C   C475      1.0  0.9946126679931713  0.966262810530493  0.20094659984067514  1.0000
  C   C476      1.0  0.9858145893419396  0.005975472874806487  0.17460539453981486  1.0000
  H   H605      1.0  0.9493647812865792  0.9766542757689586  0.1836661115897351  1.0000
  H   H606      1.0  0.9661492628756732  0.9511825095422088  0.16755362101524332  1.0000
  H   H607      1.0  0.9596509923782067  0.9805946059494324  0.14821357375778377  1.0000
  H   H608      1.0  0.010377940596915302  0.9513285489130792  0.15203880174234602  1.0000
  H   H609      1.0  0.004006578771739514  0.980947843010599  0.13312117691251743  1.0000
  H   H610      1.0  0.02619944945575855  0.9770325089321078  0.156932582274786  1.0000
  H   H611      1.0  0.012311210893525095  0.9714178380782751  0.20597575825247139  1.0000
  H   H612      1.0  0.9967043766376678  0.9457619679671311  0.2012879655994832  1.0000
  H   H613      1.0  0.9800494500081304  0.9712804635949073  0.2173113947788127  1.0000
  H   H614      1.0  0.003398794814375683  0.012220404857766765  0.17853955409560648  1.0000
  H   H615      1.0  0.9711340151243001  0.012216520702437617  0.1902646804877179  1.0000
  H   H616      1.0  0.981131419600015  0.01602852077570538  0.15473087172106947  1.0000
  N   N33       1.0  0.8330554465675294  0.9739210626975079  0.06590811911680369  1.0000
  C   C477      1.0  0.8059622474957884  0.9742305459300147  0.06857109834094226  1.0000
  C   C478      1.0  0.8439261457705608  0.9616374264469821  0.0420508118941866  1.0000
  C   C479      1.0  0.8429462890141954  0.960205748190492  0.09048586209806309  1.0000
  C   C480      1.0  0.8393581179015355  0.999591795009249  0.062482964570686535  1.0000
  H   H617      1.0  0.7979326368166982  0.9844426813378699  0.05031225264694291  1.0000
  H   H618      1.0  0.7971024145342649  0.9833416120627002  0.08638261803346403  1.0000
  H   H619      1.0  0.8006682371791748  0.9550849862949327  0.07116111339931279  1.0000
  H   H620      1.0  0.8642964884266384  0.961554053970839  0.03899580253336228  1.0000
  H   H621      1.0  0.840132104038824  0.9420014972231636  0.04421050106089412  1.0000
  H   H622      1.0  0.8365335218961567  0.971240776370087  0.023187723452601883  1.0000
  H   H623      1.0  0.8386093256322652  0.9406990905276993  0.09365018120054319  1.0000
  H   H624      1.0  0.8351555784286447  0.9689075488159594  0.10890645881071755  1.0000
  H   H625      1.0  0.8633803512352803  0.9594764363061381  0.08906893326352608  1.0000
  H   H626      1.0  0.8597115181181205  0.9999867497682288  0.06007715758850662  1.0000
  H   H627      1.0  0.8316161196801319  0.009445864041728314  0.08013156338136287  1.0000
  H   H628      1.0  0.832090770705261  0.010500882953706325  0.044147520413911394  1.0000
  N   N34       1.0  0.051091170139035864  0.43726930227885724  0.36965317490184346  1.0000
  C   C481      1.0  0.06289640310160258  0.41894689349719366  0.3515963866041987  1.0000
  C   C482      1.0  0.06216846615610202  0.43244882049220273  0.3955711396039156  1.0000
  C   C483      1.0  0.024374936839603262  0.43516275984693953  0.37467629014818343  1.0000
  C   C484      1.0  0.054869142862908775  0.46252258284757647  0.3568274182321121  1.0000
  H   H629      1.0  0.08312332696594485  0.4197642601895792  0.34748078881253536  1.0000
  H   H630      1.0  0.05496827170300701  0.421928944338744  0.33184009862768304  1.0000
  H   H631      1.0  0.060181282890579196  0.3997690755315146  0.3607077159115696  1.0000
  H   H632      1.0  0.05396676371213291  0.4461712529538524  0.4095286095021052  1.0000
  H   H633      1.0  0.05920335278754841  0.41380847663617387  0.4061564283605143  1.0000
  H   H634      1.0  0.08240866563073969  0.4333697992159471  0.39258979137912164  1.0000
  H   H635      1.0  0.01485382963813624  0.44882334480421987  0.388124847995829  1.0000
  H   H636      1.0  0.020874783877928786  0.4163795155097211  0.3845553742915033  1.0000
  H   H637      1.0  0.01545671500604158  0.43845803078103085  0.35552947770323273  1.0000
  H   H638      1.0  0.046116118855731365  0.4767426050251976  0.3700506506595283  1.0000
  H   H639      1.0  0.0466972005775362  0.4668629075394941  0.3372404993761391  1.0000
  H   H640      1.0  0.07483382389265267  0.4648014003961741  0.3528588469596908  1.0000
  N   N35       1.0  0.07827354226750005  0.6929890206394318  0.9237636036893562  1.0000
  C   C485      1.0  0.06291260002051113  0.6772982712254609  0.9432241883733612  1.0000
  C   C486      1.0  0.10452369949026075  0.6827905739660292  0.9242127696764159  1.0000
  C   C487      1.0  0.07476851952627905  0.7184413084640152  0.9312856788007767  1.0000
  C   C488      1.0  0.07089168065660556  0.6934731051177858  0.8963066716600298  1.0000
  H   H641      1.0  0.04297412486787344  0.6844336284190902  0.943279711443395  1.0000
  H   H642      1.0  0.06793481609426522  0.6766992537491447  0.9641795682843951  1.0000
  H   H643      1.0  0.06523372340687517  0.657911310602419  0.9382095214184593  1.0000
  H   H644      1.0  0.10803647133724859  0.6636750237651714  0.9183197060667688  1.0000
  H   H645      1.0  0.11669019297675298  0.6942058809901274  0.909857302302796  1.0000
  H   H646      1.0  0.11083079795805806  0.6820771025243196  0.9446086257493431  1.0000
  H   H647      1.0  0.0859129325714636  0.7308299242127614  0.916893209088914  1.0000
  H   H648      1.0  0.0804790316456625  0.7190183354977231  0.9517451314586802  1.0000
  H   H649      1.0  0.05517440975811816  0.7267977059960343  0.9313119694899743  1.0000
  H   H650      1.0  0.08219655022349759  0.7050688808308948  0.8811524949942953  1.0000
  H   H651      1.0  0.0512857743956292  0.7014475336159091  0.8949583162262832  1.0000
  H   H652      1.0  0.07318504700630646  0.6746174909685569  0.889835456922056  1.0000
  N   N36       1.0  0.2485874632042487  0.7806948418604771  0.8568835595213719  1.0000
  C   C489      1.0  0.2567001315884067  0.7546864945589354  0.8669783683983379  1.0000
  C   C490      1.0  0.2300150439771844  0.791686683620958  0.8770370881760032  1.0000
  C   C491      1.0  0.2375977271497562  0.7815070878264645  0.8312551952376239  1.0000
  C   C492      1.0  0.2700326487289772  0.7949147611122408  0.8522223389772211  1.0000
  H   H653      1.0  0.2702522366321485  0.7455500878310539  0.8520006044079919  1.0000
  H   H654      1.0  0.24085338787971003  0.743676853802758  0.8712262487309336  1.0000
  H   H655      1.0  0.2652353545409143  0.7532794302677253  0.8862545439936661  1.0000
  H   H656      1.0  0.22458222624071528  0.8116994894441716  0.8707848946255334  1.0000
  H   H657      1.0  0.2130085709060627  0.782286982024017  0.8800071733958469  1.0000
  H   H658      1.0  0.23715311288184232  0.7900418298739177  0.8971438087076823  1.0000
  H   H659      1.0  0.25158297857204515  0.7749506157972844  0.8150938419039616  1.0000
  H   H660      1.0  0.22989527154040132  0.8006728662793443  0.8239456532641167  1.0000
  H   H661      1.0  0.22243712933212376  0.7695770632474728  0.833527210926599  1.0000
  H   H662      1.0  0.2784781571278025  0.7950219582415572  0.8712849079464206  1.0000
  H   H663      1.0  0.26459819964848025  0.8145621898837083  0.8441714365780512  1.0000
  H   H664      1.0  0.28453774333016496  0.7870108862319819  0.8373085138170457  1.0000
  N   N37       1.0  0.7121590398274456  0.8669185013639373  0.1344488954589389  1.0000
  C   C493      1.0  0.7302485294955569  0.8614541851068056  0.11115617265522815  1.0000
  C   C494      1.0  0.7215889273724507  0.8540680835248902  0.1596402283988918  1.0000
  C   C495      1.0  0.6884631484901682  0.8582479856069994  0.13119862461741194  1.0000
  C   C496      1.0  0.7083292509902671  0.8939009483226724  0.13586738637647433  1.0000
  H   H665      1.0  0.7241064577442791  0.8714132409594347  0.09187547696517084  1.0000
  H   H666      1.0  0.7328855914430372  0.8413540568204348  0.1089492787371984  1.0000
  H   H667      1.0  0.7486378079788473  0.8669567776968587  0.11343857767087973  1.0000
  H   H668      1.0  0.7402995957588561  0.8587604886654754  0.16177699886754082  1.0000
  H   H669      1.0  0.7093022597335105  0.8592212514106211  0.1777821102435988  1.0000
  H   H670      1.0  0.7227428554297026  0.8336696234895077  0.1602247590470769  1.0000
  H   H671      1.0  0.6907207835716433  0.8379025464270494  0.1299947045117691  1.0000
  H   H672      1.0  0.6807986283090982  0.8674880626846042  0.11237584574220305  1.0000
  H   H673      1.0  0.6744466937055991  0.8620207433841093  0.14855154334046605  1.0000
  H   H674      1.0  0.7007920818422534  0.9041922730118498  0.117426735359621  1.0000
  H   H675      1.0  0.7259637531222538  0.9010856482575638  0.1378062393416588  1.0000
  H   H676      1.0  0.6952321645316146  0.8985847683322927  0.1536550831449346  1.0000
  N   N38       1.0  0.7921977260576771  0.18228652981853352  0.9001124015501791  1.0000
  C   C497      1.0  0.8009607463941131  0.1911286850889849  0.8719382763377979  1.0000
  C   C498      1.0  0.8105324240643046  0.16259397401361225  0.9112516285742794  1.0000
  C   C499      1.0  0.7684659797042016  0.17226349853504486  0.900660085841958  1.0000
  C   C500      1.0  0.7888977841838689  0.20307152180062243  0.9166426618626669  1.0000
  H   H677      1.0  0.8038982665215022  0.17592131767346036  0.8588956968509072  1.0000
  H   H678      1.0  0.8188813294312375  0.19880905377681649  0.8707544788097217  1.0000
  H   H679      1.0  0.7876124545401122  0.20617328289624934  0.8629985448411461  1.0000
  H   H680      1.0  0.804192980385138  0.15480262687748256  0.9321534051112322  1.0000
  H   H681      1.0  0.814147671602763  0.14695475188139878  0.8988104863216392  1.0000
  H   H682      1.0  0.8284159696199075  0.1696850258834685  0.9121737163228002  1.0000
  H   H683      1.0  0.770458071891545  0.15615891406161708  0.8889773901737614  1.0000
  H   H684      1.0  0.754193143304424  0.18656908251438667  0.8922203926437291  1.0000
  H   H685      1.0  0.7611917701768631  0.16583779252992806  0.9216704867229241  1.0000
  H   H686      1.0  0.7723128783523351  0.21628738379068616  0.9121361949401559  1.0000
  H   H687      1.0  0.8052026109102053  0.21353967617573957  0.9134465207554334  1.0000
  H   H688      1.0  0.7863122023483277  0.19648307695166975  0.9385499707708814  1.0000
  N   N39       1.0  0.9993746894052701  0.6848563641319049  0.6448078907259333  1.0000
  C   C501      1.0  0.9760230566781708  0.6739876122932725  0.6458864213146245  1.0000
  C   C502      1.0  0.00018412185203373787  0.6952296613393896  0.6703504037872127  1.0000
  C   C503      1.0  0.0008203182042066366  0.7046806267510248  0.6218537729200797  1.0000
  C   C504      1.0  0.02044479771873287  0.6654508299154593  0.6411388493681227  1.0000
  H   H689      1.0  0.9744923349499598  0.6665334953870771  0.6267135650642559  1.0000
  H   H690      1.0  0.9597110616854668  0.687968494528603  0.6492342945099251  1.0000
  H   H691      1.0  0.9746890637179145  0.6584030286269571  0.6624597995021867  1.0000
  H   H692      1.0  0.9978253828981893  0.6809688845381591  0.6881288447489036  1.0000
  H   H693      1.0  0.018114971325445078  0.7023349927824403  0.6711350152517244  1.0000
  H   H694      1.0  0.985277588313529  0.7107429892721097  0.6732344791187204  1.0000
  H   H695      1.0  0.0003117074052322165  0.6973021091071522  0.6022893228859244  1.0000
  H   H696      1.0  0.01821529748328857  0.7132871431472868  0.6205315253201109  1.0000
  H   H697      1.0  0.9851105818439415  0.7195837302979823  0.6237752723426174  1.0000
  H   H698      1.0  0.020825589322998765  0.657679287538643  0.6216975371937806  1.0000
  H   H699      1.0  0.019431159504294828  0.6498010188895214  0.6575036301850053  1.0000
  H   H700      1.0  0.03840303758138648  0.6726624815198486  0.6413000221335139  1.0000
  N   N40       1.0  0.5017575594086451  0.13871591197123573  0.6411065235567295  1.0000
  C   C505      1.0  0.5205600460938072  0.13372275220231278  0.6183151494427281  1.0000
  C   C506      1.0  0.47900186109252246  0.15181549031686817  0.6304492274916119  1.0000
  C   C507      1.0  0.5113240182839545  0.15405640672409895  0.6586390273037176  1.0000
  C   C508      1.0  0.4962281190812001  0.11507740115513017  0.6569796407311537  1.0000
  H   H701      1.0  0.5380503693209245  0.12398279813967947  0.6256543108050228  1.0000
  H   H702      1.0  0.5250885702785748  0.151102771575173  0.6057203578552824  1.0000
  H   H703      1.0  0.514078921867008  0.12190071682613968  0.6048314683536457  1.0000
  H   H704      1.0  0.4715608354145563  0.14045499099737557  0.61712242502895  1.0000
  H   H705      1.0  0.46430399231646763  0.15577114311024412  0.6470585955850573  1.0000
  H   H706      1.0  0.4824589129809837  0.16971979435968895  0.6182478457616944  1.0000
  H   H707      1.0  0.5285174782762532  0.14437736576119292  0.666907638028196  1.0000
  H   H708      1.0  0.49768731419640144  0.15812632922092065  0.6761613179410875  1.0000
  H   H709      1.0  0.5158908781159405  0.17200140179771803  0.6473318360309298  1.0000
  H   H710      1.0  0.48208711662014536  0.1180663221307185  0.6743538017001034  1.0000
  H   H711      1.0  0.513027354013617  0.10469826430589496  0.6653288018945761  1.0000
  H   H712      1.0  0.48908670396180737  0.10295941931177764  0.6443248704165633  1.0000
  N   N41       1.0  0.8093550712823526  0.8200507895608335  0.25071664392143755  1.0000
  C   C509      1.0  0.7841619750114209  0.8301813389411324  0.2606666988439226  1.0000
  C   C510      1.0  0.8082572795782045  0.806809927591144  0.2271877487991797  1.0000
  C   C511      1.0  0.8202752145858214  0.8027040815522294  0.27244095082121367  1.0000
  C   C512      1.0  0.8246999090556115  0.8404941156584972  0.24262715483827027  1.0000
  H   H713      1.0  0.7752405409326204  0.8432301279356331  0.24473605679439867  1.0000
  H   H714      1.0  0.7843228423025527  0.8406554169056546  0.27818411288459033  1.0000
  H   H715      1.0  0.7721856274558072  0.8152710785764905  0.26748570491866425  1.0000
  H   H716      1.0  0.7976585087309079  0.7906700668180305  0.2328014413730121  1.0000
  H   H717      1.0  0.7994673884327297  0.8192573959225119  0.2107154739033823  1.0000
  H   H718      1.0  0.8270399195409164  0.7997350326186946  0.21859625586795425  1.0000
  H   H719      1.0  0.809030661848764  0.7871982711215013  0.27929518079920934  1.0000
  H   H720      1.0  0.8217467204877285  0.8121390503501008  0.2903781952084691  1.0000
  H   H721      1.0  0.8391492211850976  0.7943562244914316  0.26569923333767903  1.0000
  H   H722      1.0  0.8240483952410159  0.852385452374729  0.2590657366965653  1.0000
  H   H723      1.0  0.8185747084988412  0.8525235919213506  0.22442708056289695  1.0000
  H   H724      1.0  0.8443553424905466  0.8334137958979028  0.23750294712461897  1.0000
  N   N42       1.0  0.7045624913526297  0.62220740681764  0.154028208582231  1.0000
  C   C513      1.0  0.7296229295577353  0.6086271289418926  0.15443686769062936  1.0000
  C   C514      1.0  0.6874551695216233  0.6061919928488223  0.14658997474489324  1.0000
  C   C515      1.0  0.7052548737990872  0.6444850076198345  0.13397646364199856  1.0000
  C   C516      1.0  0.695922547056994  0.6296352910512493  0.18111962798929404  1.0000
  H   H725      1.0  0.7428205791621058  0.6203644148098838  0.16014767186126383  1.0000
  H   H726      1.0  0.7368379595959444  0.6029276962657143  0.13425476309824919  1.0000
  H   H727      1.0  0.7298597326159408  0.5916455201041972  0.16930036298408832  1.0000
  H   H728      1.0  0.6684215975121953  0.6160664494331635  0.14607239090155985  1.0000
  H   H729      1.0  0.6932835586146096  0.6002771084890829  0.12620726946941344  1.0000
  H   H730      1.0  0.6862868707068288  0.5892313114667129  0.16133373711357088  1.0000
  H   H731      1.0  0.7183570579107964  0.6567870468940334  0.13854602355740356  1.0000
  H   H732      1.0  0.6868627961870589  0.6555712375733894  0.13368589333783762  1.0000
  H   H733      1.0  0.7109645923717273  0.6396418112257548  0.11314388417128128  1.0000
  H   H734      1.0  0.6768728038349465  0.6395852314957338  0.18166744738796115  1.0000
  H   H735      1.0  0.7081751297239193  0.6421332874678417  0.18717959326361924  1.0000
  H   H736      1.0  0.6955662647588459  0.6132985179550532  0.19682790176014783  1.0000
  N   N43       1.0  0.4735673003863202  0.98644189999037  0.5665773375851825  1.0000
  C   C517      1.0  0.4818818741679235  0.9780581125918506  0.5935779800865031  1.0000
  C   C518      1.0  0.4539699245419482  0.007536738771065421  0.5684912158193608  1.0000
  C   C519      1.0  0.46382656098531944  0.9659243632793644  0.556523599957049  1.0000
  C   C520      1.0  0.4946486088781675  0.9942305207269907  0.5477714327329756  1.0000
  H   H737      1.0  0.4972821223236526  0.9627344349992982  0.5928190043037634  1.0000
  H   H738      1.0  0.46663681453933376  0.9712559202471232  0.6080615178311523  1.0000
  H   H739      1.0  0.4885286257057186  0.9933432824480032  0.6021868913185361  1.0000
  H   H740      1.0  0.4471516466825954  0.014317437509360209  0.5484833132579513  1.0000
  H   H741      1.0  0.4378824886536348  0.0023869689624904655  0.5828066254163612  1.0000
  H   H742      1.0  0.46080023249476176  0.02344278855463844  0.5757830428079357  1.0000
  H   H743      1.0  0.4569977006541867  0.9718130671356738  0.5363571722283385  1.0000
  H   H744      1.0  0.4483089537261181  0.95910973284236  0.5706213826251398  1.0000
  H   H745      1.0  0.478329740117564  0.9499179972016992  0.554353761452566  1.0000
  H   H746      1.0  0.489116701976277  0.0006474817331370009  0.5271064749536682  1.0000
  H   H747      1.0  0.509826690061164  0.9787559643635283  0.5461756079238932  1.0000
  H   H748      1.0  0.5023469305917656  0.00979407925355047  0.5546438272443569  1.0000
  N   N44       1.0  0.8560599554820455  0.31138730292628675  0.8112961468875924  1.0000
  C   C521      1.0  0.83426994796835  0.3070070180694974  0.7987459719836432  1.0000
  C   C522      1.0  0.8487632084354833  0.33082994138305954  0.8293943970772679  1.0000
  C   C523      1.0  0.8752146927839308  0.3195137639179718  0.7899784166730819  1.0000
  C   C524      1.0  0.8659519269785623  0.28822660956048946  0.8270398200596583  1.0000
  H   H749      1.0  0.8389914715845415  0.2920762811168056  0.7853826067613223  1.0000
  H   H750      1.0  0.8266032533176155  0.32395537356604  0.7862538290059926  1.0000
  H   H751      1.0  0.8192656747502786  0.3012042313987862  0.8142646989352712  1.0000
  H   H752      1.0  0.8412659982992333  0.3485610041978092  0.8180459037405906  1.0000
  H   H753      1.0  0.8341964219820065  0.3253087034241625  0.8456342900283308  1.0000
  H   H754      1.0  0.8647338497604978  0.33459472535888396  0.8392773961574004  1.0000
  H   H755      1.0  0.8922548040420325  0.3222709208071751  0.7985607089083803  1.0000
  H   H756      1.0  0.8686624465668905  0.33745116657791346  0.7783795220738424  1.0000
  H   H757      1.0  0.8804597504772019  0.3056938721571612  0.7753116115848685  1.0000
  H   H758      1.0  0.8830620333554331  0.29046948348044505  0.8358012636321807  1.0000
  H   H759      1.0  0.870339788715383  0.2727795217941351  0.8142681448731556  1.0000
  H   H760      1.0  0.852367952840195  0.28221515323222285  0.8440996318765236  1.0000
  N   N45       1.0  0.3677386578999657  0.25137480786449246  0.16953268878628128  1.0000
  C   C525      1.0  0.34639653974384643  0.2514941850507416  0.15419232394654717  1.0000
  C   C526      1.0  0.3823703915275278  0.2714379683705125  0.1569460393976521  1.0000
  C   C527      1.0  0.3831253729481962  0.22718103541805845  0.16919074271622703  1.0000
  C   C528      1.0  0.35890330370121354  0.2553580173934156  0.19778230615623849  1.0000
  H   H761      1.0  0.3349252844097244  0.23653007288477282  0.1629661274302747  1.0000
  H   H762      1.0  0.35223201463382275  0.2488993803380853  0.13266084111911886  1.0000
  H   H763      1.0  0.334333104489296  0.26939469429965374  0.15422696057685337  1.0000
  H   H764      1.0  0.3894955613257892  0.26890741142644037  0.1356758853900467  1.0000
  H   H765      1.0  0.3709951183693457  0.28987237434331836  0.15635781816262395  1.0000
  H   H766      1.0  0.3983980375974678  0.2723373369636434  0.16825195216660263  1.0000
  H   H767      1.0  0.3995465590815144  0.2264212540640718  0.18042062128951317  1.0000
  H   H768      1.0  0.3898208843663347  0.22340876338891374  0.14815836978061264  1.0000
  H   H769      1.0  0.37245601774798553  0.2117899297632676  0.17874983853816734  1.0000
  H   H770      1.0  0.3744991340734306  0.2542545538786838  0.2103090752958337  1.0000
  H   H771      1.0  0.3466503304831896  0.2412937997320743  0.20743879300088486  1.0000
  H   H772      1.0  0.34819129468345145  0.2739213685677167  0.19886674130303628  1.0000
  N   N46       1.0  0.9681549369625448  0.5038561642191477  0.5706709711789918  1.0000
  C   C529      1.0  0.9434316012596365  0.5162860755718973  0.5789954363145302  1.0000
  C   C530      1.0  0.9827767029349262  0.4990166197286914  0.5940682707102175  1.0000
  C   C531      1.0  0.9806595069405064  0.5199998122341173  0.5488351898397377  1.0000
  C   C532      1.0  0.9658410888713145  0.48015253745213626  0.5608090882240565  1.0000
  H   H773      1.0  0.9330931043065176  0.5042225682281399  0.5947434309631544  1.0000
  H   H774      1.0  0.9321891321032744  0.5210700301580843  0.5615919888202452  1.0000
  H   H775      1.0  0.9447823768928966  0.5337768236522799  0.5874323221650759  1.0000
  H   H776      1.0  0.9857931191086609  0.5165659297025051  0.601371661113415  1.0000
  H   H777      1.0  0.9734846922406709  0.4875237005678164  0.6112160608799139  1.0000
  H   H778      1.0  0.0011911891294897892  0.4889792229465239  0.5888306106373488  1.0000
  H   H779      1.0  0.9993592857906448  0.5111778343924535  0.5421755427745675  1.0000
  H   H780      1.0  0.9828291505912462  0.5380517191559162  0.5555393286007154  1.0000
  H   H781      1.0  0.9701391204119509  0.5238515167450103  0.5307909502393988  1.0000
  H   H782      1.0  0.9556781209938721  0.48323026268421576  0.5425040847242231  1.0000
  H   H783      1.0  0.9556760572535196  0.4677972025422094  0.5763833030519497  1.0000
  H   H784      1.0  0.9842793729211178  0.47000440626827417  0.5551802341225731  1.0000
  N   N47       1.0  0.3168372490522364  0.5890557501620275  0.022430292918631967  1.0000
  C   C533      1.0  0.3173042585543444  0.5824794313981715  0.0519229878986216  1.0000
  C   C534      1.0  0.329470753247969  0.6113660347545651  0.013530287358844317  1.0000
  C   C535      1.0  0.2909639075041531  0.5940541490546947  0.015972201340570313  1.0000
  C   C536      1.0  0.32963870976693616  0.568275908083552  0.00830443796228697  1.0000
  H   H785      1.0  0.30830882746452387  0.5654779691307815  0.059280374171291284  1.0000
  H   H786      1.0  0.3076843671146192  0.5976856615835372  0.06324135301208433  1.0000
  H   H787      1.0  0.33654201019803065  0.5787835335353423  0.05755392484936772  1.0000
  H   H788      1.0  0.32937450182730854  0.616927118432041  0.9914037732448533  1.0000
  H   H789      1.0  0.3204409669244562  0.6274354308031108  0.023835517387327254  1.0000
  H   H790      1.0  0.3491260503868516  0.6081330152836523  0.017905772125901276  1.0000
  H   H791      1.0  0.2808575802929125  0.6100618891144346  0.025668787286573735  1.0000
  H   H792      1.0  0.28077586945071514  0.5777400707616352  0.02275686620339279  1.0000
  H   H793      1.0  0.2898925802374455  0.5985357114652096  0.9938526602187739  1.0000
  H   H794      1.0  0.3295601277985863  0.572536347174827  0.9860117291402407  1.0000
  H   H795      1.0  0.32089693663529223  0.5509833100989545  0.01473045156304309  1.0000
  H   H796      1.0  0.3492453306725616  0.5642627289981187  0.012536760286016246  1.0000
  N   N48       1.0  0.07934608465966986  0.2796394604774018  0.4244442115366419  1.0000
  C   C537      1.0  0.08538576719299518  0.25663026895602564  0.41149465475041164  1.0000
  C   C538      1.0  0.09914730458972043  0.29568021398408373  0.4160616292476075  1.0000
  C   C539      1.0  0.07721373003814813  0.27346700053313144  0.45413208563123647  1.0000
  C   C540      1.0  0.05568336192070911  0.29281634750327734  0.41611288159172105  1.0000
  H   H797      1.0  0.10327068983905163  0.2463040067281016  0.4170680522886731  1.0000
  H   H798      1.0  0.08731357465503486  0.2607432767874801  0.3891314110039561  1.0000
  H   H799      1.0  0.07084596942576304  0.2440515643016273  0.417140331924419  1.0000
  H   H800      1.0  0.10014186741718811  0.30212741820150213  0.393988569965525  1.0000
  H   H801      1.0  0.09614829391710145  0.31235861707896656  0.42697347177717637  1.0000
  H   H802      1.0  0.11759855743348968  0.2857140705349781  0.4200575012141324  1.0000
  H   H803      1.0  0.07251058923379095  0.2904868184733748  0.4644812332632211  1.0000
  H   H804      1.0  0.09485249426845632  0.26373296922119177  0.4610773964206449  1.0000
  H   H805      1.0  0.06253425141669777  0.261251950688741  0.46116589649666817  1.0000
  H   H806      1.0  0.05666878230641226  0.2979665939563081  0.39380986704654164  1.0000
  H   H807      1.0  0.0505406076702315  0.31026612240973533  0.42556696729846166  1.0000
  H   H808      1.0  0.04031365709082202  0.2812440560335574  0.42187699820896896  1.0000
  N   N49       1.0  0.11395796482315962  0.881477047940174  0.816278000939471  1.0000
  C   C541      1.0  0.09456234189881041  0.8908389442369467  0.7981562166676492  1.0000
  C   C542      1.0  0.13662259142791944  0.8931562822962379  0.8065718455166795  1.0000
  C   C543      1.0  0.11937093776943229  0.8543389907348158  0.8166000792766317  1.0000
  C   C544      1.0  0.10518663822620415  0.8875394355579407  0.8438540083877389  1.0000
  H   H809      1.0  0.07728803387920626  0.8821850653289893  0.805021038983859  1.0000
  H   H810      1.0  0.10046910357365586  0.8865675378757631  0.7771308557267652  1.0000
  H   H811      1.0  0.08987610353558577  0.9112436940542301  0.7973382224112153  1.0000
  H   H812      1.0  0.13313691055188617  0.9136593394595348  0.8057278309294753  1.0000
  H   H813      1.0  0.15150662088161365  0.8865719150773786  0.8200041528330616  1.0000
  H   H814      1.0  0.14394315682325978  0.8888320392766731  0.7859055180847767  1.0000
  H   H815      1.0  0.1026878068083205  0.8449607260519791  0.8239937368629645  1.0000
  H   H816      1.0  0.13402382884485825  0.8465876928518923  0.8298672752388219  1.0000
  H   H817      1.0  0.12562586936720097  0.8492745655973188  0.7959362310520518  1.0000
  H   H818      1.0  0.11909456253696298  0.880444862582753  0.8582677422310037  1.0000
  H   H819      1.0  0.08793262626358492  0.8793311513500108  0.8516266845417543  1.0000
  H   H820      1.0  0.10114929109911143  0.9078806137769376  0.8443849860529302  1.0000
  N   N50       1.0  0.1989407550917395  0.2543399054164064  0.2908440667269989  1.0000
  C   C545      1.0  0.22203420176406774  0.2658485566857365  0.2884495884534306  1.0000
  C   C546      1.0  0.19029695168615512  0.2556048087534515  0.2638375789572921  1.0000
  C   C547      1.0  0.17989524462421003  0.2677797694394952  0.3084969409893073  1.0000
  C   C548      1.0  0.20341589604741192  0.2282092945830183  0.30274593042362224  1.0000
  H   H821      1.0  0.21881232816569837  0.28611807438135184  0.28233361192812684  1.0000
  H   H822      1.0  0.23597459424639886  0.25806887972419523  0.2729535936028271  1.0000
  H   H823      1.0  0.23035429526002568  0.2630440111329748  0.3079755380062945  1.0000
  H   H824      1.0  0.17277818810314147  0.2472497962480955  0.2649481134519556  1.0000
  H   H825      1.0  0.1865558851582374  0.2751228637895753  0.25454428765001785  1.0000
  H   H826      1.0  0.20428316345530845  0.24601458730559744  0.24971867144672047  1.0000
  H   H827      1.0  0.17566467733358998  0.2875103830985113  0.300116828027283  1.0000
  H   H828      1.0  0.18574059208616636  0.26749475865525874  0.32903856097580775  1.0000
  H   H829      1.0  0.16234602729884137  0.2593881010015753  0.31088760072388905  1.0000
  H   H830      1.0  0.18645844611691453  0.2188009512573721  0.304662987335865  1.0000
  H   H831      1.0  0.20936590360472684  0.22673525100587089  0.32344346812238334  1.0000
  H   H832      1.0  0.21835111451605416  0.21764898892111573  0.29051166825667835  1.0000
  N   N51       1.0  0.0037713186030586317  0.4013838103334572  0.6184645252585189  1.0000
  C   C549      1.0  0.0013957817283528897  0.42793448002302253  0.6220216172064376  1.0000
  C   C550      1.0  0.9917779452680423  0.39832031320450545  0.5944550593166763  1.0000
  C   C551      1.0  0.9917473622934841  0.38760281129847896  0.6426740320185783  1.0000
  C   C552      1.0  0.030162876029265227  0.39160311929952546  0.6147968863556701  1.0000
  H   H833      1.0  0.0099787073655409  0.43086835022143305  0.6401870749720655  1.0000
  H   H834      1.0  0.9817140888223224  0.43588473342460793  0.6248801909828277  1.0000
  H   H835      1.0  0.010457220807787179  0.4388586153191615  0.6042422466082334  1.0000
  H   H836      1.0  0.9930306470540544  0.3784760023110355  0.591361722084574  1.0000
  H   H837      1.0  0.9718359635405187  0.4055205367015891  0.5964895420732385  1.0000
  H   H838      1.0  0.00046946864291973314  0.4082612454710017  0.5757018389753955  1.0000
  H   H839      1.0  0.9929731607050224  0.36750485893898416  0.6407012823088769  1.0000
  H   H840      1.0  0.971878273949122  0.39450345910815343  0.6459764542668059  1.0000
  H   H841      1.0  4.8476573064725733e-05  0.3897428013543153  0.6613017178976979  1.0000
  H   H842      1.0  0.03260772739897812  0.3716329259690871  0.6119617457997604  1.0000
  H   H843      1.0  0.039747752395830234  0.39368308494725474  0.6325440289141332  1.0000
  H   H844      1.0  0.039858964694083725  0.40157131313057154  0.5966985580053955  1.0000
  N   N52       1.0  0.4950797701473076  0.0066485603214825155  0.4206299921335508  1.0000
  C   C553      1.0  0.47873942456470103  0.991597135632951  0.4101956223959955  1.0000
  C   C554      1.0  0.4976356188812217  0.9976902056177331  0.44933569535641504  1.0000
  C   C555      1.0  0.4843841334006866  0.032921282833998325  0.4181080167860486  1.0000
  C   C556      1.0  0.5196588837754886  0.004313795105539728  0.40506654856114016  1.0000
  H   H845      1.0  0.4765450135130451  0.9975656006118372  0.3884622778902197  1.0000
  H   H846      1.0  0.45996850163225383  0.993158499134533  0.42141904192267854  1.0000
  H   H847      1.0  0.4860907293100184  0.9715687152586868  0.41238050446516045  1.0000
  H   H848      1.0  0.5084631709352458  0.00959530723601599  0.45851584215178987  1.0000
  H   H849      1.0  0.47933778312169706  0.997711635264167  0.4614516363135485  1.0000
  H   H850      1.0  0.5072036255910757  0.9785301320980636  0.4516464082639788  1.0000
  H   H851      1.0  0.4820056086497197  0.04038708700685387  0.3967447109986888  1.0000
  H   H852      1.0  0.4961936601626568  0.04467606613211196  0.426126304414138  1.0000
  H   H853      1.0  0.46603091920672524  0.035403330088781035  0.4299557710823184  1.0000
  H   H854      1.0  0.5323730012796616  0.015393965280861278  0.4126752034953894  1.0000
  H   H855      1.0  0.5185114629304295  0.010858661775733013  0.3832532636142734  1.0000
  H   H856      1.0  0.5284086186973049  0.984738938060729  0.40680621377674514  1.0000
  N   N53       1.0  0.2738764396229851  0.925858863295861  0.6569659408335194  1.0000
  C   C557      1.0  0.2749681694649018  0.9189440532008623  0.6863224815902796  1.0000
  C   C558      1.0  0.2835696763627458  0.9498895864819739  0.6486642478897663  1.0000
  C   C559      1.0  0.2480083438930405  0.9278621253784276  0.6507733215063913  1.0000
  C   C560      1.0  0.2889181691128373  0.9066492226008973  0.6421038759974745  1.0000
  H   H857      1.0  0.2650306624348015  0.9336364333108018  0.6981556470373479  1.0000
  H   H858      1.0  0.29437031530764235  0.9154756644624502  0.6915706155949864  1.0000
  H   H859      1.0  0.2662389326749779  0.9017757831493937  0.6934912981449289  1.0000
  H   H860      1.0  0.28275023921034376  0.9558215468439997  0.6266481353838609  1.0000
  H   H861      1.0  0.27295127720355533  0.964795207696175  0.6597220710261948  1.0000
  H   H862      1.0  0.303247448609619  0.9487694895557269  0.652509542268381  1.0000
  H   H863      1.0  0.23605415427834817  0.9421048824890814  0.6617193027277092  1.0000
  H   H864      1.0  0.24024164528958636  0.9099152583531059  0.6568192377009623  1.0000
  H   H865      1.0  0.24652305670308264  0.9329748252455677  0.6287528128552039  1.0000
  H   H866      1.0  0.281566476172243  0.8884547577184783  0.6472375656069035  1.0000
  H   H867      1.0  0.30841937424457433  0.9039892879602152  0.6469499109138973  1.0000
  H   H868      1.0  0.28927342769848247  0.9117128386249772  0.6198410469898211  1.0000
  N   N54       1.0  0.45512975863158556  0.4649703565850018  0.014415190651362726  1.0000
  C   C561      1.0  0.46238427513139435  0.450719288013158  0.9911820565222205  1.0000
  C   C562      1.0  0.43468615514059794  0.4542227719192915  0.03176897035387928  1.0000
  C   C563      1.0  0.4470373812276228  0.49103597601240767  0.004518124237339713  1.0000
  C   C564      1.0  0.47631069941970244  0.46386089640493056  0.03029900265581134  1.0000
  H   H869      1.0  0.4660431756014  0.4305866951396607  0.9978566694152791  1.0000
  H   H870      1.0  0.479487406045114  0.45641031071255034  0.9792418287502225  1.0000
  H   H871      1.0  0.44758459478449486  0.4531313880691731  0.9773773158365595  1.0000
  H   H872      1.0  0.44007666855818267  0.43463323068246507  0.03992041769261721  1.0000
  H   H873      1.0  0.4286813430581479  0.4646067221835143  0.04940641847510057  1.0000
  H   H874      1.0  0.4183207114855774  0.45452042381286095  0.020558334479387878  1.0000
  H   H875      1.0  0.4412401418908985  0.502354004147216  0.02147482610272353  1.0000
  H   H876      1.0  0.4309715662262084  0.49251816251673597  0.9925323115313588  1.0000
  H   H877      1.0  0.4619264474662033  0.49965117268266906  0.9910269623124607  1.0000
  H   H878      1.0  0.4920396046287137  0.4721005323353936  0.0180229821295601  1.0000
  H   H879      1.0  0.4830439956566113  0.4444122926003284  0.03761140704906693  1.0000
  H   H880      1.0  0.4711880642325478  0.4737678827437005  0.048459880284292996  1.0000
  N   N55       1.0  0.3326741455728781  0.6444920994273073  0.8503695916978622  1.0000
  C   C565      1.0  0.3544264495987305  0.6267732648147601  0.8570232765930235  1.0000
  C   C566      1.0  0.31007653116116113  0.6352611867988401  0.8648816209366798  1.0000
  C   C567      1.0  0.33097817425211806  0.6471423953087099  0.8209303943402594  1.0000
  C   C568      1.0  0.3352138222617601  0.6688125479796884  0.8586501988461993  1.0000
  H   H881      1.0  0.3532185652534265  0.6082091925365372  0.851039176396969  1.0000
  H   H882      1.0  0.3562193495032438  0.6242253801938458  0.8790665107415505  1.0000
  H   H883      1.0  0.37185803242092674  0.6333558618614046  0.8467945688606223  1.0000
  H   H884      1.0  0.30768051364753873  0.6167323110876386  0.8596285093844602  1.0000
  H   H885      1.0  0.31052438917867464  0.6335860173126764  0.8871178171609938  1.0000
  H   H886      1.0  0.29328035496406846  0.6480304559210429  0.8600214454869257  1.0000
  H   H887      1.0  0.3148312303765407  0.6604810178902873  0.8151620100804676  1.0000
  H   H888      1.0  0.32879558212868687  0.6291752728096843  0.8140613212200597  1.0000
  H   H889      1.0  0.34772446933985524  0.6540748552606964  0.8093490355969732  1.0000
  H   H890      1.0  0.31887019271502953  0.6825044832790645  0.854377993165109  1.0000
  H   H891      1.0  0.3518882689166972  0.6765423810365392  0.8478917784487766  1.0000
  H   H892      1.0  0.3369897946875723  0.6673452166330416  0.8806861527745997  1.0000
  N   N56       1.0  0.45237742262350183  0.5495672002010735  0.09389228329934024  1.0000
  C   C569      1.0  0.4682892574138349  0.5256592125561633  0.0935944819118863  1.0000
  C   C570      1.0  0.4285369541452645  0.5457349589836379  0.10986335732088111  1.0000
  C   C571      1.0  0.4480202364608152  0.5599451265948435  0.06591725489341412  1.0000
  C   C572      1.0  0.4647087394055674  0.5669795766487221  0.10616047455359312  1.0000
  H   H893      1.0  0.4865880716003236  0.5279316005570952  0.08210989948843847  1.0000
  H   H894      1.0  0.45951731880557234  0.5119842515080495  0.08461766003852302  1.0000
  H   H895      1.0  0.471785256524214  0.5173355273608894  0.11439369121323201  1.0000
  H   H896      1.0  0.4150992169097772  0.5627914288265035  0.10821055523300438  1.0000
  H   H897      1.0  0.42003136377015393  0.530592833772746  0.10319964463291463  1.0000
  H   H898      1.0  0.4307791655970568  0.5404436195786868  0.131664219296809  1.0000
  H   H899      1.0  0.43615469782577543  0.5780848089022569  0.06541404678073806  1.0000
  H   H900      1.0  0.4383978985644215  0.5474361332349696  0.056173428567820025  1.0000
  H   H901      1.0  0.4655711481500946  0.5632274239411946  0.05327117472297264  1.0000
  H   H902      1.0  0.4532474936265828  0.5852312045775451  0.10686960883365018  1.0000
  H   H903      1.0  0.48271896196590647  0.570308757269901  0.09459257470803467  1.0000
  H   H904      1.0  0.46847113237930277  0.5598070423252262  0.127230391180582  1.0000
  N   N57       1.0  0.4046351763933332  0.9323006305160497  0.7464614358930128  1.0000
  C   C573      1.0  0.4285469045167465  0.9378629270545107  0.7316850794003046  1.0000
  C   C574      1.0  0.4019404730994434  0.9413787115323621  0.7731907600422154  1.0000
  C   C575      1.0  0.40358329633731677  0.9052534169851155  0.7500047851177474  1.0000
  C   C576      1.0  0.3843854993885293  0.9447699173766827  0.7308641091874788  1.0000
  H   H905      1.0  0.431248338283003  0.9310185576426753  0.7115450602490546  1.0000
  H   H906      1.0  0.44435484738553804  0.9291264669512412  0.742938318869734  1.0000
  H   H907      1.0  0.4296661196572818  0.9581899374008156  0.7279099579677729  1.0000
  H   H908      1.0  0.38401204337652667  0.9375751219361227  0.7847761346293269  1.0000
  H   H909      1.0  0.41692007295557376  0.9323202730918492  0.7855433267313335  1.0000
  H   H910      1.0  0.40267141050039146  0.9617398470323718  0.7711310082491658  1.0000
  H   H911      1.0  0.3856000665752576  0.9004178000854652  0.7606944784958581  1.0000
  H   H912      1.0  0.41855527050558766  0.8951180938430073  0.7617035376211131  1.0000
  H   H913      1.0  0.40543587954320226  0.8978104841111325  0.7301919080180305  1.0000
  H   H914      1.0  0.3845044724990921  0.9652412077566122  0.7276763495924092  1.0000
  H   H915      1.0  0.36600774037802475  0.9406141814746799  0.7409686447120382  1.0000
  H   H916      1.0  0.3862278758653711  0.9385403743216154  0.7105388931395035  1.0000
  N   N58       1.0  0.10814464756600242  0.61659432156352  0.7582240841703353  1.0000
  C   C577      1.0  0.1170717217347358  0.6346133531053  0.7358302571198407  1.0000
  C   C578      1.0  0.0809538847692502  0.6181241595940844  0.7598405127853038  1.0000
  C   C579      1.0  0.11549994344870289  0.6222836670737923  0.7839082163065261  1.0000
  C   C580      1.0  0.11912598481529452  0.5913310071222264  0.7532159518325072  1.0000
  H   H917      1.0  0.13739909415943527  0.6347756461486769  0.7348067541209734  1.0000
  H   H918      1.0  0.10838993546350666  0.6537801499960546  0.7383633635853405  1.0000
  H   H919      1.0  0.11288392544425103  0.6302548900819682  0.7159921387779955  1.0000
  H   H920      1.0  0.07346324997136242  0.6054080110720218  0.7770940999314001  1.0000
  H   H921      1.0  0.07196440016975891  0.6372002475172858  0.7624313545933636  1.0000
  H   H922      1.0  0.0748676454657201  0.613027487008126  0.7411453753651795  1.0000
  H   H923      1.0  0.10923781510312028  0.6090415124946951  0.8013308826334906  1.0000
  H   H924      1.0  0.10759023598732323  0.6412353512838015  0.7882418798040199  1.0000
  H   H925      1.0  0.13590953989832819  0.6216465001858713  0.7832252428237817  1.0000
  H   H926      1.0  0.13963907761851105  0.5895452605381715  0.7517417623379878  1.0000
  H   H927      1.0  0.11388879834345553  0.5864746430594135  0.7339454437716308  1.0000
  H   H928      1.0  0.11280574169185537  0.5772147957052846  0.7697187296525746  1.0000
