data_image0
_chemical_formula_structural       FeS2FeS2FeSFeS3FeS2FeS2FeSFeS3FeS2FeS2FeSFeS3FeS2FeS2FeSFeS3FeS2FeS2FeSFeS3FeS2FeS2FeSFeS3FeS2FeS2FeSFeS3FeS2FeS2FeSFeS3C6H4C6H4C6H4C6H4C6H4C6H4C6H4C6H4C6H4C6H4C6H4C6H4C6H4C6H4C6H4C6H4FeS2FeS2FeSFeS3FeS2FeS2FeSFeS3FeS2FeS2FeSFeS3FeS2FeS2FeSFeS3FeS2FeS2FeSFeS3FeS2FeS2FeSFeS3FeS2FeS2FeSFeS3FeS2FeS2FeSFeS3C6H4C6H4C6H4C6H4C6H4C6H4C6H4C6H4C6H4C6H4C6H4C6H4C6H4C6H4C6H4C6H4NC4H12NC4H12NC4H12NC4H12NC4H12NC4H12NC4H12NC4H12NC4H12NC4H12NC4H12NC4H12NC4H12NC4H12NC4H12NC4H12NC4H12NC4H12NC4H12NC4H12NC4H12NC4H12NC4H12NC4H12NC4H12NC4H12NC4H12NC4H12NC4H12NC4H12NC4H12NC4H12
_chemical_formula_sum              "Fe64 S128 C320 H512 N32"
_cell_length_a       30.433506714115794
_cell_length_b       28.596272462248344
_cell_length_c       30.014444762451298
_cell_angle_alpha    89.76723450232818
_cell_angle_beta     90.2132782647192
_cell_angle_gamma    90.39342741847733

_space_group_name_H-M_alt    "P 1"
_space_group_IT_number       1

loop_
  _space_group_symop_operation_xyz
  'x, y, z'

loop_
  _atom_site_type_symbol
  _atom_site_label
  _atom_site_symmetry_multiplicity
  _atom_site_fract_x
  _atom_site_fract_y
  _atom_site_fract_z
  _atom_site_occupancy
  Fe  Fe1       1.0  0.7250971131957185  0.4379683407125883  0.6487606839769154  1.0000
  S   S1        1.0  0.7306707968068122  0.4573483034374963  0.72059939054021  1.0000
  S   S2        1.0  0.7516259990353874  0.36898151547518954  0.6267770850651269  1.0000
  Fe  Fe2       1.0  0.6929367170853846  0.5333055464149261  0.6212230875784157  1.0000
  S   S3        1.0  0.6981994434650786  0.5619058017033882  0.6905412593137861  1.0000
  S   S4        1.0  0.6704844118981238  0.5802293054829647  0.5658864605875118  1.0000
  Fe  Fe3       1.0  0.761443297791651  0.5229108291957575  0.694210004164758  1.0000
  S   S5        1.0  0.8216310119352145  0.5503861941620323  0.7285159622813708  1.0000
  Fe  Fe4       1.0  0.6666273369925462  0.49409805528131295  0.7101951237949383  1.0000
  S   S6        1.0  0.6137045045390511  0.4905915122483012  0.7622824936950193  1.0000
  S   S7        1.0  0.7599507593362425  0.5016418747264044  0.6226968708387327  1.0000
  S   S8        1.0  0.6572444749001818  0.46748025865118314  0.6404417952602566  1.0000
  Fe  Fe5       1.0  0.9422335819318357  0.22240007317916433  0.5883341285290242  1.0000
  S   S9        1.0  0.9837081426164048  0.2771370760844832  0.5545184399480871  1.0000
  S   S10       1.0  0.8811353949487181  0.18749136335210054  0.5629310837303009  1.0000
  Fe  Fe6       1.0  0.9918974804498563  0.22853135445039427  0.6752997405629889  1.0000
  S   S11       1.0  0.037790951432885356  0.2847251036312771  0.6513363160731226  1.0000
  S   S12       1.0  0.9871026447578461  0.19483279545483467  0.7420671532575234  1.0000
  Fe  Fe7       1.0  0.9781165334994879  0.31577027655024037  0.6191269810760205  1.0000
  S   S13       1.0  0.95824076346545  0.3907941889692754  0.6243060574099095  1.0000
  Fe  Fe8       1.0  0.040003162415793714  0.24146472304272557  0.589041767876143  1.0000
  S   S14       1.0  0.10382841402344423  0.22202158172621533  0.5576231775469679  1.0000
  S   S15       1.0  0.9320966752772928  0.26399757467181617  0.6499769861912124  1.0000
  S   S16       1.0  0.9990163195747532  0.18247168640396882  0.6160042412080371  1.0000
  Fe  Fe9       1.0  0.6617205173684266  0.6393868461154509  0.958419847899307  1.0000
  S   S17       1.0  0.6409769657701583  0.6689061140856414  0.024233847374220296  1.0000
  S   S18       1.0  0.635906314767233  0.662683041961844  0.8913227584927343  1.0000
  Fe  Fe10      1.0  0.7332599350012075  0.5805919595674843  0.0002732330211494549  1.0000
  S   S19       1.0  0.718304923312123  0.6029631279460596  0.07002195586293736  1.0000
  S   S20       1.0  0.7910642745738984  0.5387490268850321  0.9782137523715391  1.0000
  Fe  Fe11      1.0  0.6475190118589964  0.5950836668214974  0.04938242435306672  1.0000
  S   S21       1.0  0.5942354454691392  0.5682217797105995  0.09525251873034969  1.0000
  Fe  Fe12      1.0  0.7130315560547418  0.6742283443213796  0.0395256601782461  1.0000
  S   S22       1.0  0.7446031775677275  0.7359169843231007  0.07287100148472803  1.0000
  S   S23       1.0  0.6630899071219444  0.5649231208655513  0.9822163715802666  1.0000
  S   S24       1.0  0.7331852151357606  0.6526121766965439  0.9712837072321758  1.0000
  Fe  Fe13      1.0  0.8483210984952025  0.29728520086633525  0.0183241232844078  1.0000
  S   S25       1.0  0.8775704419638047  0.23588473329190945  0.05351459160787186  1.0000
  S   S26       1.0  0.7867634016239377  0.3298563255919046  0.043272956558269904  1.0000
  Fe  Fe14      1.0  0.9194939662898869  0.3012079489052136  0.9487480720207775  1.0000
  S   S27       1.0  0.9549526354691205  0.23866886529695436  0.9766435663280502  1.0000
  S   S28       1.0  0.9392331963556111  0.3426305959829106  0.8885652922941495  1.0000
  Fe  Fe15      1.0  0.8871434562540774  0.20829476953141382  0.984423644186415  1.0000
  S   S29       1.0  0.8669478709894967  0.13339333460505287  0.9745350231598224  1.0000
  Fe  Fe16      1.0  0.9419931664142155  0.272138485234016  0.04254842252089408  1.0000
  S   S30       1.0  0.9939260657461486  0.2823626528283867  0.0945333681839347  1.0000
  S   S31       1.0  0.8531110758619914  0.2676665631929474  0.9497282112699853  1.0000
  S   S32       1.0  0.9116947072868289  0.3368125400196676  0.014290212731331797  1.0000
  Fe  Fe17      1.0  0.537222564023466  0.29173893108782534  0.5915143590217767  1.0000
  S   S33       1.0  0.5397664150728403  0.24460178517687003  0.5320859051676827  1.0000
  S   S34       1.0  0.5749521283936967  0.2706165626379988  0.6525570885027581  1.0000
  Fe  Fe18      1.0  0.4838898066252129  0.3648668540708869  0.5430292974649432  1.0000
  S   S35       1.0  0.4812341182875761  0.3238185477102483  0.47973635451214425  1.0000
  S   S36       1.0  0.45557523404942557  0.43683424545343996  0.5448232220636436  1.0000
  Fe  Fe19      1.0  0.4684560730786464  0.262300367655473  0.524534055785393  1.0000
  S   S37       1.0  0.418959235198659  0.20773178285297225  0.5036371837796395  1.0000
  Fe  Fe20      1.0  0.5522230359578968  0.3103522540008604  0.4936998690741409  1.0000
  S   S38       1.0  0.6023586065659807  0.31900214322661263  0.4400989819448171  1.0000
  S   S39       1.0  0.46464806213521276  0.30474294629806853  0.5872847527027583  1.0000
  S   S40       1.0  0.556119026024608  0.35635132012047793  0.5534968665557031  1.0000
  Fe  Fe21      1.0  0.17356838426069673  0.566561886204654  0.4489532565839975  1.0000
  S   S41       1.0  0.15209231707695295  0.5058292246378437  0.49100488580688356  1.0000
  S   S42       1.0  0.14933412604553264  0.5891652102860768  0.38213076694394504  1.0000
  Fe  Fe22      1.0  0.24226768339663543  0.5990094368384062  0.5145635938298455  1.0000
  S   S43       1.0  0.22799313169321894  0.5413521478325629  0.5635862531261162  1.0000
  S   S44       1.0  0.28974958007060264  0.6590803488891869  0.5192234856940829  1.0000
  Fe  Fe23      1.0  0.22413995936182093  0.49582479753860376  0.5029558562059763  1.0000
  S   S45       1.0  0.25298189577247104  0.424172149485877  0.500269300595621  1.0000
  Fe  Fe24      1.0  0.1574092635763497  0.5560151500724115  0.5479490928415408  1.0000
  S   S46       1.0  0.1062070270462457  0.5566535558457488  0.6013673289062262  1.0000
  S   S47       1.0  0.24526320733536333  0.551909487018608  0.455399589591479  1.0000
  S   S48       1.0  0.17176351195720435  0.618004510384721  0.504494094527016  1.0000
  Fe  Fe25      1.0  0.5414477550832055  0.31746174842079894  0.15991729367033256  1.0000
  S   S49       1.0  0.5397439497935157  0.3231296128965941  0.234500510865929  1.0000
  S   S50       1.0  0.5943397478663297  0.3482492323690344  0.11736963965880912  1.0000
  Fe  Fe26      1.0  0.46097334821661473  0.25617860774177176  0.15483185731111623  1.0000
  S   S51       1.0  0.45171822784187793  0.25621432809792904  0.2285091333058204  1.0000
  S   S52       1.0  0.4131101849232876  0.21408897802974083  0.11517990092334451  1.0000
  Fe  Fe27      1.0  0.46741366848021065  0.3323300562240581  0.22404496738424487  1.0000
  S   S53       1.0  0.42315910348004027  0.38066771904387836  0.2609937031698999  1.0000
  Fe  Fe28      1.0  0.5241351103863602  0.24627442542077477  0.2317095594328279  1.0000
  S   S54       1.0  0.5451964970520349  0.191711771381443  0.28034380404210585  1.0000
  S   S55       1.0  0.4703103001748329  0.333460012752806  0.14934591026078092  1.0000
  S   S56       1.0  0.532422881677839  0.23944593224935293  0.15820564584484864  1.0000
  Fe  Fe29      1.0  0.1489088959380964  0.47755211492747635  0.0848576678921704  1.0000
  S   S57       1.0  0.18491586302748  0.4178431672480659  0.11693167076771928  1.0000
  S   S58       1.0  0.10048230805475374  0.46038128244143733  0.031179975350594802  1.0000
  Fe  Fe30      1.0  0.19119933437886544  0.5504350363452082  0.14388059536601575  1.0000
  S   S59       1.0  0.22980807415559157  0.49642767990613407  0.18079052607777  1.0000
  S   S60       1.0  0.20263633311426066  0.6234342982134852  0.16866886018923408  1.0000
  Fe  Fe31      1.0  0.24276461830616086  0.46652056170906264  0.11384511196452818  1.0000
  S   S61       1.0  0.31201603408558454  0.4487114694749152  0.0963096953726662  1.0000
  Fe  Fe32      1.0  0.16808216573307858  0.45463634986368223  0.18038591230557605  1.0000
  S   S62       1.0  0.15177831012898457  0.42183048722730304  0.24618559676389168  1.0000
  S   S63       1.0  0.20845124897332257  0.5234730229874514  0.07626704359978631  1.0000
  S   S64       1.0  0.12747206738326003  0.5108651446599666  0.14849840262893418  1.0000
  C   C1        1.0  0.3642152106256454  0.21604232725909436  0.1455447886854346  1.0000
  C   C2        1.0  0.32526632760428353  0.5819891034325027  0.20035985856614422  1.0000
  C   C3        1.0  0.2863462358917807  0.5903157636596242  0.1766822976888031  1.0000
  C   C4        1.0  0.2551304201600217  0.6215032320397504  0.1931291502441768  1.0000
  C   C5        1.0  0.31627009689215924  0.2569974340934432  0.1964148465584402  1.0000
  C   C6        1.0  0.35448222907200183  0.2557381421141757  0.17071136609107437  1.0000
  H   H1        1.0  0.348451869781894  0.5565362895266943  0.1881942679864028  1.0000
  H   H2        1.0  0.28003266907514557  0.5716755824307166  0.14599828131969503  1.0000
  H   H3        1.0  0.3088945398806008  0.2877470964183185  0.21585120168634478  1.0000
  H   H4        1.0  0.37645695032501464  0.2855555010985241  0.17072873809290298  1.0000
  C   C7        1.0  0.39118419058011067  0.40489947704598656  0.218258751525677  1.0000
  C   C8        1.0  0.3456490076964776  0.39783495464904906  0.21751997388177446  1.0000
  C   C9        1.0  0.32083088526767867  0.4127726818378545  0.18067798758845133  1.0000
  C   C10       1.0  0.3417563644412956  0.43405852770493225  0.14434313402589313  1.0000
  C   C11       1.0  0.3872154882491377  0.4414240733893129  0.14531795306238973  1.0000
  C   C12       1.0  0.411871724018042  0.4270431915048431  0.18231807673822292  1.0000
  H   H5        1.0  0.32987734520173534  0.37904344679048774  0.24444404562475192  1.0000
  H   H6        1.0  0.28581386805139664  0.4060716698412778  0.17955073874510155  1.0000
  H   H7        1.0  0.403415379701164  0.4581038101597116  0.11738617722369606  1.0000
  H   H8        1.0  0.4471233465862311  0.4323161327815367  0.18266361157507652  1.0000
  C   C13       1.0  0.1470908167280703  0.5421579808906681  0.345193633627374  1.0000
  C   C14       1.0  0.14849309729266064  0.5512228954471794  0.29953319449363985  1.0000
  C   C15       1.0  0.14971045786987341  0.5141770740750533  0.2693961451965691  1.0000
  C   C16       1.0  0.14798665342628672  0.46785901526949303  0.28448553805546084  1.0000
  C   C17       1.0  0.1458050978189006  0.4587029785337427  0.33027419032443367  1.0000
  C   C18       1.0  0.1460821994807796  0.49589951414242006  0.3606931127821688  1.0000
  H   H9        1.0  0.1500320893022892  0.5868995716380705  0.28741537376626236  1.0000
  H   H10       1.0  0.15245843783920282  0.5218861418689168  0.23452357578893754  1.0000
  H   H11       1.0  0.14478472771909115  0.4229636055106236  0.3422254776525735  1.0000
  H   H12       1.0  0.14505638510945376  0.48872807135945556  0.3959929156781693  1.0000
  C   C19       1.0  0.5914063479444998  0.27950851864919385  0.39713097852554763  1.0000
  C   C20       1.0  0.6081496176142211  0.2882452629109717  0.3545697894907738  1.0000
  C   C21       1.0  0.5950523114194939  0.2601564236281109  0.31874516651656715  1.0000
  C   C22       1.0  0.5665518450069189  0.22232265770512533  0.32581412678147137  1.0000
  C   C23       1.0  0.5517015722996351  0.21206442727235303  0.3687739458359781  1.0000
  C   C24       1.0  0.5633683967879646  0.241274023212431  0.4043079270662523  1.0000
  H   H13       1.0  0.6302447714238752  0.3174650002686622  0.3489937984245487  1.0000
  H   H14       1.0  0.6070503570074729  0.26772631783468087  0.28559833178697247  1.0000
  H   H15       1.0  0.530173337288669  0.18244557036586337  0.3743598073429088  1.0000
  H   H16       1.0  0.5504962692992591  0.2342120079346027  0.43712505737720253  1.0000
  C   C25       1.0  0.39938801244831373  0.43329091506087725  0.5321382252278704  1.0000
  C   C26       1.0  0.3794464671476312  0.3897814887897879  0.524467936899519  1.0000
  C   C27       1.0  0.3344592178681439  0.38705541723709935  0.5144142103859018  1.0000
  C   C28       1.0  0.30935801154191384  0.42780656582572946  0.5121240761392464  1.0000
  C   C29       1.0  0.3293903540571086  0.47131826280814  0.519443961138793  1.0000
  C   C30       1.0  0.37437602325434016  0.4740684827060505  0.5294885960762731  1.0000
  H   H17       1.0  0.39851092926114934  0.3581246682277329  0.5266652991995784  1.0000
  H   H18       1.0  0.31906269935478027  0.3533791947448978  0.5087983232452415  1.0000
  H   H19       1.0  0.3102376991693477  0.502896873988362  0.5175848311128459  1.0000
  H   H20       1.0  0.3896766833261716  0.5077654206030413  0.5353478156097028  1.0000
  C   C31       1.0  0.41096946335840373  0.1660803840692683  0.5461764011278445  1.0000
  C   C32       1.0  0.42593881961606406  0.17461160587154226  0.5894215944817293  1.0000
  C   C33       1.0  0.36705658182756207  0.6820055349679536  0.5593319685976736  1.0000
  C   C34       1.0  0.3363772950877724  0.6464589797137742  0.5513925973127954  1.0000
  C   C35       1.0  0.34271151012562895  0.6021032857725429  0.5701421103264092  1.0000
  C   C36       1.0  0.3792316624783717  0.5937437164194851  0.5977680351829899  1.0000
  H   H21       1.0  0.44330319563074766  0.20660107734479663  0.5968420087338205  1.0000
  H   H22       1.0  0.4299868824676422  0.14867509276321075  0.6568394440758503  1.0000
  H   H23       1.0  0.3193542424100941  0.5743516748957653  0.5637859357353151  1.0000
  H   H24       1.0  0.38367934038726836  0.5595985699652362  0.6126719265559354  1.0000
  C   C37       1.0  0.02390260515648235  0.3315111012196306  0.07689760071308281  1.0000
  C   C38       1.0  0.0430858424302456  0.3613760906230679  0.10825620307925997  1.0000
  C   C39       1.0  0.06699610010559143  0.4007770524569126  0.09419998146090824  1.0000
  C   C40       1.0  0.07112383634239006  0.41078635209885034  0.04870640616343325  1.0000
  C   C41       1.0  0.05134033844582753  0.381318049886665  0.01730896113711733  1.0000
  C   C42       1.0  0.027787447151682132  0.34166788295158546  0.03140621173110225  1.0000
  H   H25       1.0  0.0387378471265587  0.35449328585108875  0.14337516486282884  1.0000
  H   H26       1.0  0.08154585199101905  0.4238334717501494  0.11864548121965549  1.0000
  H   H27       1.0  0.05465334338841398  0.3887661099116841  0.9820874135657185  1.0000
  H   H28       1.0  0.013072660591586292  0.31870998109201143  0.006940500301825248  1.0000
  C   C43       1.0  0.5949675274997853  0.5071665785647902  0.10222720420868751  1.0000
  C   C44       1.0  0.6258601168355766  0.48005729463906627  0.07986201156327155  1.0000
  C   C45       1.0  0.6254791328888181  0.4312568316896337  0.08483982699207271  1.0000
  C   C46       1.0  0.5942477945179314  0.40940636541454517  0.11220055568709056  1.0000
  C   C47       1.0  0.5635595082030314  0.43645386970605005  0.13498388292817776  1.0000
  C   C48       1.0  0.5640236363791663  0.48532952364630827  0.13008974085829728  1.0000
  H   H29       1.0  0.6500541232505749  0.4966262378483797  0.05865923504801973  1.0000
  H   H30       1.0  0.6493244142514148  0.41044391898604204  0.06724246675257883  1.0000
  H   H31       1.0  0.5395895078863797  0.4197558616288824  0.15638528521552633  1.0000
  H   H32       1.0  0.5405193739161517  0.5061259752313887  0.14802618105362123  1.0000
  C   C49       1.0  0.8015929461392846  0.7285928029675895  0.07910340054859777  1.0000
  C   C50       1.0  0.7457916088495039  0.1690337414723416  0.01509557837319697  1.0000
  C   C51       1.0  0.7885328490760489  0.1705627628007531  0.9987082607797015  1.0000
  C   C52       1.0  0.8129643070440252  0.12970410685111822  0.9945085383408704  1.0000
  C   C53       1.0  0.8689558244172367  0.687262966107187  0.06201889618326906  1.0000
  C   C54       1.0  0.8229508992731022  0.6905865888923969  0.059686058887908455  1.0000
  H   H33       1.0  0.7271283532903092  0.2008958527313886  0.016919067220900304  1.0000
  H   H34       1.0  0.8022078392197528  0.20369498447258444  0.9891619592412138  1.0000
  H   H35       1.0  0.8854186290060947  0.6581939056523196  0.04648029456723379  1.0000
  H   H36       1.0  0.8041422480725221  0.6639655158294092  0.04249261187220821  1.0000
  C   C55       1.0  0.7859846767125426  0.48012173595069846  0.9938438045920767  1.0000
  C   C56       1.0  0.812269199672315  0.4470063871005064  0.9728725598618706  1.0000
  C   C57       1.0  0.8114705895787905  0.4004352513385309  0.9872527295633083  1.0000
  C   C58       1.0  0.7841775535636737  0.38694284050220806  0.022469173925278918  1.0000
  C   C59       1.0  0.7562926168085313  0.4196406030719845  0.042084256686259584  1.0000
  C   C60       1.0  0.7571779063933926  0.4663944237088028  0.0277152166924588  1.0000
  H   H37       1.0  0.8335896355410739  0.45748477633114215  0.9458264037941199  1.0000
  H   H38       1.0  0.8320630406284181  0.3749673305103321  0.9711682108114816  1.0000
  H   H39       1.0  0.7349990437106996  0.40920674326494094  0.06919993408918845  1.0000
  H   H40       1.0  0.7365889630201427  0.4919670410708993  0.0437735403626458  1.0000
  C   C61       1.0  0.1073960730131159  0.611958673797322  0.6267453847673332  1.0000
  C   C62       1.0  0.14245240045539886  0.6429846107264543  0.6193287421940816  1.0000
  C   C63       1.0  0.14428176130758863  0.1392043327408452  0.579109834334894  1.0000
  C   C64       1.0  0.12551439159838074  0.180619383383487  0.5946518504886568  1.0000
  C   C65       1.0  0.12241404256097499  0.1884575535844695  0.6404221139512547  1.0000
  C   C66       1.0  0.07241786937770578  0.6257014494826171  0.6535868360321248  1.0000
  H   H41       1.0  0.17026301201973992  0.6321929624464325  0.5997581651458632  1.0000
  H   H42       1.0  0.14610751795043386  0.13270881752880404  0.5436710730598378  1.0000
  H   H43       1.0  0.10863591831824104  0.22054086517007201  0.6527051587196113  1.0000
  H   H44       1.0  0.04601409418472868  0.6014349467306459  0.6605510495257985  1.0000
  C   C67       1.0  0.9738531687000958  0.23642477221944339  0.7821232717060469  1.0000
  C   C68       1.0  0.956361045987834  0.22160129203475085  0.8227485173063158  1.0000
  C   C69       1.0  0.9451281959693171  0.25445692314872387  0.8550436199191087  1.0000
  C   C70       1.0  0.9522766439560686  0.30214116661003243  0.847234368309463  1.0000
  C   C71       1.0  0.9691647612815468  0.3171266916840724  0.8062612280744063  1.0000
  C   C72       1.0  0.9796940883801163  0.28420301356955663  0.7734968099028499  1.0000
  H   H45       1.0  0.9512226061507609  0.18470862597088575  0.8292101281885964  1.0000
  H   H46       1.0  0.9308162976006167  0.24268253794777106  0.8859320083190287  1.0000
  H   H47       1.0  0.9744458154027869  0.35403098903435737  0.8000355309286287  1.0000
  H   H48       1.0  0.9929971304717218  0.29576690201824923  0.7419556596307375  1.0000
  C   C73       1.0  0.656843716164697  0.6327021244912344  0.5917685414402429  1.0000
  C   C74       1.0  0.6722102928910094  0.6753991004310128  0.5748159875577682  1.0000
  C   C75       1.0  0.6113006265553672  0.18572585616644086  0.6734530372168018  1.0000
  C   C76       1.0  0.5760778623780941  0.2093399544950558  0.6536797494974474  1.0000
  C   C77       1.0  0.6211640646236193  0.6733368386760958  0.6521539278352789  1.0000
  C   C78       1.0  0.6311979828972042  0.6317081714453694  0.6303018748744911  1.0000
  H   H49       1.0  0.6920019237999462  0.6761198637248454  0.5449375756068999  1.0000
  H   H50       1.0  0.6367832961829493  0.2052370031276975  0.6905664490041745  1.0000
  H   H51       1.0  0.5157328819014091  0.2020960093729137  0.6171341343769199  1.0000
  H   H52       1.0  0.618957031912197  0.5987768937172578  0.643243826513031  1.0000
  C   C79       1.0  0.6237403095928956  0.616143834324738  0.8550626044690418  1.0000
  C   C80       1.0  0.6274579896389155  0.6227049215703578  0.8089212357025463  1.0000
  C   C81       1.0  0.6222751183200156  0.5846473509193233  0.7798958544324869  1.0000
  C   C82       1.0  0.6129930569244255  0.5400224763961394  0.7969162479989517  1.0000
  C   C83       1.0  0.6064227491623646  0.534154954202545  0.8427175512022008  1.0000
  C   C84       1.0  0.6120483513433391  0.5720846478565368  0.8717540709179502  1.0000
  H   H53       1.0  0.6360563489061691  0.6567625750778807  0.7956345097964387  1.0000
  H   H54       1.0  0.6259559311539197  0.5898398621023929  0.7444428852739391  1.0000
  H   H55       1.0  0.5985406980636915  0.4998802615085516  0.8560043068016785  1.0000
  H   H56       1.0  0.60723153338579  0.5671474844487694  0.9070577779246047  1.0000
  C   C85       1.0  0.8089832959493456  0.3757903004587856  0.6253336932789341  1.0000
  C   C86       1.0  0.8344812021922087  0.34605759842016254  0.5993358707200929  1.0000
  C   C87       1.0  0.8801850509757485  0.35206407726692257  0.5977679449792692  1.0000
  C   C88       1.0  0.9007027569686348  0.38727812833125175  0.6227416819935478  1.0000
  C   C89       1.0  0.8753016537288453  0.41667875707345864  0.6492016115517414  1.0000
  C   C90       1.0  0.8295346890612552  0.4109616133667801  0.6504237616638098  1.0000
  H   H57       1.0  0.8191292213375161  0.31864175474966827  0.5799995582494322  1.0000
  H   H58       1.0  0.8995497118501398  0.32914780051421555  0.5772107137750347  1.0000
  H   H59       1.0  0.8908877441230391  0.4428668139990504  0.6698737410168536  1.0000
  H   H60       1.0  0.8103889665082245  0.4331971709260717  0.6717027764312833  1.0000
  C   C91       1.0  0.8349957855882072  0.6051300524253941  0.7062388759384675  1.0000
  C   C92       1.0  0.8642386233028981  0.634424481403849  0.7290418236835979  1.0000
  C   C93       1.0  0.8755156026692958  0.15641038431236046  0.6492502845018925  1.0000
  C   C94       1.0  0.8527852631185739  0.16636782265055577  0.6097137719273447  1.0000
  C   C95       1.0  0.8321922954056518  0.6608608148169534  0.6452395711468192  1.0000
  C   C96       1.0  0.8179448721633067  0.6189339202723882  0.6649221086472323  1.0000
  H   H61       1.0  0.87051802069501  0.13204870359805554  0.7171678728092585  1.0000
  H   H62       1.0  0.9107316954200377  0.1608381159024993  0.650962991993025  1.0000
  H   H63       1.0  0.8202920181211282  0.6706360770657382  0.6124878260196415  1.0000
  H   H64       1.0  0.7948471206892199  0.5967017573612351  0.6474047652178577  1.0000
  Fe  Fe33      1.0  0.7336518361335161  0.975580076919809  0.6418004487449976  1.0000
  S   S65       1.0  0.760270197662612  0.9817225983036609  0.7110560020401865  1.0000
  S   S66       1.0  0.7769315910296031  0.9409348324299459  0.5917479147876615  1.0000
  Fe  Fe34      1.0  0.6498148018290053  0.02496452477258493  0.6657428790120627  1.0000
  S   S67       1.0  0.6694098067844777  0.03543326355470788  0.7370789728100596  1.0000
  S   S68       1.0  0.5854133111484857  0.05101679372203183  0.6404429230033397  1.0000
  Fe  Fe35      1.0  0.734817664592472  0.05475125437580086  0.7079921096062417  1.0000
  S   S69       1.0  0.7787453386448502  0.1128450047799543  0.7317218144076139  1.0000
  Fe  Fe36      1.0  0.6927852165518354  0.9613481788209495  0.7325745127531029  1.0000
  S   S70       1.0  0.6890114860021419  0.9082187187145309  0.7875247258463579  1.0000
  S   S71       1.0  0.7133344119183275  0.050250967666171764  0.6367120013664456  1.0000
  S   S72       1.0  0.6674815145388631  0.948980134246282  0.6634863588182578  1.0000
  Fe  Fe37      1.0  0.9379568977681659  0.7734226730583662  0.6797111996487767  1.0000
  S   S73       1.0  0.9914592735002874  0.8143993362394425  0.6459193382248274  1.0000
  S   S74       1.0  0.8843502023696606  0.7385147369474343  0.6401583084411315  1.0000
  Fe  Fe38      1.0  0.9691253878843857  0.799144727485288  0.772317023528197  1.0000
  S   S75       1.0  0.025034282576491096  0.8431973368846941  0.7469794725124057  1.0000
  S   S76       1.0  0.9530691397373311  0.7827340879545122  0.8435742892768473  1.0000
  Fe  Fe39      1.0  0.9761749696678419  0.8690488636227012  0.6966855074377731  1.0000
  S   S77       1.0  0.9649958951372986  0.9444435277767378  0.6795643638305134  1.0000
  Fe  Fe40      1.0  0.03552261091818809  0.7844126410577825  0.6987602178073817  1.0000
  S   S78       1.0  0.10429400457725446  0.7601003040275426  0.6836464362109094  1.0000
  S   S79       1.0  0.9191835445699504  0.8303374607307958  0.7264984501812567  1.0000
  S   S80       1.0  0.983310256565549  0.7383216368983847  0.7281921196520943  1.0000
  Fe  Fe41      1.0  0.5940054198456916  0.985599349947266  0.9945565431924408  1.0000
  S   S81       1.0  0.5772849815321868  0.036646438967435246  0.0482252885158545  1.0000
  S   S82       1.0  0.5558243629856341  0.9799857947252524  0.9310094568912926  1.0000
  Fe  Fe42      1.0  0.6759114573081679  0.9517308644845273  0.04149277177149813  1.0000
  S   S83       1.0  0.6668609277752612  0.9994311930697137  0.09975869905604576  1.0000
  S   S84       1.0  0.729511743851756  0.8990118976161665  0.03403511457274799  1.0000
  Fe  Fe43      1.0  0.5958705065994325  0.9787248184555996  0.09495415419914477  1.0000
  S   S85       1.0  0.5596398757942281  0.9689686407830069  0.15939036331832324  1.0000
  Fe  Fe44      1.0  0.6492406451336663  0.05273954783301371  0.0482404863314525  1.0000
  S   S86       1.0  0.6742074761171647  0.12610030814586204  0.05065652230165374  1.0000
  S   S87       1.0  0.6063461646512023  0.9257156945338103  0.041049187752163485  1.0000
  S   S88       1.0  0.6645955851895474  0.007111051254782286  0.9901245064470303  1.0000
  Fe  Fe45      1.0  0.9595803256716114  0.8931591056986183  0.11738410136689903  1.0000
  S   S89       1.0  0.9726037168616267  0.8300731657622273  0.16012609632803734  1.0000
  S   S90       1.0  0.9082335160984415  0.9472214330839591  0.13165233768660567  1.0000
  Fe  Fe46      1.0  0.03154430456019175  0.8699917756402199  0.051596529467981656  1.0000
  S   S91       1.0  0.05115532643917864  0.804948424296968  0.08794258254141707  1.0000
  S   S92       1.0  0.06239679287167088  0.893484983269974  0.9876627199498625  1.0000
  Fe  Fe47      1.0  0.9787726531538408  0.7922867970678538  0.09514222107618031  1.0000
  S   S93       1.0  0.95128732526846  0.7204401421368127  0.08273749803864461  1.0000
  Fe  Fe48      1.0  0.0434640042912402  0.8482731617320611  0.14933629138673  1.0000
  S   S94       1.0  0.09415487842582482  0.8431808260066745  0.2033682719984133  1.0000
  S   S95       1.0  0.9595527619488652  0.8538108303522463  0.0531137049488315  1.0000
  S   S96       1.0  0.030372071334508144  0.915055775773461  0.11220626673504897  1.0000
  Fe  Fe49      1.0  0.551609776313437  0.7609891524375954  0.6725980057675763  1.0000
  S   S97       1.0  0.5116247132778686  0.7357853339730234  0.615030239532615  1.0000
  S   S98       1.0  0.6238199189077924  0.7676523622891817  0.6631108126777132  1.0000
  Fe  Fe50      1.0  0.47435678873141296  0.7715378795078806  0.7314869572765443  1.0000
  S   S99       1.0  0.42582044996140395  0.7475488083405939  0.6801067222745325  1.0000
  S   S100      1.0  0.4520209604734186  0.7928935177931925  0.7989279591915781  1.0000
  Fe  Fe51      1.0  0.475630153118842  0.6925913404978751  0.6651053883391496  1.0000
  S   S101      1.0  0.4531115827788172  0.6211545613714028  0.6439970658813646  1.0000
  Fe  Fe52      1.0  0.46474578925293863  0.7924039241036455  0.6332986380828209  1.0000
  S   S102      1.0  0.4289617531444592  0.8303121608764192  0.5786240015504928  1.0000
  S   S103      1.0  0.5205387370825839  0.7118316925361221  0.721699400265599  1.0000
  S   S104      1.0  0.5086599754497102  0.8223375264027456  0.6862208058115563  1.0000
  Fe  Fe53      1.0  0.2594112265629033  0.9575271462132569  0.6013524351644756  1.0000
  S   S105      1.0  0.21241530969503725  0.9470083016385072  0.657693942476473  1.0000
  S   S106      1.0  0.24749966180070299  0.9249516566642205  0.5347400557477122  1.0000
  Fe  Fe54      1.0  0.32158875754822175  0.018168018136812236  0.6543136252849735  1.0000
  S   S107      1.0  0.2807957819528944  0.01220922386448775  0.7161203494586782  1.0000
  S   S108      1.0  0.38343069945449404  0.06144018144260266  0.6584005982109131  1.0000
  Fe  Fe55      1.0  0.2732582842994555  0.9367825775226105  0.6984953668925921  1.0000
  S   S109      1.0  0.26948594313686736  0.8821409086782616  0.7523179659150295  1.0000
  Fe  Fe56      1.0  0.22364090014820046  0.023189168815565875  0.6704380295423727  1.0000
  S   S110      1.0  0.17099056050114259  0.07083109754158112  0.6945403508923456  1.0000
  S   S111      1.0  0.3198954689344611  0.9409946216234211  0.6406242795271214  1.0000
  S   S112      1.0  0.2647967945883172  0.03552844011772027  0.6099098000478236  1.0000
  Fe  Fe57      1.0  0.45832895658332357  0.7479643583968864  0.25229521011013495  1.0000
  S   S113      1.0  0.4475900094426683  0.7928208510024296  0.3126349873520179  1.0000
  S   S114      1.0  0.4935219981358898  0.7618589033419756  0.18805158324745003  1.0000
  Fe  Fe58      1.0  0.40746046616521825  0.6661856751241318  0.28997051675494456  1.0000
  S   S115      1.0  0.39225242153625905  0.7018738018518973  0.3540624278733858  1.0000
  S   S116      1.0  0.3826610444797064  0.5960938924280544  0.2691652825583405  1.0000
  Fe  Fe59      1.0  0.3788737757482681  0.7642094606264603  0.3107625197530641  1.0000
  S   S117      1.0  0.318072558115888  0.8048680569735628  0.3250126610053782  1.0000
  Fe  Fe60      1.0  0.462014575173909  0.727193015544772  0.35090693712027066  1.0000
  S   S118      1.0  0.5067175472489284  0.7301297886525191  0.41019656785122455  1.0000
  S   S119      1.0  0.3878062304164574  0.7261987565732833  0.24671863410849063  1.0000
  S   S120      1.0  0.47885898085456036  0.6846166169296721  0.2908219536845744  1.0000
  Fe  Fe61      1.0  0.17573491702873922  0.06783307375495395  0.2900112370197065  1.0000
  S   S121      1.0  0.23043939840262462  0.0257777236275476  0.3196393741586345  1.0000
  S   S122      1.0  0.1054273578353088  0.04436676446348842  0.2863101159874104  1.0000
  Fe  Fe62      1.0  0.23609685979498723  0.1461329806068563  0.2620242407754534  1.0000
  S   S123      1.0  0.2962924516324446  0.11062832817130097  0.28794311451610843  1.0000
  S   S124      1.0  0.24335186547092297  0.21802605575149103  0.23387754978764966  1.0000
  Fe  Fe63      1.0  0.26702889892262044  0.04594196415857166  0.25782589055133204  1.0000
  S   S125      1.0  0.3090608274359989  0.9956617866454104  0.21967215017930788  1.0000
  Fe  Fe64      1.0  0.25421892895831616  0.09396080408031504  0.346916013954183  1.0000
  S   S126      1.0  0.28410983950588214  0.10161250731526383  0.41472742920459854  1.0000
  S   S127      1.0  0.21053727399574476  0.08324964371512356  0.22582267144291468  1.0000
  S   S128      1.0  0.1960411856459057  0.13468084772213884  0.32341156863907505  1.0000
  C   C97       1.0  0.334162513944153  0.6067807942882311  0.23936730801869477  1.0000
  C   C98       1.0  0.33599389234346083  0.17728728538329408  0.14658633019138817  1.0000
  C   C99       1.0  0.2986518472019351  0.17781449368679203  0.1738117631452567  1.0000
  C   C100      1.0  0.2887560224328333  0.21777164436025775  0.1985240716761164  1.0000
  C   C101      1.0  0.26460682617143527  0.6473804776503455  0.23150717760909673  1.0000
  C   C102      1.0  0.30439763122251906  0.6403538983790528  0.2543718735271004  1.0000
  H   H65       1.0  0.3436276870740784  0.14639053828485382  0.12749970263266647  1.0000
  H   H66       1.0  0.27747065044705843  0.1473479316485513  0.17559081932657392  1.0000
  H   H67       1.0  0.24076602622197613  0.671829506763119  0.24410251816348907  1.0000
  H   H68       1.0  0.3116117544287859  0.6600515904369195  0.28419180853141873  1.0000
  C   C103      1.0  0.31479684193838997  0.8557321564905412  0.29266044266697094  1.0000
  C   C104      1.0  0.277629638725761  0.8838068329313805  0.2961666319523476  1.0000
  C   C105      1.0  0.27544180879446384  0.9260644173610562  0.2727022525227619  1.0000
  C   C106      1.0  0.31056821521346556  0.9408777053286269  0.2461978043828375  1.0000
  C   C107      1.0  0.34726648860495807  0.9120580556575365  0.2415558034550371  1.0000
  C   C108      1.0  0.34942443221927827  0.8694368401946564  0.26485480501910524  1.0000
  H   H69       1.0  0.2504582838289886  0.8729892679047017  0.31706345322470264  1.0000
  H   H70       1.0  0.24609504256464482  0.946648451854738  0.27456544189621374  1.0000
  H   H71       1.0  0.37437326017498584  0.9230282945507634  0.22064062959351727  1.0000
  H   H72       1.0  0.3780600481398776  0.8475572753306566  0.26158340292956417  1.0000
  C   C109      1.0  0.2584565405410027  0.9714627673904767  0.4986105374187103  1.0000
  C   C110      1.0  0.23044533269966527  0.9816090984538483  0.4628850753892562  1.0000
  C   C111      1.0  0.23767392833202988  0.022058122051997087  0.43716794296275713  1.0000
  C   C112      1.0  0.2736063944982913  0.05131463386473456  0.446443415045392  1.0000
  C   C113      1.0  0.3020101707716551  0.04018699988238539  0.48137550582092686  1.0000
  C   C114      1.0  0.2942379865379471  0.0007035348662673968  0.5077384745740565  1.0000
  H   H73       1.0  0.20212202845338126  0.959544433201102  0.4563819118602687  1.0000
  H   H74       1.0  0.21454860201462325  0.03132679810035577  0.41130846695922185  1.0000
  H   H75       1.0  0.3301227649722079  0.06197854511573464  0.48794457273919173  1.0000
  H   H76       1.0  0.3160351230478364  0.9928157841043891  0.5352828345743819  1.0000
  C   C115      1.0  0.4503409610674101  0.8078585026466636  0.5290355982129251  1.0000
  C   C116      1.0  0.4222164975074619  0.7928945607206476  0.4948441194605856  1.0000
  C   C117      1.0  0.43945982556424285  0.770384815419106  0.4572986480815409  1.0000
  C   C118      1.0  0.48475585511976194  0.7626766348694755  0.45415438828940485  1.0000
  C   C119      1.0  0.5127939622038681  0.7788034100062009  0.4878183818334854  1.0000
  C   C120      1.0  0.49564476864850815  0.8015703729516218  0.525035295973578  1.0000
  H   H77       1.0  0.3871020815959192  0.7969054299426874  0.4982817351767454  1.0000
  H   H78       1.0  0.417606950125802  0.7576021291461329  0.43162865986226095  1.0000
  H   H79       1.0  0.5478704773642693  0.7735727508222241  0.4852637628881654  1.0000
  H   H80       1.0  0.5175855548440006  0.8139055983894766  0.5509664600272505  1.0000
  C   C121      1.0  0.40272297339895197  0.8220409148409109  0.7890833596815349  1.0000
  C   C122      1.0  0.36741372325333843  0.8168997380337386  0.8183923537412795  1.0000
  C   C123      1.0  0.32647875252300196  0.8361058813740966  0.8073793650151264  1.0000
  C   C124      1.0  0.3213953246821667  0.8615567945926447  0.7677710331030508  1.0000
  C   C125      1.0  0.35731651985463114  0.8683113163828313  0.739581462132399  1.0000
  C   C126      1.0  0.3976740819989039  0.8478177984534143  0.749765867962142  1.0000
  H   H81       1.0  0.3712717081365098  0.7966399483408944  0.8486642220038347  1.0000
  H   H82       1.0  0.2988629615137079  0.8309957083439407  0.8294403525796307  1.0000
  H   H83       1.0  0.3538243181823536  0.8879874819679586  0.7092148244626129  1.0000
  H   H84       1.0  0.4247623847589288  0.8515895253228027  0.7269159792085688  1.0000
  C   C127      1.0  0.40893304100193684  0.6300037460746438  0.6071786292352911  1.0000
  C   C128      1.0  0.4028897955762276  0.6739743302160983  0.5875441856193218  1.0000
  C   C129      1.0  0.4178642072258859  0.14197521623292841  0.6234978854860326  1.0000
  C   C130      1.0  0.3934674220537118  0.10131280669532994  0.6148101911642855  1.0000
  C   C131      1.0  0.3782438859069933  0.09277418582306307  0.57154772132211  1.0000
  C   C132      1.0  0.387633665908293  0.12488626184091411  0.5371608938258968  1.0000
  H   H85       1.0  0.42585453120995403  0.702035190047461  0.5937676171153751  1.0000
  H   H86       1.0  0.3629279009742813  0.7160187216999278  0.544082762111156  1.0000
  H   H87       1.0  0.3600806523100274  0.0610304687187746  0.5646098922052404  1.0000
  H   H88       1.0  0.3769873728332643  0.11819453465154472  0.5034831764236125  1.0000
  C   C133      1.0  0.0940456526642186  0.8958254181984499  0.2330536471621832  1.0000
  C   C134      1.0  0.05933780645661901  0.927164645753418  0.22763041283435836  1.0000
  C   C135      1.0  0.06227532291281923  0.9721987735544075  0.24569082229248104  1.0000
  C   C136      1.0  0.10014578608536988  0.9861793299888434  0.26873035218404157  1.0000
  C   C137      1.0  0.13406558867210647  0.9541292620142219  0.27574857588407237  1.0000
  C   C138      1.0  0.130753062862309  0.9087441835164806  0.2584518156510299  1.0000
  H   H89       1.0  0.03029351183287532  0.916937232376726  0.20918265512229187  1.0000
  H   H90       1.0  0.035684760683788896  0.9966328017073568  0.24074134613852777  1.0000
  H   H91       1.0  0.16276974132006505  0.9641880964615025  0.2945833674608496  1.0000
  H   H92       1.0  0.1573117171942546  0.884293650458548  0.26345522893624507  1.0000
  C   C139      1.0  0.5386383285903106  0.9123103451337442  0.16688249546155992  1.0000
  C   C140      1.0  0.5344678608339479  0.8819000688203128  0.1307718704536803  1.0000
  C   C141      1.0  0.5202929992090413  0.8357574816960434  0.13752639202724257  1.0000
  C   C142      1.0  0.5093722358307196  0.8202018199594902  0.1803297243834801  1.0000
  C   C143      1.0  0.5125685024786787  0.8508585999262193  0.21638248562228807  1.0000
  C   C144      1.0  0.5272262653229809  0.8969404477738864  0.20964744314450007  1.0000
  H   H93       1.0  0.5414741619248189  0.8939835439218905  0.09753336946598834  1.0000
  H   H94       1.0  0.5174004853300819  0.8122303111086746  0.1095020982448085  1.0000
  H   H95       1.0  0.5047423567487122  0.8388575298231256  0.24955608504079638  1.0000
  H   H96       1.0  0.5304225332030498  0.9203882574662045  0.23769414064176866  1.0000
  C   C145      1.0  0.7274140524836913  0.12667653432656278  0.028845766413110097  1.0000
  C   C146      1.0  0.8262455385030487  0.7624554149495865  0.10182174142759527  1.0000
  C   C147      1.0  0.8721675200363463  0.759408019924473  0.10372473420438198  1.0000
  C   C148      1.0  0.8936387034092731  0.7221481579690109  0.08338976756497796  1.0000
  C   C149      1.0  0.7943770596030827  0.08680859797860685  0.007342352328841839  1.0000
  C   C150      1.0  0.7516801496816146  0.08540025585114552  0.02502731265814373  1.0000
  H   H97       1.0  0.8099404166814614  0.791436762421011  0.11760080650454402  1.0000
  H   H98       1.0  0.890954515533779  0.785974037892395  0.12095812775020069  1.0000
  H   H99       1.0  0.8130099965259926  0.054904830046615505  0.004350242750717159  1.0000
  H   H100      1.0  0.7378434262373929  0.05254830921332676  0.03619413161367979  1.0000
  C   C151      1.0  0.7779898715263255  0.912777880634214  0.06300023556512868  1.0000
  C   C152      1.0  0.8107810716962341  0.8790283594905168  0.06635910676434187  1.0000
  C   C153      1.0  0.8503847936685704  0.8892110261355793  0.08826187452683731  1.0000
  C   C154      1.0  0.857400288730688  0.9332662158678514  0.10697124136896363  1.0000
  C   C155      1.0  0.8240999194764159  0.9668342388134391  0.10464976402294342  1.0000
  C   C156      1.0  0.7844743256364473  0.9566731571577749  0.08243982627510159  1.0000
  H   H101      1.0  0.8053347395305418  0.8447632657414123  0.05233859850759193  1.0000
  H   H102      1.0  0.8752653911675576  0.8627588787027964  0.09112376188998961  1.0000
  H   H103      1.0  0.8291376222507242  0.000896886717841161  0.11943853964581064  1.0000
  H   H104      1.0  0.7593424461947732  0.982985663989454  0.07992384543772667  1.0000
  C   C157      1.0  0.15554115343782032  0.11325277204712836  0.6554589371828974  1.0000
  C   C158      1.0  0.1591204468758931  0.10530486335268652  0.6096111362014499  1.0000
  C   C159      1.0  0.14165318032766017  0.6881957501254711  0.6374234221431451  1.0000
  C   C160      1.0  0.10566357046573782  0.702660503333445  0.6626971723490405  1.0000
  C   C161      1.0  0.07134610850262613  0.6710575586295404  0.6711263974793977  1.0000
  C   C162      1.0  0.13764536200089358  0.15503954998146363  0.6707074723921402  1.0000
  H   H105      1.0  0.1722477483424878  0.07262665989165318  0.5976797255365282  1.0000
  H   H106      1.0  0.1684440998446013  0.7122411502307252  0.6310187336671076  1.0000
  H   H107      1.0  0.04415722816940648  0.6811941459544026  0.6915309591841976  1.0000
  H   H108      1.0  0.13558852205449995  0.161700555298681  0.7060998885844846  1.0000
  C   C163      1.0  0.9863368706413305  0.8125298876424659  0.8819284795004881  1.0000
  C   C164      1.0  0.990216569394545  0.7947961709156303  0.9251947433104992  1.0000
  C   C165      1.0  0.014850846552646235  0.8190550137250671  0.9571351235637813  1.0000
  C   C166      1.0  0.03558030846228699  0.8612783673900205  0.9460288383944149  1.0000
  C   C167      1.0  0.03267047099235065  0.878593216113317  0.9024272189335867  1.0000
  C   C168      1.0  0.0078089826752876235  0.8542843074253483  0.8703759190966966  1.0000
  H   H109      1.0  0.9742278238204134  0.76220101472356  0.9341265791008977  1.0000
  H   H110      1.0  0.01775524857061228  0.8049341895359425  0.9904533526605896  1.0000
  H   H111      1.0  0.048214991838400945  0.9115612247935483  0.8939511026024201  1.0000
  H   H112      1.0  0.003910088935974887  0.8687400975847798  0.8373368358148771  1.0000
  C   C169      1.0  0.5816327914293823  0.11173366418503172  0.6468736425383633  1.0000
  C   C170      1.0  0.6143976246952745  0.1369221285441482  0.6695321306038126  1.0000
  C   C171      1.0  0.6627901472561523  0.7170808761289558  0.5971903453945826  1.0000
  C   C172      1.0  0.6374828991203902  0.7159097724832274  0.6359894704876693  1.0000
  C   C173      1.0  0.5432023674529355  0.1840111351094098  0.6317268659137589  1.0000
  C   C174      1.0  0.5457365979794431  0.13528678974994723  0.6285470692986982  1.0000
  H   H113      1.0  0.642251411822886  0.11894196663645107  0.6837322546281409  1.0000
  H   H114      1.0  0.6743752128051524  0.7501688368607166  0.5840339572861083  1.0000
  H   H115      1.0  0.6015289629851738  0.6723247514336175  0.6820778630893366  1.0000
  H   H116      1.0  0.5201897586956322  0.11601452892783648  0.6112155748262188  1.0000
  C   C175      1.0  0.5906283382790286  0.9568675939334345  0.8906662713138831  1.0000
  C   C176      1.0  0.5838158860948947  0.9673012578746335  0.8455839746529409  1.0000
  C   C177      1.0  0.6139152796192796  0.9520413683985278  0.8136074783756272  1.0000
  C   C178      1.0  0.6502634053363925  0.9256079289615864  0.8267288807010954  1.0000
  C   C179      1.0  0.6563307963386288  0.9139320173364444  0.8715980384557359  1.0000
  C   C180      1.0  0.6266758018781242  0.9298314036301961  0.9036164709359931  1.0000
  H   H117      1.0  0.5559775670619163  0.9883167228999334  0.8356472785281124  1.0000
  H   H118      1.0  0.6090201872484808  0.9607670054816612  0.778848127252296  1.0000
  H   H119      1.0  0.6844975937642458  0.8935670024393049  0.881814505396177  1.0000
  H   H120      1.0  0.6318398627534939  0.9213542566495413  0.938395490576528  1.0000
  C   C181      1.0  0.8307491318923758  0.9444945230714522  0.6122202728009525  1.0000
  C   C182      1.0  0.8439309831141131  0.9826326712488803  0.6382631975565132  1.0000
  C   C183      1.0  0.8857317651504477  0.9834121338986291  0.658016684731301  1.0000
  C   C184      1.0  0.9140834818556797  0.945621892508405  0.6523011218098196  1.0000
  C   C185      1.0  0.9012678727465413  0.9080860599032174  0.6253466560347005  1.0000
  C   C186      1.0  0.859969201220108  0.9079259053963601  0.6046300416725678  1.0000
  H   H121      1.0  0.8218170066225859  0.011578935421996395  0.6433626790784415  1.0000
  H   H122      1.0  0.8953019679576563  0.012520214314140521  0.6788675764332717  1.0000
  H   H123      1.0  0.923168994602034  0.8790458595793196  0.6203492848190847  1.0000
  H   H124      1.0  0.8502483436946022  0.8786303895239589  0.5840627353838965  1.0000
  C   C187      1.0  0.8071308107161876  0.1340794553658189  0.6850230699697905  1.0000
  C   C188      1.0  0.8527401669921387  0.14012110269010747  0.686816413282016  1.0000
  C   C189      1.0  0.8774950086600426  0.6769477316970421  0.7098965147912175  1.0000
  C   C190      1.0  0.8627362993667341  0.6893717127448054  0.6673324502610184  1.0000
  C   C191      1.0  0.8072728254477165  0.15975803250686993  0.6077667982344017  1.0000
  C   C192      1.0  0.7844002541333541  0.1443274785774844  0.6455902602991713  1.0000
  H   H125      1.0  0.8769682408697701  0.6241341889697959  0.7613105790695088  1.0000
  H   H126      1.0  0.8997359936054129  0.6995776354677004  0.7278077043986388  1.0000
  H   H127      1.0  0.7896494159632307  0.16710887098714933  0.5772448891703559  1.0000
  H   H128      1.0  0.7490399317658736  0.1410402642225015  0.6444464806501022  1.0000
  N   N1        1.0  0.4845219086841412  0.09089400133944348  0.15361440755751277  1.0000
  C   C193      1.0  0.5308292248581754  0.0897515072982662  0.16869513856763252  1.0000
  C   C194      1.0  0.45792771069077376  0.1165559417165356  0.18647538447875855  1.0000
  C   C195      1.0  0.4674820365274208  0.04255428843334563  0.14930729942410004  1.0000
  C   C196      1.0  0.48183558285913947  0.11473324072469682  0.10990448421316068  1.0000
  H   H129      1.0  0.5520135677724377  0.07141824676009079  0.14424822319524422  1.0000
  H   H130      1.0  0.5342838777413295  0.07073666975381032  0.2009735793995273  1.0000
  H   H131      1.0  0.54450774102053  0.1256083118735969  0.17338837318733513  1.0000
  H   H132      1.0  0.4228759701562075  0.11872345839819376  0.17581511285554519  1.0000
  H   H133      1.0  0.45899058171895946  0.0992737709496665  0.21974196762659326  1.0000
  H   H134      1.0  0.47012094034306745  0.1530771819505492  0.19064119213808262  1.0000
  H   H135      1.0  0.43220551090125003  0.042018065246677505  0.13938202536473598  1.0000
  H   H136      1.0  0.4706181715294398  0.022750301509227633  0.181192958708561  1.0000
  H   H137      1.0  0.48606048248679223  0.02264861632936488  0.12378294157463254  1.0000
  H   H138      1.0  0.4472773075894915  0.116555469654408  0.09770273499856863  1.0000
  H   H139      1.0  0.5013718756194752  0.0962470934024795  0.08421127789525773  1.0000
  H   H140      1.0  0.4944587257092113  0.15128103384757607  0.11181200253362888  1.0000
  N   N2        1.0  0.10495541597784741  0.40156297555403214  0.5821156676164602  1.0000
  C   C197      1.0  0.15060938486250874  0.41926236029636527  0.5788184949095613  1.0000
  C   C198      1.0  0.07628211613202662  0.4285040865248766  0.5517005478672768  1.0000
  C   C199      1.0  0.08925488589885866  0.4070569726147477  0.6283456419640527  1.0000
  C   C200      1.0  0.10354522773261765  0.3515919552494369  0.5696068008795202  1.0000
  H   H141      1.0  0.1528174535907849  0.4570276779060762  0.5877223700130063  1.0000
  H   H142      1.0  0.16372817016988073  0.41544134224592305  0.5444301665768282  1.0000
  H   H143      1.0  0.17312383090744476  0.39990276223371546  0.6015043421759713  1.0000
  H   H144      1.0  0.041420411425431514  0.41653069556903055  0.5540662541900674  1.0000
  H   H145      1.0  0.07711836867316735  0.46650779689492283  0.5597830875745681  1.0000
  H   H146      1.0  0.0867242172837972  0.4247265026558376  0.5163961866247301  1.0000
  H   H147      1.0  0.05479529930970273  0.3942822287501376  0.6320288912943111  1.0000
  H   H148      1.0  0.08997776097465793  0.4444861953130356  0.6386496923957284  1.0000
  H   H149      1.0  0.10988825657433554  0.3870674988365149  0.6523578269747566  1.0000
  H   H150      1.0  0.11640857880256084  0.3460123393837972  0.5353608329391558  1.0000
  H   H151      1.0  0.06938375860903223  0.33752903292744857  0.5701934630311589  1.0000
  H   H152      1.0  0.12356038492418353  0.3297252213695542  0.5926877823974324  1.0000
  N   N3        1.0  0.13496723837968871  0.2880242310572779  0.18713893624022435  1.0000
  C   C201      1.0  0.1335381187051463  0.23935131180255556  0.20389038904630513  1.0000
  C   C202      1.0  0.12649256346837645  0.2883539737854804  0.13860230206359656  1.0000
  C   C203      1.0  0.1787766462459608  0.3086019844511472  0.19619321823470282  1.0000
  C   C204      1.0  0.10107280770803295  0.3158412771518772  0.2098955708296983  1.0000
  H   H153      1.0  0.15856968302476915  0.21733451989503264  0.18718176692134864  1.0000
  H   H154      1.0  0.10077269677846545  0.22289084283592167  0.1981452526116639  1.0000
  H   H155      1.0  0.14068174095972252  0.2377306769000065  0.24030289741892777  1.0000
  H   H156      1.0  0.12836796783799476  0.32446564923775095  0.12470423138273573  1.0000
  H   H157      1.0  0.15094173752604934  0.26691721280527264  0.12047066355565929  1.0000
  H   H158      1.0  0.09316680143756684  0.27419679563332017  0.13060568804610057  1.0000
  H   H159      1.0  0.20509781879354216  0.28966941030284143  0.1781892353346831  1.0000
  H   H160      1.0  0.18697222657581203  0.3072729759699158  0.23237471481502833  1.0000
  H   H161      1.0  0.18039717637454045  0.345919052144619  0.18592024067169632  1.0000
  H   H162      1.0  0.10073762409962406  0.35254508473701573  0.19733986808330933  1.0000
  H   H163      1.0  0.1072945046241569  0.3176086937191651  0.24644272986260188  1.0000
  H   H164      1.0  0.06760242437688357  0.300867798177759  0.20458211976623875  1.0000
  N   N4        1.0  0.944280579624546  0.071079962491164  0.07120823738444959  1.0000
  C   C205      1.0  0.9389687275692503  0.07761610790878648  0.11972932974971802  1.0000
  C   C206      1.0  0.9553590653412256  0.11644586445602045  0.050094481872448686  1.0000
  C   C207      1.0  0.9027679299202137  0.052999304816574  0.05205855660267922  1.0000
  C   C208      1.0  0.9797688095397797  0.03718845963410655  0.06293042380923142  1.0000
  H   H165      1.0  0.9301901298641282  0.04409805752277385  0.13663932069947624  1.0000
  H   H166      1.0  0.9123751551618813  0.1029545629774542  0.12708592806641308  1.0000
  H   H167      1.0  0.9697523929076763  0.09091861770597887  0.1354363093858736  1.0000
  H   H168      1.0  0.959264468983463  0.11289084366085  0.013368559757805043  1.0000
  H   H169      1.0  0.9288580525686704  0.14248644862766313  0.05538162841453519  1.0000
  H   H170      1.0  0.9863505958143757  0.13153008938445132  0.06380440281246602  1.0000
  H   H171      1.0  0.9049491378939408  0.04924970548615826  0.015235575687007728  1.0000
  H   H172      1.0  0.8748977157194987  0.07680020411730548  0.05912658095321598  1.0000
  H   H173      1.0  0.8941885449218838  0.018073829774115646  0.06588075251676928  1.0000
  H   H174      1.0  0.9842970687174808  0.031071059051109184  0.02662489392825695  1.0000
  H   H175      1.0  0.972196842856308  0.0026456468075843897  0.07857634786993328  1.0000
  H   H176      1.0  0.011660440289707141  0.04956373225626587  0.07690606353030494  1.0000
  N   N5        1.0  0.3823084843082274  0.3378993734613334  0.03616261789672337  1.0000
  C   C209      1.0  0.4154184288171954  0.3009318614402399  0.029871159738461328  1.0000
  C   C210      1.0  0.40457756647698107  0.38395632342602776  0.038401386141981624  1.0000
  C   C211      1.0  0.35815624244764654  0.3291142495978669  0.07803065755054782  1.0000
  C   C212      1.0  0.35099056292404107  0.33758291154383285  0.9984075203367557  1.0000
  H   H177      1.0  0.3997931430224617  0.2656348115381835  0.028053872039723645  1.0000
  H   H178      1.0  0.43917007697301247  0.29989813130175963  0.05815465068865055  1.0000
  H   H179      1.0  0.4345779542126724  0.30647559764853677  0.9987756749309716  1.0000
  H   H180      1.0  0.38048489978605904  0.41268124195611217  0.04277932833496067  1.0000
  H   H181      1.0  0.4279761203441188  0.3857075196899829  0.06697107631528376  1.0000
  H   H182      1.0  0.42347143810462495  0.3915801672116115  0.007523526685972336  1.0000
  H   H183      1.0  0.34399638456106607  0.2931292792860772  0.07910244678033407  1.0000
  H   H184      1.0  0.33054032692295254  0.3539355321093276  0.0821952001733397  1.0000
  H   H185      1.0  0.3799414209284322  0.33325216585225054  0.10754327518922897  1.0000
  H   H186      1.0  0.3257883064462208  0.3654295343451668  0.002195983055145012  1.0000
  H   H187      1.0  0.3332496311802182  0.3034848288052189  0.9961276081001856  1.0000
  H   H188      1.0  0.3680215152092221  0.34379020042981095  0.9661493767639762  1.0000
  N   N6        1.0  0.5045805745399521  0.486011237928191  0.6687235239533041  1.0000
  C   C213      1.0  0.528113852219697  0.45370937602484196  0.6389452566961474  1.0000
  C   C214      1.0  0.5304906581888174  0.5295778822926978  0.6740795610802399  1.0000
  C   C215      1.0  0.498542374353602  0.4635422727261289  0.7127339231975828  1.0000
  C   C216      1.0  0.46117989160042583  0.4971419776595146  0.6492309952115157  1.0000
  H   H189      1.0  0.509033780193525  0.42080790586725814  0.6336066222048481  1.0000
  H   H190      1.0  0.5606377683879499  0.4438161089972345  0.6530851329362096  1.0000
  H   H191      1.0  0.5337210290774373  0.4696541049937552  0.6055341472544744  1.0000
  H   H192      1.0  0.5351078117538067  0.5478830080959717  0.6417357923305087  1.0000
  H   H193      1.0  0.5139027777121059  0.5545006131937235  0.6968589798353115  1.0000
  H   H194      1.0  0.5636630437690333  0.522462434447356  0.6881233935539582  1.0000
  H   H195      1.0  0.4813803319720589  0.4871533342687913  0.7362691302828152  1.0000
  H   H196      1.0  0.5307293969992932  0.45442706218013307  0.7282048935109622  1.0000
  H   H197      1.0  0.4789680653108629  0.43065233823416343  0.7100007621928466  1.0000
  H   H198      1.0  0.4423782299927693  0.5212669400824149  0.6709480110513086  1.0000
  H   H199      1.0  0.44091274410585596  0.4650426314401567  0.6440226752410738  1.0000
  H   H200      1.0  0.46452805222533616  0.5145296824954573  0.6161416573878232  1.0000
  N   N7        1.0  0.5328792366217667  0.6317630842876113  0.5174206144413793  1.0000
  C   C217      1.0  0.5379975605951245  0.6108447955463838  0.5621997753402432  1.0000
  C   C218      1.0  0.5669137057331629  0.6682429038998395  0.5107444153249878  1.0000
  C   C219      1.0  0.48873453606179246  0.65265420698632  0.5132888068154302  1.0000
  C   C220      1.0  0.5379708014653466  0.5950554829614579  0.48336055241794273  1.0000
  H   H201      1.0  0.5118505229766972  0.5843877454245484  0.5689436940636354  1.0000
  H   H202      1.0  0.5358391379147631  0.6378266853559121  0.5887202316541068  1.0000
  H   H203      1.0  0.5703935177638351  0.5933686317797765  0.5658638283135515  1.0000
  H   H204      1.0  0.5636530581236628  0.6852013002481612  0.47743933581901066  1.0000
  H   H205      1.0  0.5646352274096805  0.6962620277647658  0.5362679426949618  1.0000
  H   H206      1.0  0.6005763460471913  0.6533771300775971  0.5130625754536373  1.0000
  H   H207      1.0  0.48478455453222385  0.6826715318265794  0.536286922315854  1.0000
  H   H208      1.0  0.46228845512176947  0.6268226054470458  0.521029455407379  1.0000
  H   H209      1.0  0.48261402827087435  0.6660051946953919  0.47902212915628134  1.0000
  H   H210      1.0  0.5127289762599939  0.5670032589660445  0.48740587398572716  1.0000
  H   H211      1.0  0.5709781303929267  0.5785275229236377  0.4857232612735498  1.0000
  H   H212      1.0  0.5345458294449817  0.6099139955974004  0.44913585591356475  1.0000
  N   N8        1.0  0.7518375277414459  0.532346528415754  0.8460862009171163  1.0000
  C   C221      1.0  0.7682469016349952  0.486972667160901  0.8299790021608503  1.0000
  C   C222      1.0  0.7284100792023487  0.556808830832344  0.8098054284259323  1.0000
  C   C223      1.0  0.7892823092526537  0.5615104235630543  0.8611170423038719  1.0000
  C   C224      1.0  0.7211361981432827  0.5241495821843686  0.8833565497473582  1.0000
  H   H213      1.0  0.786627570119068  0.4681256970326367  0.8566200067392366  1.0000
  H   H214      1.0  0.7907932478682553  0.4917821539167014  0.8011728566448942  1.0000
  H   H215      1.0  0.7406694664123504  0.4638533377033045  0.8191739027054747  1.0000
  H   H216      1.0  0.7134163691673614  0.5898005346717957  0.8217879165837066  1.0000
  H   H217      1.0  0.7507179750146346  0.5663711012602852  0.7820748938664913  1.0000
  H   H218      1.0  0.7018929950482805  0.5344981345270122  0.7955922720610288  1.0000
  H   H219      1.0  0.8089255268608243  0.5432762169856244  0.8871043955957535  1.0000
  H   H220      1.0  0.7779081528149988  0.5950548009107652  0.8756647106567594  1.0000
  H   H221      1.0  0.8118547573284325  0.5699516408386138  0.8330010462871446  1.0000
  H   H222      1.0  0.7367714005124878  0.5038800455030246  0.9107307880039591  1.0000
  H   H223      1.0  0.6915993970923625  0.5040477876571745  0.8724047651361275  1.0000
  H   H224      1.0  0.7095264107197384  0.5577425104767723  0.8975309430972664  1.0000
  N   N9        1.0  0.6970735547512263  0.25902699884704916  0.11868712381488451  1.0000
  C   C225      1.0  0.7360829896961915  0.22855149654203752  0.11739969879315677  1.0000
  C   C226      1.0  0.6801744719811545  0.26613102646058623  0.07292010269954718  1.0000
  C   C227      1.0  0.7094529948515753  0.30462080445357437  0.13832634677812922  1.0000
  C   C228      1.0  0.662519841804298  0.2366362738905023  0.14607498070317076  1.0000
  H   H225      1.0  0.750693693067069  0.22377998276413597  0.15109241711768856  1.0000
  H   H226      1.0  0.7620761357143941  0.24353687121064727  0.09536427196691785  1.0000
  H   H227      1.0  0.7275242328465816  0.19323885356109421  0.10444590345658973  1.0000
  H   H228      1.0  0.7057342668635086  0.28143595807206034  0.05073961693980422  1.0000
  H   H229      1.0  0.6687751432886443  0.232612034421106  0.057950252266600666  1.0000
  H   H230      1.0  0.6518878899745796  0.2904440164816284  0.0722932428656522  1.0000
  H   H231      1.0  0.6810836770621995  0.3288360238026868  0.139318519409717  1.0000
  H   H232      1.0  0.7354722382047851  0.32240647485090196  0.11854496658870839  1.0000
  H   H233      1.0  0.7220186943378193  0.30059239998550547  0.1729281737156103  1.0000
  H   H234      1.0  0.6739954883708243  0.23047682771717606  0.1808157977109609  1.0000
  H   H235      1.0  0.6523234616334672  0.20223332335133107  0.1318938705881961  1.0000
  H   H236      1.0  0.6327359911159702  0.2589423571304024  0.14763391858913302  1.0000
  N   N10       1.0  0.9417939492672645  0.5518889998878008  0.6202095269261763  1.0000
  C   C229      1.0  0.8979849368670302  0.5347016662087467  0.6060428854900833  1.0000
  C   C230      1.0  0.9407024181168784  0.6033003001494077  0.624979452301083  1.0000
  C   C231      1.0  0.9748718979458156  0.5391702647731343  0.586488996926433  1.0000
  C   C232      1.0  0.9535524350286687  0.5303290638853186  0.6634618654558059  1.0000
  H   H237      1.0  0.8981326360455808  0.49630708822908587  0.6001342758881201  1.0000
  H   H238      1.0  0.8869970081990579  0.5518206188156376  0.5745964635707769  1.0000
  H   H239      1.0  0.8725830283477928  0.5417285782186205  0.6317932724498816  1.0000
  H   H240      1.0  0.973470731561306  0.6179776109649509  0.6339743811437399  1.0000
  H   H241      1.0  0.9299250108329232  0.6208943060643776  0.5936710292960843  1.0000
  H   H242      1.0  0.9175795389149484  0.6136952425336745  0.6515597652000772  1.0000
  H   H243      1.0  0.008318480957088648  0.5516942941454206  0.5961908218138878  1.0000
  H   H244      1.0  0.9670321671532665  0.5548873292008899  0.553443578446145  1.0000
  H   H245      1.0  0.9766092325519565  0.5005221612775957  0.5822513230097736  1.0000
  H   H246      1.0  0.9285692983935074  0.5381862600061179  0.6894399255677921  1.0000
  H   H247      1.0  0.9859027956812049  0.5433894407126126  0.6757577443577213  1.0000
  H   H248      1.0  0.9558264430640079  0.49158268975406827  0.6607202108205941  1.0000
  N   N11       1.0  0.3618871117831319  0.9067027641794324  0.4216570612795523  1.0000
  C   C233      1.0  0.32440060167485024  0.8748255759404623  0.43027019975436104  1.0000
  C   C234      1.0  0.3458754706852291  0.9489830715893444  0.3983407123763701  1.0000
  C   C235      1.0  0.39460766997985297  0.8829890324838132  0.39348421069463374  1.0000
  C   C236      1.0  0.38256224836686237  0.9199731663320905  0.4644959659784199  1.0000
  H   H249      1.0  0.33537537881746615  0.8417009020180048  0.44617727654671346  1.0000
  H   H250      1.0  0.30692864458789204  0.8656979122718563  0.39883782125245215  1.0000
  H   H251      1.0  0.2998494087751168  0.8911762047075107  0.4527436346528728  1.0000
  H   H252      1.0  0.3202164639124353  0.9669941622176764  0.41802955104250117  1.0000
  H   H253      1.0  0.3728998544374402  0.9745589843203745  0.39221394085383726  1.0000
  H   H254      1.0  0.33090864953215915  0.9401454449621378  0.3654386031240245  1.0000
  H   H255      1.0  0.4069643918514572  0.8505026066108298  0.409581202048159  1.0000
  H   H256      1.0  0.4235231577435505  0.9059259910991064  0.3867260831826863  1.0000
  H   H257      1.0  0.38033472548028086  0.8728851304431529  0.36071817519659066  1.0000
  H   H258      1.0  0.3956148782867138  0.8889047674496047  0.48257160102284324  1.0000
  H   H259      1.0  0.35860252896460854  0.9369349373900587  0.48703033554835107  1.0000
  H   H260      1.0  0.41043163848000286  0.9448130463541922  0.4595210554699803  1.0000
  N   N12       1.0  0.7251085581787124  0.056422862952335125  0.8661153456596995  1.0000
  C   C237      1.0  0.746653225966299  0.06298367676769634  0.9098796465566568  1.0000
  C   C238      1.0  0.731790922087084  0.09886211075024277  0.838636155068924  1.0000
  C   C239      1.0  0.6775331740665459  0.048255254976360185  0.8725686743959966  1.0000
  C   C240      1.0  0.7444787098132325  0.01565302002228908  0.8434812353753227  1.0000
  H   H261      1.0  0.7824739137636841  0.07035259359854273  0.9063008850166651  1.0000
  H   H262      1.0  0.7430744519260308  0.031349919206039134  0.9313379109438367  1.0000
  H   H263      1.0  0.7321814129762731  0.09286433388254124  0.9283377912917598  1.0000
  H   H264      1.0  0.715537229673997  0.0955352152932787  0.8055199241968053  1.0000
  H   H265      1.0  0.7181705743306662  0.1303830029871298  0.8550836457630854  1.0000
  H   H266      1.0  0.7673367081871256  0.10561005940902946  0.8323226053581926  1.0000
  H   H267      1.0  0.6600631930723785  0.043645891932795784  0.8402244962282985  1.0000
  H   H268      1.0  0.6618266785102984  0.07781090081623687  0.8903801391303997  1.0000
  H   H269      1.0  0.6713623073017  0.01610253757869362  0.8925376637870372  1.0000
  H   H270      1.0  0.7288015970958235  0.00942847697556104  0.8105097489536921  1.0000
  H   H271      1.0  0.7399573371590946  0.9829863300174532  0.8633352077213113  1.0000
  H   H272      1.0  0.7802964427655931  0.02076121691777466  0.8376309830209256  1.0000
  N   N13       1.0  0.07719618103826575  0.682601310427424  0.17460699565248775  1.0000
  C   C241      1.0  0.08381571254906439  0.6640497745456044  0.1292288432719506  1.0000
  C   C242      1.0  0.11019679508868396  0.719608661665341  0.1835770447977935  1.0000
  C   C243      1.0  0.08232088312157892  0.6443951301494057  0.20754674085775354  1.0000
  C   C244      1.0  0.03254515489223264  0.7023617646530099  0.17800993642818175  1.0000
  H   H273      1.0  0.05961504832194042  0.6358972948084726  0.12134102652988116  1.0000
  H   H274      1.0  0.11734014241723778  0.6491091370319968  0.1254501783664459  1.0000
  H   H275      1.0  0.07992112462464807  0.6919439922033834  0.10353242710184458  1.0000
  H   H276      1.0  0.1058559626665374  0.7350634039075717  0.21725875076185377  1.0000
  H   H277      1.0  0.14428689475318257  0.7057750384030295  0.181702147545485  1.0000
  H   H278      1.0  0.10760927130395892  0.7488112277455597  0.15909778390217336  1.0000
  H   H279      1.0  0.07781504797917416  0.6571923700934209  0.24219468749062667  1.0000
  H   H280      1.0  0.11565047793223493  0.6286400027456049  0.20576723510725167  1.0000
  H   H281      1.0  0.058042850948879066  0.6157615327950685  0.2017456513985267  1.0000
  H   H282      1.0  0.026476530447669067  0.7171577591460448  0.21166412306115256  1.0000
  H   H283      1.0  0.006702486528594065  0.6755304581040265  0.1712089834018645  1.0000
  H   H284      1.0  0.02746934042890259  0.7310571933952696  0.15345005549528978  1.0000
  N   N14       1.0  0.7634761796605574  0.8100879945876794  0.6638876690489502  1.0000
  C   C245      1.0  0.7522860823622263  0.7642709647040846  0.6839406751582321  1.0000
  C   C246      1.0  0.7743651005037016  0.8037756827098603  0.6163445543796114  1.0000
  C   C247      1.0  0.8016342495166816  0.83062836987862  0.6874979697781654  1.0000
  C   C248      1.0  0.725639012923488  0.8418620012063682  0.6676606110079385  1.0000
  H   H285      1.0  0.7236349870125928  0.7478410699538711  0.6668232824294533  1.0000
  H   H286      1.0  0.7435425167888569  0.7677831946458821  0.7197059802730332  1.0000
  H   H287      1.0  0.7802823179742175  0.7395600231673545  0.6815940115139728  1.0000
  H   H288      1.0  0.803557327264598  0.7809997770609505  0.6121695515316606  1.0000
  H   H289      1.0  0.7466081285450619  0.7874440816089141  0.5977643518404067  1.0000
  H   H290      1.0  0.7818006075574846  0.8378557379438174  0.5999278801819952  1.0000
  H   H291      1.0  0.8106870375831366  0.8654177852724674  0.673398922246565  1.0000
  H   H292      1.0  0.8310019870393217  0.8078797823700581  0.684737286971952  1.0000
  H   H293      1.0  0.7946579271453598  0.8356592093150729  0.7235078398328181  1.0000
  H   H294      1.0  0.6965835400516136  0.8283252690349796  0.6490474642299596  1.0000
  H   H295      1.0  0.733647054652747  0.8768896405550344  0.6535950420288826  1.0000
  H   H296      1.0  0.7156058776739375  0.8467555842634421  0.7029765084273112  1.0000
  N   N15       1.0  0.2922224889953302  0.48286752754433726  0.31691865377047695  1.0000
  C   C249      1.0  0.26729777033409474  0.4436748843722074  0.2968873626015957  1.0000
  C   C250      1.0  0.2937131395407245  0.47674056725207997  0.3658627915089225  1.0000
  C   C251      1.0  0.27040443334639996  0.5275062151654983  0.3059322288423824  1.0000
  C   C252      1.0  0.337388857219365  0.4835548796156566  0.29896722979107987  1.0000
  H   H297      1.0  0.2651908730719597  0.4472018273639036  0.2600200838888129  1.0000
  H   H298      1.0  0.23311594662127635  0.44207191732291146  0.3096473792165614  1.0000
  H   H299      1.0  0.2827618821266126  0.4094364640136668  0.3045042901974853  1.0000
  H   H300      1.0  0.31182635318182633  0.505975531607322  0.382235265363718  1.0000
  H   H301      1.0  0.26001783801656353  0.47554997443659  0.3803201564995401  1.0000
  H   H302      1.0  0.310243836655565  0.44357406924393905  0.37547803106855965  1.0000
  H   H303      1.0  0.2892744238330753  0.5579604564154845  0.31908395666514877  1.0000
  H   H304      1.0  0.2367546675525853  0.5288139355370074  0.32010568436617737  1.0000
  H   H305      1.0  0.26724911514153493  0.5325642005684944  0.26924174810940343  1.0000
  H   H306      1.0  0.35761039590137134  0.5116859955982412  0.3144973185266848  1.0000
  H   H307      1.0  0.3374183755876289  0.4901958423748949  0.2623223714888193  1.0000
  H   H308      1.0  0.3544249393791628  0.44977830267677843  0.30493298300484356  1.0000
  N   N16       1.0  0.9481743281358203  0.4787211057077402  0.0011217480587790707  1.0000
  C   C253      1.0  0.9142582618107853  0.5154722178091061  0.0027815801830046727  1.0000
  C   C254      1.0  0.9916711523323724  0.5004349919902007  0.9931726192918232  1.0000
  C   C255      1.0  0.9380656907498457  0.4458102539190041  0.9645487675535975  1.0000
  C   C256      1.0  0.9487903567561539  0.45307795430894793  0.04400191042694823  1.0000
  H   H309      1.0  0.911297672812805  0.5343564090758518  0.9704353163318571  1.0000
  H   H310      1.0  0.921806980019492  0.5418270275153985  0.028966163877411466  1.0000
  H   H311      1.0  0.8812900761360327  0.5004870494367563  0.010558133642187384  1.0000
  H   H312      1.0  0.01752939144271415  0.473436910411503  0.9894124735450264  1.0000
  H   H313      1.0  0.9918286386307151  0.5218780215562936  0.9621697237852388  1.0000
  H   H314      1.0  0.001957450990417219  0.5233588734972798  0.021280277866824848  1.0000
  H   H315      1.0  0.9628920632145299  0.41737170259968726  0.9626064773394615  1.0000
  H   H316      1.0  0.937585548937711  0.4636840711230831  0.9315728056289823  1.0000
  H   H317      1.0  0.9055458599440828  0.42867609545267443  0.9692155643370333  1.0000
  H   H318      1.0  0.9734641503777017  0.42458415451105824  0.04383122038097942  1.0000
  H   H319      1.0  0.9162531193185235  0.4366997221738036  0.0512455453786278  1.0000
  H   H320      1.0  0.9572046455453501  0.4765792920943418  0.07227140324019121  1.0000
  N   N17       1.0  0.03287440388858509  0.06210628232712212  0.7209853104887451  1.0000
  C   C257      1.0  0.9859824606167358  0.07456152604650379  0.7166710181271648  1.0000
  C   C258      1.0  0.03768933019882503  0.023104789306910734  0.7530531008660428  1.0000
  C   C259      1.0  0.05804731785389072  0.1029920785792211  0.7372414573219962  1.0000
  C   C260      1.0  0.049889409642130955  0.04783882258328043  0.6770425102851972  1.0000
  H   H321      1.0  0.9812719733325169  0.10358869960294315  0.6923319114853391  1.0000
  H   H322      1.0  0.9723031690177771  0.08659975883891624  0.748982206601473  1.0000
  H   H323      1.0  0.9658936070492123  0.04420630471447784  0.7053231160659079  1.0000
  H   H324      1.0  0.07279108563339198  0.013031607494562447  0.7569445061291578  1.0000
  H   H325      1.0  0.025014756766880364  0.032721220049410915  0.7864854567213558  1.0000
  H   H326      1.0  0.019267540008061745  0.9915175176997105  0.7418409288445964  1.0000
  H   H327      1.0  0.05613359071216184  0.13272852466284513  0.7132955982778116  1.0000
  H   H328      1.0  0.09336283002774892  0.09454027356971584  0.7420677427240736  1.0000
  H   H329      1.0  0.04520437995009452  0.1157459424804852  0.7696414799323934  1.0000
  H   H330      1.0  0.08473820387852271  0.036579445753507134  0.6793852014006805  1.0000
  H   H331      1.0  0.048620934189318454  0.07716256362513785  0.6525632732688826  1.0000
  H   H332      1.0  0.030728718065112792  0.01792928463415233  0.663180366671157  1.0000
  N   N18       1.0  0.8334568162780087  0.29144550564403215  0.7481156947821243  1.0000
  C   C261      1.0  0.7892152642517772  0.29975146407905173  0.7292377767258664  1.0000
  C   C262      1.0  0.8645817523054876  0.326351944830634  0.7298041275211776  1.0000
  C   C263      1.0  0.8480092293361281  0.2439764968923448  0.7360225030511782  1.0000
  C   C264      1.0  0.8321624446102963  0.2956474017703714  0.797165933717968  1.0000
  H   H333      1.0  0.7892503459285095  0.2965463836297133  0.6922319034007655  1.0000
  H   H334      1.0  0.7773279929530794  0.3355461709894185  0.736972659282679  1.0000
  H   H335      1.0  0.7647355072367011  0.2741075338795831  0.7423173033838641  1.0000
  H   H336      1.0  0.8984458513130438  0.32087780502048147  0.7427418815138634  1.0000
  H   H337      1.0  0.8661511944780115  0.3241722165552532  0.6928870629922896  1.0000
  H   H338      1.0  0.8548402494244126  0.3626495318792977  0.7383430900789842  1.0000
  H   H339      1.0  0.8486257077953397  0.23942958211822085  0.6992205247348781  1.0000
  H   H340      1.0  0.8256735112454113  0.21652567257078714  0.7498000881685576  1.0000
  H   H341      1.0  0.8817396189834001  0.23668248555114912  0.7487541888155405  1.0000
  H   H342      1.0  0.8091191811343248  0.26968658155213854  0.8121936607660308  1.0000
  H   H343      1.0  0.8216057585550566  0.33112414434594006  0.807583493487497  1.0000
  H   H344      1.0  0.8651464806311627  0.289495206092937  0.8122140553168995  1.0000
  N   N19       1.0  0.26753091618957736  0.19132380481765454  0.5385551980176052  1.0000
  C   C265      1.0  0.22613392384135925  0.2180481654207525  0.539319812907521  1.0000
  C   C266      1.0  0.29000833417266625  0.19934102774253432  0.49561568444138016  1.0000
  C   C267      1.0  0.25774294932316905  0.14091059230331981  0.5437639058818626  1.0000
  C   C268      1.0  0.2961995284961799  0.2069289023208911  0.5755859334078386  1.0000
  H   H345      1.0  0.20922010260157406  0.2142388928450071  0.5719478749297566  1.0000
  H   H346      1.0  0.20268147834207137  0.20573190767436203  0.5132028692201883  1.0000
  H   H347      1.0  0.23210124567683696  0.256045595857022  0.5337038727577383  1.0000
  H   H348      1.0  0.3209171331122131  0.178964485597376  0.49365286511067763  1.0000
  H   H349      1.0  0.2689426410972555  0.18829739962425193  0.46704130235534325  1.0000
  H   H350      1.0  0.2988520487508494  0.23684076925348285  0.49087572674006075  1.0000
  H   H351      1.0  0.28827245146597597  0.11974363246747033  0.5431865408586273  1.0000
  H   H352      1.0  0.23611128790219835  0.12772468215159605  0.5164605486968196  1.0000
  H   H353      1.0  0.24110227548049706  0.13353706503260465  0.5759764616123572  1.0000
  H   H354      1.0  0.32728991599753254  0.18681115658302605  0.5766978575689479  1.0000
  H   H355      1.0  0.27995381757669696  0.20179165060849813  0.6084519998799534  1.0000
  H   H356      1.0  0.3052109963696286  0.2445682500925973  0.5722717145882628  1.0000
  N   N20       1.0  0.15237863364397475  0.82355068508214  0.8016443911915788  1.0000
  C   C269      1.0  0.12534618992396607  0.85272815458461  0.8313121911438638  1.0000
  C   C270      1.0  0.1967097358512646  0.8181829223860111  0.8212153372981914  1.0000
  C   C271      1.0  0.15607080552977615  0.8463007077286667  0.7574511942370221  1.0000
  C   C272      1.0  0.1315104710721413  0.7770101105303512  0.7966218049468419  1.0000
  H   H357      1.0  0.09176036150048517  0.8577396906597202  0.8174946889273725  1.0000
  H   H358      1.0  0.14026258220163856  0.8880299426923798  0.8360282470332587  1.0000
  H   H359      1.0  0.12153019953943356  0.8364240881921753  0.8648697472890845  1.0000
  H   H360      1.0  0.21841747678235768  0.7974150173555105  0.7991169297647965  1.0000
  H   H361      1.0  0.2130899537454145  0.8527854383267032  0.8259954879533076  1.0000
  H   H362      1.0  0.19543171839916007  0.800416959951556  0.854231807933238  1.0000
  H   H363      1.0  0.17147269028804324  0.8816521699909652  0.7599205442230643  1.0000
  H   H364      1.0  0.12340452276988834  0.850229470653588  0.7411675004149301  1.0000
  H   H365      1.0  0.17666645159048233  0.8253926232006505  0.7344174259121103  1.0000
  H   H366      1.0  0.15070170217042245  0.754306267336151  0.7738567439785148  1.0000
  H   H367      1.0  0.09791318149611716  0.779786608677657  0.7820735603520902  1.0000
  H   H368      1.0  0.12836471319735776  0.7586166633217459  0.8292017932003732  1.0000
  N   N21       1.0  0.27981339349136675  0.7839706422761124  0.6221996764761192  1.0000
  C   C273      1.0  0.3130029078401938  0.7961329334940699  0.5881500007978453  1.0000
  C   C274      1.0  0.2944484241403019  0.8018845950826002  0.6659339644974733  1.0000
  C   C275      1.0  0.27468997205218965  0.7325711472883961  0.6246996230563904  1.0000
  C   C276      1.0  0.2372773115651846  0.8053930613193865  0.6100808528280531  1.0000
  H   H369      1.0  0.30357168121466566  0.7822866067590852  0.5548466159921799  1.0000
  H   H370      1.0  0.3457306511060462  0.7813588599667924  0.5968482754498317  1.0000
  H   H371      1.0  0.3173874957594007  0.8347336650021822  0.5849358902834636  1.0000
  H   H372      1.0  0.2703418283057016  0.7935050354053179  0.692643702471105  1.0000
  H   H373      1.0  0.3266600216502854  0.7868659778430598  0.6760988609054847  1.0000
  H   H374      1.0  0.2984217366823236  0.8405450851614504  0.6651890866602628  1.0000
  H   H375      1.0  0.2506080842396474  0.7220339527577527  0.6507496184481147  1.0000
  H   H376      1.0  0.3064775104514576  0.7152486546224451  0.6326761249366878  1.0000
  H   H377      1.0  0.2628299473161007  0.7179174512504053  0.5924880369445981  1.0000
  H   H378      1.0  0.21142337733333805  0.7971444088508434  0.6351706531010549  1.0000
  H   H379      1.0  0.22522283846161184  0.7926614233593021  0.5772092387663196  1.0000
  H   H380      1.0  0.24008666058250747  0.8442290390241518  0.6076746417294271  1.0000
  N   N22       1.0  0.6685382687721656  0.8308543234366826  0.14475470833843235  1.0000
  C   C277      1.0  0.6416044643079449  0.8103583877479674  0.18086901867751998  1.0000
  C   C278      1.0  0.6637150368519201  0.8822146521378451  0.14465674489996816  1.0000
  C   C279      1.0  0.6536722478341049  0.8119130080533007  0.10143275048109301  1.0000
  C   C280      1.0  0.7152520796959236  0.8190388301580663  0.15192077929689965  1.0000
  H   H381      1.0  0.6521172926539939  0.8235661204729514  0.21408244868857984  1.0000
  H   H382      1.0  0.644060049059944  0.7715239231108305  0.18148056911571964  1.0000
  H   H383      1.0  0.6062521604236576  0.8191550972853945  0.1766084695617277  1.0000
  H   H384      1.0  0.6843925472174544  0.8986060053377809  0.11833816482234037  1.0000
  H   H385      1.0  0.6290959509352188  0.892618629510247  0.13838819000120983  1.0000
  H   H386      1.0  0.673825066221212  0.89773077980351  0.17707042165674058  1.0000
  H   H387      1.0  0.673715601851011  0.8262110604366296  0.07345491567379647  1.0000
  H   H388      1.0  0.6186823791724518  0.8205793760130458  0.09461704003218009  1.0000
  H   H389      1.0  0.6570034782843671  0.773168219283545  0.10035198700485928  1.0000
  H   H390      1.0  0.7200129867310038  0.780515612452936  0.15377750176864005  1.0000
  H   H391      1.0  0.7283095486474507  0.8344428795242453  0.1832807466690156  1.0000
  H   H392      1.0  0.7360419474051221  0.8322182549795653  0.12395598723827075  1.0000
  N   N23       1.0  0.19268607625555356  0.9407626893154869  0.13877072669776294  1.0000
  C   C281      1.0  0.14957554437070536  0.9612797926414274  0.14957497095632621  1.0000
  C   C282      1.0  0.20627819514543919  0.9088172174364474  0.1750156487466953  1.0000
  C   C283      1.0  0.22575576034944034  0.9785475091925752  0.13407414781422666  1.0000
  C   C284      1.0  0.18909497970054465  0.9143625161043011  0.09665287169617676  1.0000
  H   H393      1.0  0.15074995805930338  0.9807722893877433  0.18165102558187493  1.0000
  H   H394      1.0  0.12383154418930609  0.9336876007820043  0.15295335306430285  1.0000
  H   H395      1.0  0.13843197263202217  0.9860013938013219  0.1232402899575813  1.0000
  H   H396      1.0  0.18254586665280534  0.8793155347485989  0.1791661355629628  1.0000
  H   H397      1.0  0.23929728909753403  0.893680158681111  0.16880713620327317  1.0000
  H   H398      1.0  0.20818003089881668  0.9275335435530295  0.20733433251622213  1.0000
  H   H399      1.0  0.22864161413604892  0.9993158865086046  0.1652734207154011  1.0000
  H   H400      1.0  0.21712650224782676  0.0031103831676422278  0.10663753532645352  1.0000
  H   H401      1.0  0.25904742934853636  0.964341688622021  0.12724837506858802  1.0000
  H   H402      1.0  0.2210446445158051  0.8983556839268765  0.08750879199694639  1.0000
  H   H403      1.0  0.17860988021013732  0.9372888667457985  0.06853871336103111  1.0000
  H   H404      1.0  0.16434040779990905  0.885562021162108  0.09939805688517389  1.0000
  N   N24       1.0  0.24519752845592827  0.7049635947184612  0.39124059565376845  1.0000
  C   C285      1.0  0.20485173575642837  0.7059021293781943  0.41845155775548737  1.0000
  C   C286      1.0  0.2782392887995463  0.7369035532845597  0.410993420261472  1.0000
  C   C287      1.0  0.23486027098248546  0.7199562338034919  0.3452016068386229  1.0000
  C   C288      1.0  0.26288209862424966  0.6569873831331179  0.3905095272564509  1.0000
  H   H405      1.0  0.17926541691869774  0.6816546875180916  0.4051041859755776  1.0000
  H   H406      1.0  0.19038618742623267  0.7415158041033477  0.4192937422202786  1.0000
  H   H407      1.0  0.21176308401485908  0.6951830846244693  0.4534704636927732  1.0000
  H   H408      1.0  0.3096882526588125  0.7357352604926993  0.39241932012333625  1.0000
  H   H409      1.0  0.266768322048451  0.7737623775105616  0.41039315654858505  1.0000
  H   H410      1.0  0.2857177188205809  0.7272556621581491  0.4461829017768038  1.0000
  H   H411      1.0  0.20970770863615576  0.6966415721928627  0.3296452438374914  1.0000
  H   H412      1.0  0.26459962958210737  0.7194048577700117  0.3237119810753737  1.0000
  H   H413      1.0  0.22214682145834913  0.7563675388491234  0.34423671334759054  1.0000
  H   H414      1.0  0.29286524833594785  0.6549069018392198  0.36950937321647587  1.0000
  H   H415      1.0  0.23828080348736863  0.631663933004269  0.3770446140694342  1.0000
  H   H416      1.0  0.2721398991394556  0.6451744459102596  0.4246002343072768  1.0000
  N   N25       1.0  0.4748500012527826  0.6266768328598745  0.13943972598646112  1.0000
  C   C289      1.0  0.4938134666894362  0.6569238255780538  0.10425258614483368  1.0000
  C   C290      1.0  0.5060930774302037  0.623632412600111  0.17715940606536448  1.0000
  C   C291      1.0  0.4665853163936262  0.5794112135605991  0.12133302113196247  1.0000
  C   C292      1.0  0.4330244823138521  0.646752638887616  0.15505911279025428  1.0000
  H   H417      1.0  0.4713342151585416  0.6599162633544936  0.07510220274015687  1.0000
  H   H418      1.0  0.5256834618483797  0.64289247489963  0.09210516275821068  1.0000
  H   H419      1.0  0.500324869896949  0.6929300804135078  0.11681316451640898  1.0000
  H   H420      1.0  0.4925759940125018  0.601849262995642  0.20477329200923267  1.0000
  H   H421      1.0  0.5378426065863511  0.6079891808029361  0.1666284529831559  1.0000
  H   H422      1.0  0.5136170062102674  0.6589126014451114  0.19098838445727345  1.0000
  H   H423      1.0  0.4535145871815607  0.5552697001340351  0.1473917507874289  1.0000
  H   H424      1.0  0.4973096116402641  0.5639283584213811  0.10795546076914954  1.0000
  H   H425      1.0  0.44227821438796494  0.5803023851855749  0.09356028240260603  1.0000
  H   H426      1.0  0.4181194960586883  0.6250594538373624  0.18199602151187147  1.0000
  H   H427      1.0  0.4084737726331176  0.6493971285545216  0.12762916686910158  1.0000
  H   H428      1.0  0.438048975666897  0.6825392234607647  0.16865105161963767  1.0000
  N   N26       1.0  0.688404084903011  0.2580988493159826  0.5598647907080286  1.0000
  C   C293      1.0  0.6753623037961529  0.25730661900537843  0.51237950293876  1.0000
  C   C294      1.0  0.6656732763727236  0.296788727546322  0.5824669344440092  1.0000
  C   C295      1.0  0.7364056926431802  0.2653109194405892  0.5634485613299184  1.0000
  C   C296      1.0  0.6760608690833599  0.21321597509581225  0.5811835527025383  1.0000
  H   H429      1.0  0.692225051094372  0.2289531595425144  0.493989712504199  1.0000
  H   H430      1.0  0.68336265016456  0.2910576904596087  0.49548420853227404  1.0000
  H   H431      1.0  0.6393390181918586  0.2515358415106267  0.5084778871391283  1.0000
  H   H432      1.0  0.6736047903477272  0.2977615366193141  0.6187244834663392  1.0000
  H   H433      1.0  0.6750968839472905  0.3314224936088149  0.5681941043155221  1.0000
  H   H434      1.0  0.6294650572684648  0.29310696203549663  0.5793625930894079  1.0000
  H   H435      1.0  0.7464883887194839  0.2993908197653246  0.548408271680302  1.0000
  H   H436      1.0  0.7548583064289657  0.23729602764770005  0.5462129489055053  1.0000
  H   H437      1.0  0.7473446002292552  0.26587026980771467  0.5989030856976217  1.0000
  H   H438      1.0  0.6398860954288371  0.20701285530571106  0.5794336533230019  1.0000
  H   H439      1.0  0.685408625856599  0.2127225837544995  0.617076838972991  1.0000
  H   H440      1.0  0.6924112420622579  0.1830874398974431  0.5649707898285071  1.0000
  N   N27       1.0  0.40706822543063986  0.19436803741933129  0.3628940162367299  1.0000
  C   C297      1.0  0.3842791529632629  0.162901503089526  0.39458694732203364  1.0000
  C   C298      1.0  0.3742264342051073  0.22016302172905378  0.33610127647150473  1.0000
  C   C299      1.0  0.43492438250867865  0.16635440065361085  0.33302209042410863  1.0000
  C   C300      1.0  0.4348324377256575  0.227913936543096  0.38788325011063024  1.0000
  H   H441      1.0  0.4079625472590725  0.14385957372005964  0.41633519336269054  1.0000
  H   H442      1.0  0.3638547079813928  0.13636183670405022  0.3768888498680937  1.0000
  H   H443      1.0  0.36214929217751657  0.1825943084602768  0.4170859580553822  1.0000
  H   H444      1.0  0.3527762199100326  0.19590015775887393  0.3166770666903621  1.0000
  H   H445      1.0  0.35232919048500244  0.24132448985592614  0.35760942381754035  1.0000
  H   H446      1.0  0.3902423971365274  0.24440397900557143  0.31188323003406504  1.0000
  H   H447      1.0  0.41492944866085285  0.14111789592336366  0.31320594233351995  1.0000
  H   H448      1.0  0.45973433321678336  0.1459631483235888  0.3521368456443693  1.0000
  H   H449      1.0  0.4532532942024386  0.18899805698256533  0.30914144623897877  1.0000
  H   H450      1.0  0.41473393635314815  0.25005818487536535  0.41032026213549977  1.0000
  H   H451      1.0  0.45361823625232967  0.2513427575407605  0.36506351217002986  1.0000
  H   H452      1.0  0.4590444319832445  0.20947808812605095  0.4095340547991367  1.0000
  N   N28       1.0  0.5188832774370951  0.4098084111384699  0.3640330010428854  1.0000
  C   C301      1.0  0.5001271021059739  0.3622334231958119  0.3594342514039826  1.0000
  C   C302      1.0  0.5171848507250384  0.4241377600064456  0.4112999614624673  1.0000
  C   C303      1.0  0.4932498503957545  0.4428290296047246  0.33641343628728004  1.0000
  C   C304      1.0  0.5650686313547625  0.40992975009534144  0.34891399815838053  1.0000
  H   H453      1.0  0.46524313024159775  0.36091509606855116  0.3703814800963904  1.0000
  H   H454      1.0  0.5187550448630673  0.3364349197683175  0.3797761842669133  1.0000
  H   H455      1.0  0.5008840315219001  0.35029072501413333  0.3241965403933263  1.0000
  H   H456      1.0  0.536797292052272  0.40015673619344605  0.4328452128777989  1.0000
  H   H457      1.0  0.5308162492357699  0.45996735140323175  0.4160531539329333  1.0000
  H   H458      1.0  0.48289484310570746  0.4238351007365397  0.4242065111163069  1.0000
  H   H459      1.0  0.49508456103772613  0.4336880358334032  0.300405371998204  1.0000
  H   H460      1.0  0.5055661563841158  0.4793550495171349  0.3399663335467526  1.0000
  H   H461      1.0  0.4578421674777959  0.4423112319901369  0.3456255920926374  1.0000
  H   H462      1.0  0.5678425113626646  0.39746007023262336  0.31392890808120033  1.0000
  H   H463      1.0  0.5856776159389938  0.3866534769329643  0.3700543029455928  1.0000
  H   H464      1.0  0.5798961342865201  0.4455601878985575  0.3505611300547042  1.0000
  N   N29       1.0  0.48327070750744777  0.9723738698161721  0.69102934775241  1.0000
  C   C305      1.0  0.4406630136441806  0.9583727973620106  0.6711767466157411  1.0000
  C   C306      1.0  0.5193373728137122  0.9565966679638245  0.6619964962868656  1.0000
  C   C307      1.0  0.48781049526861175  0.950797238821573  0.7356513859922397  1.0000
  C   C308      1.0  0.48528551777451107  0.023866989025750573  0.6952351955557533  1.0000
  H   H465      1.0  0.43580018015293714  0.9750219069736099  0.6379151996177167  1.0000
  H   H466      1.0  0.41268955850761646  0.9693311252700919  0.6924687207505539  1.0000
  H   H467      1.0  0.4382453836735513  0.9198157712213684  0.6666395217064653  1.0000
  H   H468      1.0  0.5520601152132718  0.9645673944453198  0.6769326265245239  1.0000
  H   H469      1.0  0.5176405935389777  0.918383347990513  0.6558300028710029  1.0000
  H   H470      1.0  0.5182152841614553  0.9744453942996665  0.6289367869523838  1.0000
  H   H471      1.0  0.4608851025182525  0.9619418954290169  0.7582179664577748  1.0000
  H   H472      1.0  0.5195349809158987  0.9608526203432722  0.7516667500947536  1.0000
  H   H473      1.0  0.48655981258603853  0.9119872147939617  0.7338438277085931  1.0000
  H   H474      1.0  0.517139320912986  0.03575201460347266  0.709762527202105  1.0000
  H   H475      1.0  0.4583839632313456  0.03724568619520685  0.7166276897739946  1.0000
  H   H476      1.0  0.481973524350349  0.041440812000919536  0.6621726233245704  1.0000
  N   N30       1.0  0.9075448721762417  0.04751440000449403  0.5289607766704614  1.0000
  C   C309      1.0  0.8668876224309603  0.0595083213386971  0.5530851676100138  1.0000
  C   C310      1.0  0.9301875399955136  0.00902615330246248  0.5524515418690891  1.0000
  C   C311      1.0  0.936878949721267  0.08889459093009733  0.5270412053122572  1.0000
  C   C312      1.0  0.8961792319959816  0.032572397164871036  0.4832346542337086  1.0000
  H   H477      1.0  0.8432149704313366  0.029617213241885043  0.5538092046961149  1.0000
  H   H478      1.0  0.8498741455494632  0.08971546115528795  0.537283201171269  1.0000
  H   H479      1.0  0.8739754385102055  0.06935454371455396  0.5882565477868913  1.0000
  H   H480      1.0  0.9608279726793941  0.9986896184220067  0.5350453175283989  1.0000
  H   H481      1.0  0.9394474269228639  0.01915399916306093  0.5870330463473777  1.0000
  H   H482      1.0  0.9088271985085113  0.9773761826913118  0.5547680161778457  1.0000
  H   H483      1.0  0.9686505962941889  0.08075994427778  0.5106524626453595  1.0000
  H   H484      1.0  0.9442867324974905  0.10248294076218056  0.5610021705713278  1.0000
  H   H485      1.0  0.9214994068377966  0.11805886176146196  0.5080016549140955  1.0000
  H   H486      1.0  0.9260809297510844  0.023532830987978537  0.4638982897240352  1.0000
  H   H487      1.0  0.8786872690704338  0.06073048244145696  0.4647215813670528  1.0000
  H   H488      1.0  0.8742573395109636  0.0011843931748090068  0.4836056436812019  1.0000
  N   N31       1.0  0.8454939804660784  0.7954102294939474  0.9492930074246432  1.0000
  C   C313      1.0  0.8746565248394312  0.8157031588311848  0.9837022075448562  1.0000
  C   C314      1.0  0.8589357480697455  0.7467584800532672  0.9404003526153686  1.0000
  C   C315      1.0  0.8490946853710547  0.8233856896268033  0.9079317475686893  1.0000
  C   C316      1.0  0.7995433576600405  0.7958168301399103  0.9651780500079264  1.0000
  H   H489      1.0  0.8659898894798016  0.8526271304792994  0.9909996089226999  1.0000
  H   H490      1.0  0.9096387175151857  0.8152997493426456  0.9730058164255492  1.0000
  H   H491      1.0  0.8725232607624759  0.7957651910444505  0.015549788193564229  1.0000
  H   H492      1.0  0.8371467259434894  0.7298881271690433  0.9152481061662895  1.0000
  H   H493      1.0  0.8931529660883671  0.7454135650630302  0.9273511880587904  1.0000
  H   H494      1.0  0.8577272162621241  0.7250356359793362  0.9712722844810309  1.0000
  H   H495      1.0  0.8284627607558074  0.8084135768043669  0.8807627622056221  1.0000
  H   H496      1.0  0.8836078540472044  0.8245630195973159  0.8956559075312647  1.0000
  H   H497      1.0  0.8385771249025228  0.8601236489655334  0.9133294634993284  1.0000
  H   H498      1.0  0.7765605775375483  0.7805048157137804  0.9402173906520287  1.0000
  H   H499      1.0  0.7882629042239385  0.831987920310785  0.9724523139047933  1.0000
  H   H500      1.0  0.7957457027890291  0.7751742053010268  0.9964557334251154  1.0000
  N   N32       1.0  0.5847826189163546  0.7864961752571027  0.8353324721966806  1.0000
  C   C317      1.0  0.5843443962299013  0.801610919343353  0.7881786756946241  1.0000
  C   C318      1.0  0.5618557973628937  0.7409652173478791  0.8397234943852301  1.0000
  C   C319      1.0  0.5621530517936237  0.8217225845482282  0.8627458193260599  1.0000
  C   C320      1.0  0.6307350043440348  0.7816829082535006  0.8506824582594518  1.0000
  H   H501      1.0  0.6020626093618896  0.8355215953461799  0.7835692587550618  1.0000
  H   H502      1.0  0.5501070021770236  0.8063104264872654  0.7759638911784212  1.0000
  H   H503      1.0  0.600447590927493  0.7754920143956257  0.7662724394055804  1.0000
  H   H504      1.0  0.5618413429830431  0.7284194555372336  0.8748916321043871  1.0000
  H   H505      1.0  0.5270268972317428  0.7431603841891802  0.8286331405081435  1.0000
  H   H506      1.0  0.5778817586996572  0.7135062535728645  0.8194297292395066  1.0000
  H   H507      1.0  0.5627092424507791  0.8120862693588023  0.8986998669880603  1.0000
  H   H508      1.0  0.5270647614614271  0.825379638485171  0.8526673397771332  1.0000
  H   H509      1.0  0.5777598143543193  0.8567886489579387  0.8593078954770387  1.0000
  H   H510      1.0  0.6322851737479502  0.7707727620539067  0.8863259809453444  1.0000
  H   H511      1.0  0.6492751013343775  0.8151694647173459  0.8470862426622244  1.0000
  H   H512      1.0  0.6483095544373327  0.7545403579038434  0.8312556578425091  1.0000
