data_image0
_chemical_formula_structural       FeS2FeS2FeSFeS3HFeS2FeSFeSFeS3HSCHFeSFeSHCHC6H2CHCHCNH7C6H6C2NHC3H3SHC2H4CSNCH2SCHCH3CFeCHCHCHCHC4H3C3H7NHC2H2CH4CH2CH3CNCH2C2H3CH2CH6CSCH2CHC3HFeS2FeS2FeSFeS3HFeS2FeSFeSFeS3HSCH2SH2C2HC4H3CH2CH2CSCH3CHC6H4CHSCH2CHCFeHC2HCHCNC4H12NH2C2HCNHC2H2CFeH4SHC2HCNSCH2NH2CHCH3CSCH2CHCH2NC2H5CHC2H3C2H4CH3CH7CHCFeSH4C6H4CHSH2NHCHC2SH2SH3FeSH2NC7H9CH2CHCH2CH2CSNCHS2CHCH4CHFeH3SC8H9CHSHC6H4CH2FeSCFeS2FeSFeS3HSFeSCFeSFeSH2FeS2Fe2NHCHS2HCH2C3HCHCH2CNHC6H4C2HC4H3CH3SNH2CH2CHCHNH5CHCH2CSFeH2CH2NSHSHCSH5CNH3CFeH7C2H4CHSH3CHCHFeSCFeS2FeSFeS3CSFeS2FeSFeS2HFeS2FeSH2FeHS2HC2H3NH3C3H3C6H4CHC2H2CH2C7H7CNC3H8NH2CHCHSFeC2H3NHFeH6CSHC2H3SCH2CHCH2CHCH3CH6C2HC4H4SH2CSH4C2SC4H2CH2FeS2FeSFeNFeCS2FeS2FeSFeSFeS3FeS2FeSFeSFeS3CH2C3H4C6H4C3HC6H4C2H2C2H7NHC2H3CH3CH5CH2C2HNH2CHC2HC2HS2CNC4H11CHCH3C2H13C2NHCH2CH2CNC2H4FeS2FeSFeHFeHS2FeS2FeSFeSFeS3FeS2HSFeSFeS2NC5H5C6H4C2HC7H5C2SH6CHNHNFeC2H7CH2C2H4CH3NHCH4NHCH2CH3NHCH2SCH3C4HCH3CH5C2HCH5CH3C3H7SCH3C2FeSFeS2FeSFeS3FeSFeSHCSHFeS2FeS2FeSFeHS3CHCHCH4SHCHC2H2C6H4C2HCHCH4C6H5C2HSNC4H10N2C4H4SH2C2H4CHCHCH2CH2FeNH3CH3C3HCH2CHC2HCH10CHCHFeSFeS2FeSFeS3H2FeSH2SHFeS2FeS2FeHFeCS2CHCHCH2NCH5C2H2C6H4CH2C2SNHC8H6CH4C2HCH4SCHCH3FeC3H2C2SHSCH2CH2C2HCHCHCH2NH2C2H3SH3CH3CNC2HCH6SNH4SFeC2H3C2H2SC6H4C2NCH5FeH4SH2CSH4CHSH2S2C6H4FeCH4CH4NHS2C3H2CH2CHCHC3H3CSCHCH2C6H2S2CHNC3H15SHFeSHFeSFeS2FeS2FeSFeSFeS3FeS2FeS2Fe2S3HC5H2NH5C6H4C6H7SH4CH2CHC2H6C2NCNCHC2H6CHCNH3CNH2CH5CHCHCHCH2FeHCH2C2SH11CH4CH5C2H3NHC2H5SHSH2SCFeSFeS2FeS2FeSFeSFeS3FeS2FeS2HFeHS2FeCH2C2HCH6C6H4C6H4C2H4CNH2C3HNC4H4NH2CFeH3CH2NC4H11C2HSCH7CSCFeH2SCHCFeSFeS2FeSFeS3H2S2H2FeSFeS2FeS2FeSFeS3HCHCH3C2H5C3HC2SNHC6H4C6H2CHC5NHCH2CHCHNC3H9C2H3C3NH2CHCH4CHCNH2CHCH2CHCHCFeHCH2CH3SHCH4FeH2CH7FeSFeS2FeSFeS3HS2CFeSFeSFeS2FeS2FeSFeS3HCH4C3NH2CHC3H4C8H4C6H7CH2CH2CH2NHCHC2H3CH2C2H3C2H4CH7CHCHSHNCHCH2CNC3H5NCH2CH3CH7C4H2C2H2CH3CH2CHCFeHSCH2C6H5CH3NFeHC3HSH5NSH2CH4CHSH2C3SHS2H2C6H5C2H2CH2CHCH2SH2FeH2CNC2HSH2NH4FeS2FeS2FeSFeS3NFeSFeS2FeSFeS4HSHFeSFeSHC3H4CHC6HCH6C6H4C2HCH4C2NHC2H3C2HC3HCHNC4H18CH5CH2C6H4CH2CHNH3CHCSCH2NH6SHFeCH2C2H3CFeS2FeS2FeSFeHS2HFeSFeS2FeSFeS3HCSHCNFeSC4H2C2H2C6NH4CH2C6H4CH2C2HCH2CH2C2H2NCH2CH4CH2SH7CH3SCH2CHNH2CH2SC2HCHCFeH5CH2CH3SHC2H6CHCSCH5C6SHC2HSH2SH2FeHSFeSCHSHC6H4CSH2NH2SCNHC5H10CHCH3CH4FeH3C6H2SCH2SH6C5HC2H4C2H2CNH4SH5SH3CHFeSFeS2FeSFeS3HSFeSHFeSFeSHSFeS2FeSFeHFeCS2CNCHC2H2NH3C6H4CH2CHCH4C6H4CH3CSHCH7CSCFeSH5CH2CH3CHCSCNH2CHCHCH3C2H3C5HCHCH4NHCH2NHNHCH3C3H3CH5C2H3CHC2H3NH2C3HCHCFeSFeS2FeSFeS3HSFeSHFeSFeSH2FeS2FeSFeHFeHS2C2H3SH2CH3C6H4CSH2SH5C6H10SNHC3H2NHCHCH4SHCHNH2C2HCNCHC6H3CHCH3CNHCFeSH2CHCH2C2HCH2CH4CH4C3H
_chemical_formula_sum              "Fe192 S384 H1536 C960 N96"
_cell_length_a       56.9865
_cell_length_b       85.0874
_cell_length_c       47.0811
_cell_angle_alpha    89.8837
_cell_angle_beta     89.7955
_cell_angle_gamma    87.9769

_space_group_name_H-M_alt    "P 1"
_space_group_IT_number       1

loop_
  _space_group_symop_operation_xyz
  'x, y, z'

loop_
  _atom_site_type_symbol
  _atom_site_label
  _atom_site_symmetry_multiplicity
  _atom_site_fract_x
  _atom_site_fract_y
  _atom_site_fract_z
  _atom_site_occupancy
  Fe  Fe1       1.0  0.13067  0.04165  0.42063  1.0000
  S   S1        1.0  0.12188  0.06762  0.42623  1.0000
  S   S2        1.0  0.14303  0.02142  0.44968  1.0000
  Fe  Fe2       1.0  0.11632  0.04167  0.35722  1.0000
  S   S3        1.0  0.10609  0.06741  0.35803  1.0000
  S   S4        1.0  0.10622  0.02373  0.32351  1.0000
  Fe  Fe3       1.0  0.13901  0.07077  0.38337  1.0000
  S   S5        1.0  0.16283  0.09013  0.36793  1.0000
  Fe  Fe4       1.0  0.08962  0.06282  0.40043  1.0000
  S   S6        1.0  0.05361  0.07398  0.40840  1.0000
  S   S7        1.0  0.15053  0.04509  0.37954  1.0000
  S   S8        1.0  0.09713  0.03696  0.39799  1.0000
  H   H1        1.0  0.04963  0.04011  0.41112  1.0000
  Fe  Fe5       1.0  0.19458  0.17950  0.40702  1.0000
  S   S9        1.0  0.16801  0.19919  0.41456  1.0000
  S   S10       1.0  0.18140  0.15655  0.42546  1.0000
  Fe  Fe6       1.0  0.23029  0.20267  0.38330  1.0000
  S   S11       1.0  0.20574  0.22365  0.38892  1.0000
  Fe  Fe7       1.0  0.19775  0.21282  0.43128  1.0000
  S   S12       1.0  0.19886  0.22672  0.47209  1.0000
  Fe  Fe8       1.0  0.17834  0.20799  0.37153  1.0000
  S   S13       1.0  0.14792  0.21525  0.34305  1.0000
  S   S14       1.0  0.22403  0.19270  0.42684  1.0000
  S   S15       1.0  0.20321  0.18751  0.36267  1.0000
  H   H2        1.0  0.20816  0.19519  0.49312  1.0000
  S   S16       1.0  0.11985  0.22054  0.14994  1.0000
  C   C1        1.0  0.02198  0.04501  0.29976  1.0000
  H   H3        1.0  0.01546  0.02320  0.40654  1.0000
  Fe  Fe9       1.0  0.13805  0.23208  0.11366  1.0000
  S   S17       1.0  0.15385  0.21557  0.08059  1.0000
  Fe  Fe10      1.0  0.14155  0.23512  0.17848  1.0000
  S   S18       1.0  0.16702  0.22584  0.21189  1.0000
  H   H4        1.0  0.15819  0.01601  0.34543  1.0000
  C   C2        1.0  0.00805  0.22991  0.14283  1.0000
  H   H5        1.0  0.04587  0.19704  0.07828  1.0000
  C   C3        1.0  0.15344  0.21879  0.30682  1.0000
  C   C4        1.0  0.17592  0.21635  0.29538  1.0000
  C   C5        1.0  0.17971  0.21860  0.26620  1.0000
  C   C6        1.0  0.16113  0.22339  0.24831  1.0000
  C   C7        1.0  0.13869  0.22606  0.25977  1.0000
  C   C8        1.0  0.13485  0.22368  0.28900  1.0000
  H   H6        1.0  0.19035  0.21259  0.30896  1.0000
  H   H7        1.0  0.19711  0.21651  0.25741  1.0000
  C   C9        1.0  0.16158  0.17191  0.31425  1.0000
  H   H8        1.0  0.11742  0.22560  0.29780  1.0000
  C   C10       1.0  0.14873  0.21720  0.04392  1.0000
  H   H9        1.0  0.18602  0.00928  0.14784  1.0000
  C   C11       1.0  0.15401  0.21962  0.48927  1.0000
  N   N1        1.0  0.04246  0.04875  0.31735  1.0000
  H   H10       1.0  0.13565  0.14655  0.30528  1.0000
  H   H11       1.0  0.21007  0.02307  0.11183  1.0000
  H   H12       1.0  0.18862  0.03905  0.11089  1.0000
  H   H13       1.0  0.15198  0.21415  0.46879  1.0000
  H   H14       1.0  0.01184  0.21740  0.14466  1.0000
  H   H15       1.0  0.03052  0.21408  0.06371  1.0000
  H   H16       1.0  0.16459  0.02529  0.14705  1.0000
  C   C12       1.0  0.16707  0.10875  0.38387  1.0000
  C   C13       1.0  0.18104  0.11967  0.36977  1.0000
  C   C14       1.0  0.18528  0.13446  0.38188  1.0000
  C   C15       1.0  0.17574  0.13844  0.40843  1.0000
  C   C16       1.0  0.16170  0.12756  0.42247  1.0000
  C   C17       1.0  0.15724  0.11285  0.41022  1.0000
  H   H17       1.0  0.18891  0.11655  0.34951  1.0000
  H   H18       1.0  0.19647  0.14257  0.37103  1.0000
  H   H19       1.0  0.15428  0.13047  0.44306  1.0000
  H   H20       1.0  0.14652  0.10457  0.42135  1.0000
  H   H21       1.0  0.09029  0.21481  0.03106  1.0000
  H   H22       1.0  0.05938  0.21460  0.02352  1.0000
  C   C18       1.0  0.17488  0.22697  0.49582  1.0000
  C   C19       1.0  0.13857  0.01984  0.48709  1.0000
  N   N2        1.0  0.17453  0.01614  0.10585  1.0000
  H   H23       1.0  0.10428  0.01772  0.06108  1.0000
  C   C20       1.0  0.11680  0.01894  0.28883  1.0000
  C   C21       1.0  0.13766  0.02471  0.27780  1.0000
  C   C22       1.0  0.14566  0.01995  0.25058  1.0000
  H   H24       1.0  0.13102  0.01327  0.38594  1.0000
  H   H25       1.0  0.19728  0.15257  0.48702  1.0000
  H   H26       1.0  0.14774  0.03272  0.29026  1.0000
  S   S19       1.0  0.14382  0.00356  0.19997  1.0000
  H   H27       1.0  0.16932  0.19608  0.03472  1.0000
  C   C23       1.0  0.02931  0.06178  0.40777  1.0000
  C   C24       1.0  0.03235  0.04543  0.40848  1.0000
  H   H28       1.0  0.05213  0.06635  0.34749  1.0000
  H   H29       1.0  0.15536  0.02392  0.06877  1.0000
  H   H30       1.0  0.02539  0.03403  0.28735  1.0000
  H   H31       1.0  0.10038  0.03949  0.02597  1.0000
  C   C25       1.0  0.15883  0.20573  0.02585  1.0000
  S   S20       1.0  0.05581  0.23253  0.14910  1.0000
  N   N3        1.0  0.18962  0.17495  0.50691  1.0000
  C   C26       1.0  0.02662  0.24039  0.14408  1.0000
  H   H32       1.0  0.12755  0.23861  0.04621  1.0000
  H   H33       1.0  0.11948  0.21381  0.50406  1.0000
  S   S21       1.0  0.16188  0.24511  0.14218  1.0000
  C   C27       1.0  0.19346  0.02735  0.10160  1.0000
  H   H34       1.0  0.16191  0.02436  0.24234  1.0000
  C   C28       1.0  0.04530  0.21012  0.07769  1.0000
  H   H35       1.0  0.15614  0.18660  0.49897  1.0000
  H   H36       1.0  0.08295  0.21436  0.10948  1.0000
  H   H37       1.0  0.13828  0.01410  0.09484  1.0000
  C   C29       1.0  0.17017  0.01405  0.13657  1.0000
  Fe  Fe11      1.0  0.09375  0.24119  0.14810  1.0000
  C   C30       1.0  0.11146  0.01621  0.03993  1.0000
  H   H38       1.0  0.06777  0.04008  0.28655  1.0000
  C   C31       1.0  0.13256  0.03290  0.50398  1.0000
  H   H39       1.0  0.06227  0.03839  0.35172  1.0000
  C   C32       1.0  0.08681  0.21078  0.08721  1.0000
  H   H40       1.0  0.21707  0.22912  0.02472  1.0000
  C   C33       1.0  0.01293  0.03587  0.40606  1.0000
  H   H41       1.0  0.18387  0.00174  0.06967  1.0000
  C   C34       1.0  0.13562  0.21947  0.50926  1.0000
  C   C35       1.0  0.15284  0.02233  0.09207  1.0000
  C   C36       1.0  0.03720  0.06333  0.33353  1.0000
  C   C37       1.0  0.07315  0.21054  0.03882  1.0000
  H   H42       1.0  0.12993  0.04434  0.49418  1.0000
  H   H43       1.0  0.03203  0.03328  0.35093  1.0000
  H   H44       1.0  0.07889  0.05369  0.31150  1.0000
  C   C38       1.0  0.14211  0.00510  0.50034  1.0000
  C   C39       1.0  0.20597  0.16371  0.49235  1.0000
  C   C40       1.0  0.13868  0.14974  0.32784  1.0000
  H   H45       1.0  0.17813  0.16563  0.32095  1.0000
  H   H46       1.0  0.15912  0.16964  0.29120  1.0000
  H   H47       1.0  0.15470  0.14301  0.33506  1.0000
  H   H48       1.0  0.17323  0.01474  0.39526  1.0000
  H   H49       1.0  0.12371  0.14547  0.34065  1.0000
  H   H50       1.0  0.16171  0.16474  0.36941  1.0000
  H   H51       1.0  0.14640  0.18335  0.36492  1.0000
  N   N4        1.0  0.14128  0.16686  0.33121  1.0000
  H   H52       1.0  0.13064  0.16635  0.37517  1.0000
  C   C41       1.0  0.14516  0.17047  0.36149  1.0000
  C   C42       1.0  0.11977  0.17539  0.32133  1.0000
  H   H53       1.0  0.10413  0.17202  0.33385  1.0000
  H   H54       1.0  0.11628  0.17299  0.29854  1.0000
  C   C43       1.0  0.13283  0.00953  0.23394  1.0000
  H   H55       1.0  0.16422  0.18474  0.31668  1.0000
  H   H56       1.0  0.12429  0.22975  0.24611  1.0000
  H   H57       1.0  0.12135  0.18837  0.32353  1.0000
  H   H58       1.0  0.16015  0.16764  0.48232  1.0000
  C   C44       1.0  0.04751  0.03567  0.33735  1.0000
  H   H59       1.0  0.15596  0.00567  0.14043  1.0000
  H   H60       1.0  0.22163  0.16071  0.50557  1.0000
  C   C45       1.0  0.10916  0.02852  0.01989  1.0000
  H   H61       1.0  0.07434  0.19745  0.03811  1.0000
  H   H62       1.0  0.19715  0.02914  0.07858  1.0000
  H   H63       1.0  0.05266  0.02461  0.32598  1.0000
  C   C46       1.0  0.13513  0.22963  0.03241  1.0000
  N   N5        1.0  0.06787  0.21627  0.06785  1.0000
  C   C47       1.0  0.06631  0.23366  0.06778  1.0000
  H   H64       1.0  0.21233  0.16862  0.47189  1.0000
  H   H65       1.0  0.08921  0.19775  0.08707  1.0000
  C   C48       1.0  0.06311  0.05094  0.29884  1.0000
  C   C49       1.0  0.10401  0.00853  0.27222  1.0000
  H   H66       1.0  0.08299  0.23872  0.06029  1.0000
  H   H67       1.0  0.14685  0.03385  0.10117  1.0000
  H   H68       1.0  0.17814  0.00004  0.33608  1.0000
  C   C50       1.0  0.12384  0.00226  0.03285  1.0000
  H   H69       1.0  0.17476  0.18423  0.46839  1.0000
  H   H70       1.0  0.06270  0.23837  0.08949  1.0000
  C   C51       1.0  0.16922  0.17851  0.48842  1.0000
  H   H71       1.0  0.06003  0.06072  0.28345  1.0000
  H   H72       1.0  0.10393  0.21575  0.08125  1.0000
  H   H73       1.0  0.04093  0.21430  0.09957  1.0000
  H   H74       1.0  0.05193  0.23824  0.05379  1.0000
  H   H75       1.0  0.02158  0.06211  0.34754  1.0000
  H   H76       1.0  0.01763  0.05464  0.28444  1.0000
  C   C52       1.0  0.16034  0.00296  0.34476  1.0000
  S   S22       1.0  0.10251  0.00203  0.13422  1.0000
  C   C53       1.0  0.11185  0.00394  0.24492  1.0000
  H   H77       1.0  0.03362  0.07355  0.31925  1.0000
  H   H78       1.0  0.08793  0.00390  0.28053  1.0000
  C   C54       1.0  0.20177  0.18962  0.51300  1.0000
  H   H79       1.0  0.14721  0.99882  0.32922  1.0000
  C   C55       1.0  0.13318  0.00034  0.38378  1.0000
  C   C56       1.0  0.18156  0.00080  0.09311  1.0000
  C   C57       1.0  0.17465  0.00171  0.39307  1.0000
  H   H80       1.0  0.19283  0.99857  0.38594  1.0000
  Fe  Fe12      1.0  0.11619  0.04677  0.92056  1.0000
  S   S23       1.0  0.08785  0.06509  0.91015  1.0000
  S   S24       1.0  0.11698  0.04340  0.96902  1.0000
  Fe  Fe13      1.0  0.12900  0.04293  0.85670  1.0000
  S   S25       1.0  0.10130  0.06064  0.84350  1.0000
  S   S26       1.0  0.15173  0.03319  0.82015  1.0000
  Fe  Fe14      1.0  0.11385  0.07531  0.87982  1.0000
  S   S27       1.0  0.11585  0.10161  0.87020  1.0000
  Fe  Fe15      1.0  0.07842  0.04879  0.87511  1.0000
  S   S28       1.0  0.04289  0.04002  0.86315  1.0000
  S   S29       1.0  0.14293  0.05813  0.89208  1.0000
  S   S30       1.0  0.10534  0.02992  0.88642  1.0000
  H   H81       1.0  0.03392  0.06398  0.90656  1.0000
  Fe  Fe16      1.0  0.18746  0.17928  0.89005  1.0000
  S   S31       1.0  0.15139  0.19037  0.88621  1.0000
  S   S32       1.0  0.19305  0.15267  0.89451  1.0000
  Fe  Fe17      1.0  0.21192  0.21083  0.89102  1.0000
  S   S33       1.0  0.17725  0.22387  0.88655  1.0000
  Fe  Fe18      1.0  0.16309  0.20751  0.91881  1.0000
  S   S34       1.0  0.13739  0.22046  0.94801  1.0000
  Fe  Fe19      1.0  0.16765  0.20624  0.85407  1.0000
  S   S35       1.0  0.14231  0.21618  0.82117  1.0000
  S   S36       1.0  0.19818  0.19534  0.92585  1.0000
  S   S37       1.0  0.20350  0.19413  0.85529  1.0000
  H   H82       1.0  0.07586  0.21093  0.59066  1.0000
  S   S38       1.0  0.10662  0.22610  0.64118  1.0000
  C   C58       1.0  0.23675  0.23282  0.97298  1.0000
  H   H83       1.0  0.14917  0.05514  0.65223  1.0000
  H   H84       1.0  0.01573  0.02907  0.93690  1.0000
  S   S39       1.0  0.11467  0.22619  0.56054  1.0000
  H   H85       1.0  0.19640  0.16508  0.54826  1.0000
  H   H86       1.0  0.03040  0.22851  0.54252  1.0000
  C   C59       1.0  0.14428  0.00904  0.74563  1.0000
  C   C60       1.0  0.05292  0.23881  0.58822  1.0000
  H   H87       1.0  0.06662  0.23461  0.85738  1.0000
  C   C61       1.0  0.14880  0.21715  0.78468  1.0000
  C   C62       1.0  0.17072  0.21228  0.77384  1.0000
  C   C63       1.0  0.17521  0.21347  0.74454  1.0000
  C   C64       1.0  0.15786  0.21957  0.72607  1.0000
  H   H88       1.0  0.11883  0.06031  0.64510  1.0000
  H   H89       1.0  0.11618  0.03497  0.70964  1.0000
  H   H90       1.0  0.18414  0.20756  0.78798  1.0000
  C   C65       1.0  0.05994  0.01070  0.97411  1.0000
  H   H91       1.0  0.13761  0.01521  0.67972  1.0000
  H   H92       1.0  0.10338  0.02630  0.80507  1.0000
  C   C66       1.0  0.13793  0.22674  0.53578  1.0000
  H   H93       1.0  0.10496  0.20130  0.90885  1.0000
  H   H94       1.0  0.07882  0.00754  0.97010  1.0000
  C   C67       1.0  0.14192  0.21905  0.98483  1.0000
  S   S40       1.0  0.23890  0.22959  0.89902  1.0000
  C   C68       1.0  0.15874  0.23417  0.54222  1.0000
  H   H95       1.0  0.07027  0.23935  0.57744  1.0000
  H   H96       1.0  0.16343  0.19778  0.98259  1.0000
  H   H97       1.0  0.16914  0.17623  0.54530  1.0000
  C   C69       1.0  0.11999  0.00722  0.74368  1.0000
  H   H98       1.0  0.01930  0.22581  0.62048  1.0000
  C   C70       1.0  0.13704  0.11567  0.87902  1.0000
  C   C71       1.0  0.15812  0.11156  0.89279  1.0000
  C   C72       1.0  0.17503  0.12301  0.89746  1.0000
  C   C73       1.0  0.17095  0.13874  0.88890  1.0000
  C   C74       1.0  0.14975  0.14286  0.87545  1.0000
  C   C75       1.0  0.13301  0.13138  0.87041  1.0000
  H   H99       1.0  0.16144  0.09959  0.89986  1.0000
  H   H100      1.0  0.19133  0.11971  0.90798  1.0000
  H   H101      1.0  0.14641  0.15485  0.86853  1.0000
  H   H102      1.0  0.11684  0.13469  0.85964  1.0000
  C   C76       1.0  0.13428  0.01653  0.54703  1.0000
  H   H103      1.0  0.05934  0.01828  0.99340  1.0000
  S   S41       1.0  0.15258  0.24606  0.62305  1.0000
  C   C77       1.0  0.11848  0.02689  0.99227  1.0000
  H   H104      1.0  0.12655  0.04152  0.54661  1.0000
  H   H105      1.0  0.05924  0.21927  0.54418  1.0000
  C   C78       1.0  0.13916  0.02326  0.79082  1.0000
  H   H106      1.0  0.06491  0.23592  0.89544  1.0000
  C   C79       1.0  0.12202  0.04421  0.69460  1.0000
  Fe  Fe20      1.0  0.13813  0.23544  0.66285  1.0000
  H   H107      1.0  0.08743  0.21651  0.92532  1.0000
  C   C80       1.0  0.02422  0.02292  0.95533  1.0000
  C   C81       1.0  0.13596  0.22444  0.73695  1.0000
  H   H108      1.0  0.16066  0.23987  0.56249  1.0000
  C   C82       1.0  0.01783  0.05805  0.90234  1.0000
  H   H109      1.0  0.14535  0.02003  0.64379  1.0000
  C   C83       1.0  0.14273  0.02497  0.66550  1.0000
  N   N6        1.0  0.16835  0.08485  0.81245  1.0000
  C   C84       1.0  0.18617  0.07786  0.79292  1.0000
  C   C85       1.0  0.14470  0.08050  0.80319  1.0000
  C   C86       1.0  0.16979  0.10218  0.81244  1.0000
  C   C87       1.0  0.17268  0.07879  0.84143  1.0000
  H   H110      1.0  0.20424  0.08081  0.79950  1.0000
  H   H111      1.0  0.18350  0.08216  0.77080  1.0000
  H   H112      1.0  0.18535  0.06477  0.79262  1.0000
  H   H113      1.0  0.13084  0.08568  0.81747  1.0000
  H   H114      1.0  0.14079  0.08476  0.78134  1.0000
  H   H115      1.0  0.14287  0.06749  0.80346  1.0000
  H   H116      1.0  0.15610  0.10774  0.82649  1.0000
  H   H117      1.0  0.16712  0.10720  0.79082  1.0000
  H   H118      1.0  0.18709  0.10596  0.82038  1.0000
  H   H119      1.0  0.19013  0.08210  0.84953  1.0000
  H   H120      1.0  0.17201  0.06571  0.84211  1.0000
  H   H121      1.0  0.15924  0.08361  0.85654  1.0000
  N   N7        1.0  0.04263  0.22325  0.58469  1.0000
  H   H122      1.0  0.07580  0.19902  0.85434  1.0000
  H   H123      1.0  0.06977  0.00572  0.91866  1.0000
  C   C88       1.0  0.20502  0.22912  0.00617  1.0000
  C   C89       1.0  0.12982  0.01265  0.98474  1.0000
  H   H124      1.0  0.17204  0.15693  0.52985  1.0000
  C   C90       1.0  0.04140  0.21953  0.55410  1.0000
  N   N8        1.0  0.21354  0.23903  0.98274  1.0000
  H   H125      1.0  0.23557  0.22083  0.96369  1.0000
  C   C91       1.0  0.05759  0.21122  0.59927  1.0000
  C   C92       1.0  0.11490  0.02158  0.78862  1.0000
  H   H126      1.0  0.01017  0.21210  0.59426  1.0000
  H   H127      1.0  0.18986  0.19845  0.52370  1.0000
  C   C93       1.0  0.13204  0.05038  0.64585  1.0000
  Fe  Fe21      1.0  0.11923  0.23875  0.60247  1.0000
  H   H128      1.0  0.09143  0.21355  0.83473  1.0000
  H   H129      1.0  0.05120  0.22012  0.87720  1.0000
  H   H130      1.0  0.13417  0.04576  0.62375  1.0000
  H   H131      1.0  0.09610  0.02229  0.67023  1.0000
  S   S42       1.0  0.16428  0.22154  0.68971  1.0000
  H   H132      1.0  0.03374  0.20786  0.55051  1.0000
  C   C94       1.0  0.01879  0.22350  0.59723  1.0000
  C   C95       1.0  0.05109  0.00869  0.92407  1.0000
  H   H133      1.0  0.12107  0.24009  0.99399  1.0000
  C   C96       1.0  0.13146  0.22322  0.76619  1.0000
  N   N9        1.0  0.08883  0.21786  0.87971  1.0000
  S   S43       1.0  0.05180  0.24659  0.67227  1.0000
  C   C97       1.0  0.15557  0.20670  0.99635  1.0000
  H   H134      1.0  0.21726  0.18747  0.52695  1.0000
  H   H135      1.0  0.10869  0.05407  0.69544  1.0000
  N   N10       1.0  0.12472  0.03788  0.66550  1.0000
  H   H136      1.0  0.11011  0.23524  0.85990  1.0000
  H   H137      1.0  0.05058  0.19927  0.59686  1.0000
  C   C98       1.0  0.17716  0.23425  0.52231  1.0000
  H   H138      1.0  0.07354  0.20069  0.90715  1.0000
  C   C99       1.0  0.10910  0.22823  0.87984  1.0000
  H   H139      1.0  0.12244  0.22904  0.72281  1.0000
  H   H140      1.0  0.18739  0.23336  0.01381  1.0000
  H   H141      1.0  0.16002  0.02899  0.67291  1.0000
  C   C100      1.0  0.10207  0.03184  0.65596  1.0000
  S   S44       1.0  0.13296  0.01527  0.58483  1.0000
  C   C101      1.0  0.15377  0.01702  0.76906  1.0000
  H   H142      1.0  0.08801  0.04123  0.65572  1.0000
  H   H143      1.0  0.10721  0.19954  0.85625  1.0000
  C   C102      1.0  0.08856  0.20868  0.90640  1.0000
  H   H144      1.0  0.11443  0.22695  0.77446  1.0000
  C   C103      1.0  0.06689  0.22756  0.87735  1.0000
  H   H145      1.0  0.13889  0.04855  0.70281  1.0000
  H   H146      1.0  0.13728  0.01125  0.96369  1.0000
  N   N11       1.0  0.04920  0.01892  0.94940  1.0000
  C   C104      1.0  0.13158  0.23046  0.00289  1.0000
  C   C105      1.0  0.10544  0.01366  0.76522  1.0000
  H   H147      1.0  0.05450  0.03987  0.92515  1.0000
  H   H148      1.0  0.10351  0.02695  0.63404  1.0000
  H   H149      1.0  0.04317  0.01460  0.90505  1.0000
  H   H150      1.0  0.06090  0.04163  0.96239  1.0000
  H   H151      1.0  0.10841  0.23648  0.89816  1.0000
  C   C106      1.0  0.01740  0.04632  0.88158  1.0000
  H   H152      1.0  0.08059  0.03082  0.93947  1.0000
  C   C107      1.0  0.09080  0.20701  0.85524  1.0000
  C   C108      1.0  0.06176  0.03348  0.94391  1.0000
  H   H153      1.0  0.12590  0.22128  0.88154  1.0000
  H   H154      1.0  0.19217  0.20966  0.73615  1.0000
  H   H155      1.0  0.24967  0.23211  0.99063  1.0000
  C   C109      1.0  0.13975  0.00340  0.53006  1.0000
  C   C110      1.0  0.13069  0.03127  0.53377  1.0000
  H   H156      1.0  0.08664  0.01239  0.76398  1.0000
  H   H157      1.0  0.19325  0.23996  0.52748  1.0000
  H   H158      1.0  0.01415  0.01223  0.95972  1.0000
  H   H159      1.0  0.05876  0.21371  0.62247  1.0000
  C   C111      1.0  0.19670  0.23881  0.95892  1.0000
  H   H160      1.0  0.17256  0.01817  0.77056  1.0000
  H   H161      1.0  0.19421  0.22664  0.95130  1.0000
  H   H162      1.0  0.02222  0.03092  0.97393  1.0000
  C   C112      1.0  0.18144  0.16797  0.53380  1.0000
  H   H163      1.0  0.20346  0.21668  0.99930  1.0000
  H   H164      1.0  0.18946  0.24625  0.72527  1.0000
  H   H165      1.0  0.24417  0.24041  0.95613  1.0000
  H   H166      1.0  0.15577  0.00412  0.72935  1.0000
  H   H167      1.0  0.05577  0.24146  0.61102  1.0000
  H   H168      1.0  0.20297  0.24570  0.94039  1.0000
  H   H169      1.0  0.17906  0.24368  0.96526  1.0000
  C   C113      1.0  0.13271  0.00050  0.00503  1.0000
  H   H170      1.0  0.05092  0.99967  0.97918  1.0000
  C   C114      1.0  0.02134  0.25652  0.14165  1.0000
  Fe  Fe22      1.0  0.13407  0.26414  0.14199  1.0000
  S   S45       1.0  0.14393  0.28980  0.14074  1.0000
  H   H171      1.0  0.15476  0.27904  0.20090  1.0000
  H   H172      1.0  0.15612  0.28000  0.25399  1.0000
  H   H173      1.0  0.20526  0.29210  0.24257  1.0000
  H   H174      1.0  0.17929  0.27038  0.18193  1.0000
  C   C115      1.0  0.21316  0.31417  0.16084  1.0000
  C   C116      1.0  0.21424  0.29954  0.14688  1.0000
  C   C117      1.0  0.19330  0.29155  0.14100  1.0000
  C   C118      1.0  0.17126  0.29832  0.14865  1.0000
  C   C119      1.0  0.17048  0.31290  0.16235  1.0000
  C   C120      1.0  0.19115  0.32060  0.16872  1.0000
  H   H175      1.0  0.23113  0.29441  0.14072  1.0000
  H   H176      1.0  0.19416  0.28040  0.12999  1.0000
  H   H177      1.0  0.15368  0.31836  0.16807  1.0000
  H   H178      1.0  0.19001  0.33184  0.17947  1.0000
  C   C121      1.0  0.19387  0.28921  0.22433  1.0000
  H   H179      1.0  0.20445  0.29060  0.20461  1.0000
  S   S46       1.0  0.23822  0.32477  0.17082  1.0000
  H   H180      1.0  0.03533  0.26478  0.14260  1.0000
  H   H181      1.0  0.17923  0.29823  0.22338  1.0000
  N   N12       1.0  0.18499  0.27314  0.22669  1.0000
  H   H182      1.0  0.18255  0.27375  0.27228  1.0000
  C   C122      1.0  0.20496  0.26156  0.22649  1.0000
  H   H183      1.0  0.21523  0.26224  0.20637  1.0000
  C   C123      1.0  0.16951  0.27013  0.20237  1.0000
  C   C124      1.0  0.17150  0.27156  0.25337  1.0000
  S   S47       1.0  0.11124  0.25199  0.10995  1.0000
  H   H184      1.0  0.21712  0.26349  0.24446  1.0000
  H   H185      1.0  0.16177  0.25839  0.20409  1.0000
  S   S48       1.0  0.11441  0.25496  0.18007  1.0000
  H   H186      1.0  0.16466  0.25949  0.25562  1.0000
  H   H187      1.0  0.19882  0.24931  0.22828  1.0000
  H   H188      1.0  0.17139  0.25457  0.69768  1.0000
  Fe  Fe23      1.0  0.13176  0.26761  0.63643  1.0000
  S   S49       1.0  0.14765  0.29167  0.63439  1.0000
  H   H189      1.0  0.18515  0.28205  0.77119  1.0000
  H   H190      1.0  0.24140  0.29702  0.52986  1.0000
  N   N13       1.0  0.17410  0.26916  0.73469  1.0000
  C   C125      1.0  0.22090  0.28856  0.57890  1.0000
  C   C126      1.0  0.22372  0.29876  0.66192  1.0000
  C   C127      1.0  0.20968  0.31152  0.65251  1.0000
  C   C128      1.0  0.18650  0.30916  0.64355  1.0000
  C   C129      1.0  0.17731  0.29405  0.64370  1.0000
  C   C130      1.0  0.19173  0.28122  0.65195  1.0000
  C   C131      1.0  0.21476  0.28361  0.66127  1.0000
  H   H191      1.0  0.21628  0.32328  0.65332  1.0000
  H   H192      1.0  0.17544  0.31914  0.63715  1.0000
  H   H193      1.0  0.18496  0.26951  0.65170  1.0000
  H   H194      1.0  0.22565  0.27368  0.66831  1.0000
  H   H195      1.0  0.18098  0.28929  0.70855  1.0000
  H   H196      1.0  0.19868  0.26273  0.76758  1.0000
  H   H197      1.0  0.22085  0.27558  0.57596  1.0000
  H   H198      1.0  0.14569  0.27081  0.76494  1.0000
  H   H199      1.0  0.03476  0.26646  0.62488  1.0000
  C   C132      1.0  0.15402  0.26233  0.74969  1.0000
  H   H200      1.0  0.14024  0.25881  0.73453  1.0000
  H   H201      1.0  0.15327  0.28069  0.70210  1.0000
  C   C133      1.0  0.19219  0.27329  0.75554  1.0000
  H   H202      1.0  0.21392  0.29112  0.60052  1.0000
  C   C134      1.0  0.18422  0.25749  0.71448  1.0000
  H   H203      1.0  0.20006  0.26188  0.70369  1.0000
  H   H204      1.0  0.23125  0.31802  0.56527  1.0000
  C   C135      1.0  0.16607  0.28345  0.71907  1.0000
  H   H205      1.0  0.20819  0.29398  0.56353  1.0000
  H   H206      1.0  0.15736  0.29225  0.73343  1.0000
  C   C136      1.0  0.02346  0.25088  0.65788  1.0000
  S   S50       1.0  0.25136  0.30133  0.67773  1.0000
  N   N14       1.0  0.24467  0.29469  0.57517  1.0000
  C   C137      1.0  0.21565  0.25535  0.99286  1.0000
  H   H207      1.0  0.20762  0.27848  0.74486  1.0000
  S   S51       1.0  0.11911  0.25745  0.67762  1.0000
  S   S52       1.0  0.09909  0.26132  0.61247  1.0000
  C   C138      1.0  0.02001  0.26066  0.63421  1.0000
  H   H208      1.0  0.23834  0.31481  0.60204  1.0000
  C   C139      1.0  0.24383  0.31187  0.57990  1.0000
  H   H209      1.0  0.22182  0.26316  0.97557  1.0000
  H   H210      1.0  0.15957  0.25159  0.76185  1.0000
  H   H211      1.0  0.25528  0.28953  0.61811  1.0000
  H   H212      1.0  0.19847  0.26033  0.00064  1.0000
  C   C140      1.0  0.25311  0.29131  0.54601  1.0000
  H   H213      1.0  0.25390  0.27845  0.54167  1.0000
  Fe  Fe24      1.0  0.08821  0.24907  0.65254  1.0000
  H   H214      1.0  0.22839  0.25597  0.01066  1.0000
  H   H215      1.0  0.04139  0.24840  0.57924  1.0000
  H   H216      1.0  0.18767  0.74353  0.49547  1.0000
  S   S53       1.0  0.15300  0.73565  0.39664  1.0000
  C   C141      1.0  0.23335  0.72685  0.39645  1.0000
  C   C142      1.0  0.13003  0.74617  0.47705  1.0000
  C   C143      1.0  0.22361  0.74227  0.39721  1.0000
  C   C144      1.0  0.18398  0.73255  0.39698  1.0000
  C   C145      1.0  0.19366  0.71711  0.39642  1.0000
  C   C146      1.0  0.21823  0.71425  0.39610  1.0000
  C   C147      1.0  0.19911  0.74513  0.39751  1.0000
  C   C148      1.0  0.17020  0.73920  0.48929  1.0000
  H   H217      1.0  0.18211  0.70729  0.39601  1.0000
  H   H218      1.0  0.22545  0.70232  0.39552  1.0000
  H   H219      1.0  0.16451  0.73088  0.50599  1.0000
  H   H220      1.0  0.12334  0.73781  0.49309  1.0000
  H   H221      1.0  0.17267  0.73241  0.46917  1.0000
  H   H222      1.0  0.17348  0.73614  0.30773  1.0000
  H   H223      1.0  0.19253  0.73814  0.33769  1.0000
  H   H224      1.0  0.13141  0.73989  0.45629  1.0000
  H   H225      1.0  0.16379  0.74741  0.33798  1.0000
  C   C149      1.0  0.17927  0.74450  0.32421  1.0000
  H   H226      1.0  0.20546  0.74624  0.27672  1.0000
  S   S54       1.0  0.16284  0.73614  0.90657  1.0000
  H   H227      1.0  0.23008  0.69862  0.89942  1.0000
  C   C150      1.0  0.23228  0.71684  0.86782  1.0000
  C   C151      1.0  0.22123  0.73052  0.85665  1.0000
  C   C152      1.0  0.20013  0.73670  0.86850  1.0000
  C   C153      1.0  0.18964  0.72907  0.89133  1.0000
  C   C154      1.0  0.20067  0.71535  0.90245  1.0000
  C   C155      1.0  0.22199  0.70932  0.89093  1.0000
  H   H228      1.0  0.19253  0.70930  0.91995  1.0000
  H   H229      1.0  0.23747  0.74413  0.96437  1.0000
  H   H230      1.0  0.22895  0.73636  0.83865  1.0000
  H   H231      1.0  0.25033  0.69701  0.79102  1.0000
  C   C156      1.0  0.24367  0.73904  0.94383  1.0000
  H   H232      1.0  0.23220  0.72910  0.93881  1.0000
  H   H233      1.0  0.19174  0.74723  0.85969  1.0000
  Fe  Fe25      1.0  0.21709  0.82207  0.15764  1.0000
  S   S55       1.0  0.18777  0.80580  0.14958  1.0000
  C   C157      1.0  0.16519  0.81455  0.24592  1.0000
  Fe  Fe26      1.0  0.18737  0.85078  0.13679  1.0000
  S   S56       1.0  0.15644  0.83620  0.12650  1.0000
  S   S57       1.0  0.18840  0.87693  0.12653  1.0000
  Fe  Fe27      1.0  0.16442  0.82460  0.16886  1.0000
  S   S58       1.0  0.13539  0.81941  0.20017  1.0000
  Fe  Fe28      1.0  0.18307  0.81877  0.10823  1.0000
  S   S59       1.0  0.18649  0.80490  0.06711  1.0000
  S   S60       1.0  0.19389  0.84021  0.18006  1.0000
  S   S61       1.0  0.21371  0.83413  0.11555  1.0000
  H   H234      1.0  0.19825  0.80333  0.49621  1.0000
  S   S62       1.0  0.15228  0.78202  0.40017  1.0000
  Fe  Fe29      1.0  0.08714  0.77715  0.37626  1.0000
  S   S63       1.0  0.10267  0.80077  0.38438  1.0000
  C   C158      1.0  0.15937  0.97860  0.37107  1.0000
  Fe  Fe30      1.0  0.13436  0.79115  0.36049  1.0000
  S   S64       1.0  0.15864  0.80312  0.32930  1.0000
  Fe  Fe31      1.0  0.11906  0.78929  0.42313  1.0000
  S   S65       1.0  0.11540  0.79884  0.46819  1.0000
  H   H235      1.0  0.16800  0.87164  0.19952  1.0000
  H   H236      1.0  0.11181  0.88589  0.23174  1.0000
  Fe  Fe32      1.0  0.10939  0.95664  0.14605  1.0000
  S   S66       1.0  0.13990  0.97199  0.13687  1.0000
  S   S67       1.0  0.10935  0.92999  0.15364  1.0000
  Fe  Fe33      1.0  0.07459  0.98486  0.14415  1.0000
  Fe  Fe34      1.0  0.11642  0.98370  0.10369  1.0000
  N   N15       1.0  0.24278  0.77386  0.09239  1.0000
  H   H237      1.0  0.14057  0.82046  0.05659  1.0000
  C   C159      1.0  0.17094  0.76659  0.29309  1.0000
  H   H238      1.0  0.17927  0.81790  0.23193  1.0000
  S   S68       1.0  0.08683  0.96735  0.11122  1.0000
  S   S69       1.0  0.09424  0.97298  0.17988  1.0000
  H   H239      1.0  0.17801  0.88385  0.06667  1.0000
  C   C160      1.0  0.23326  0.77581  0.06338  1.0000
  H   H240      1.0  0.10651  0.80868  0.24609  1.0000
  H   H241      1.0  0.03581  0.96262  0.13598  1.0000
  C   C161      1.0  0.16983  0.81132  0.27473  1.0000
  C   C162      1.0  0.15179  0.80692  0.29324  1.0000
  C   C163      1.0  0.15559  0.87785  0.21441  1.0000
  H   H242      1.0  0.24418  0.74860  0.09033  1.0000
  C   C164      1.0  0.12903  0.80572  0.28266  1.0000
  H   H243      1.0  0.19752  0.85270  0.04080  1.0000
  C   C165      1.0  0.12428  0.80931  0.25395  1.0000
  H   H244      1.0  0.15512  0.77042  0.30555  1.0000
  H   H245      1.0  0.18750  0.81225  0.28272  1.0000
  C   C166      1.0  0.14231  0.81377  0.23549  1.0000
  N   N16       1.0  0.18890  0.75879  0.31139  1.0000
  H   H246      1.0  0.11498  0.80233  0.29670  1.0000
  C   C167      1.0  0.16607  0.89150  0.13365  1.0000
  C   C168      1.0  0.17090  0.90745  0.12964  1.0000
  C   C169      1.0  0.15369  0.91939  0.13526  1.0000
  C   C170      1.0  0.13141  0.91548  0.14498  1.0000
  C   C171      1.0  0.12649  0.89948  0.14857  1.0000
  C   C172      1.0  0.14365  0.88755  0.14278  1.0000
  H   H247      1.0  0.18814  0.91064  0.12242  1.0000
  H   H248      1.0  0.15773  0.93162  0.13239  1.0000
  H   H249      1.0  0.10922  0.89636  0.15579  1.0000
  H   H250      1.0  0.13957  0.87533  0.14535  1.0000
  C   C173      1.0  0.16710  0.80513  0.03780  1.0000
  C   C174      1.0  0.18009  0.80414  0.50302  1.0000
  H   H251      1.0  0.17693  0.84051  0.05847  1.0000
  C   C175      1.0  0.13862  0.80277  0.49179  1.0000
  C   C176      1.0  0.18271  0.85283  0.05627  1.0000
  C   C177      1.0  0.14581  0.81382  0.03794  1.0000
  C   C178      1.0  0.01849  0.76823  0.39943  1.0000
  H   H252      1.0  0.16649  0.79924  0.46126  1.0000
  H   H253      1.0  0.14736  0.88796  0.20260  1.0000
  H   H254      1.0  0.16618  0.88279  0.23185  1.0000
  C   C179      1.0  0.15001  0.76122  0.51245  1.0000
  H   H255      1.0  0.14966  0.86656  0.08954  1.0000
  H   H256      1.0  0.15922  0.85914  0.26054  1.0000
  H   H257      1.0  0.17804  0.76835  0.46911  1.0000
  S   S70       1.0  0.24944  0.81004  0.17694  1.0000
  N   N17       1.0  0.13771  0.86721  0.22547  1.0000
  H   H258      1.0  0.21296  0.78588  0.11118  1.0000
  H   H259      1.0  0.12990  0.88149  0.26214  1.0000
  C   C180      1.0  0.14930  0.85448  0.24226  1.0000
  H   H260      1.0  0.17709  0.97483  0.36307  1.0000
  H   H261      1.0  0.11545  0.86951  0.18875  1.0000
  C   C181      1.0  0.12497  0.86031  0.20148  1.0000
  H   H262      1.0  0.11189  0.85179  0.20903  1.0000
  C   C182      1.0  0.19559  0.76969  0.33415  1.0000
  H   H263      1.0  0.16410  0.75664  0.44279  1.0000
  N   N18       1.0  0.16324  0.86360  0.04718  1.0000
  H   H264      1.0  0.17223  0.99685  0.41485  1.0000
  H   H265      1.0  0.10715  0.86845  0.25236  1.0000
  H   H266      1.0  0.21382  0.77471  0.06318  1.0000
  H   H267      1.0  0.23678  0.78770  0.05468  1.0000
  H   H268      1.0  0.12888  0.87111  0.06200  1.0000
  C   C183      1.0  0.02177  0.77379  0.37174  1.0000
  H   H269      1.0  0.13719  0.85369  0.18696  1.0000
  C   C184      1.0  0.12090  0.87617  0.24375  1.0000
  H   H270      1.0  0.19823  0.99594  0.10235  1.0000
  H   H271      1.0  0.16796  0.99194  0.09676  1.0000
  C   C185      1.0  0.14381  0.86301  0.06800  1.0000
  S   S71       1.0  0.13022  0.98721  0.05833  1.0000
  Fe  Fe35      1.0  0.13430  0.75963  0.39114  1.0000
  H   H272      1.0  0.19200  0.75706  0.39810  1.0000
  H   H273      1.0  0.15740  0.88833  0.03887  1.0000
  C   C186      1.0  0.01815  0.96757  0.13835  1.0000
  H   H274      1.0  0.03360  0.76576  0.41275  1.0000
  H   H275      1.0  0.18646  0.88074  0.03031  1.0000
  N   N19       1.0  0.15287  0.75237  0.48558  1.0000
  S   S72       1.0  0.10171  0.76622  0.41632  1.0000
  H   H276      1.0  0.24101  0.76689  0.04856  1.0000
  S   S73       1.0  0.11826  0.76821  0.35008  1.0000
  H   H277      1.0  0.16188  0.84735  0.22903  1.0000
  C   C187      1.0  0.20986  0.75442  0.29417  1.0000
  S   S74       1.0  0.05023  0.77661  0.35695  1.0000
  H   H278      1.0  0.12988  0.99530  0.40523  1.0000
  H   H279      1.0  0.23515  0.75210  0.39761  1.0000
  H   H280      1.0  0.13699  0.85094  0.06979  1.0000
  H   H281      1.0  0.13630  0.84622  0.25093  1.0000
  H   H282      1.0  0.11923  0.99651  0.36908  1.0000
  C   C188      1.0  0.16213  0.80175  0.48319  1.0000
  N   N20       1.0  0.15691  0.99590  0.37315  1.0000
  H   H283      1.0  0.17772  0.77733  0.28284  1.0000
  H   H284      1.0  0.21734  0.75709  0.10482  1.0000
  H   H285      1.0  0.15684  0.97294  0.39217  1.0000
  C   C189      1.0  0.17163  0.87983  0.04560  1.0000
  Fe  Fe36      1.0  0.12303  0.98913  0.16832  1.0000
  H   H286      1.0  0.21760  0.76499  0.28435  1.0000
  H   H287      1.0  0.14615  0.97387  0.35629  1.0000
  H   H288      1.0  0.20196  0.78092  0.32529  1.0000
  H   H289      1.0  0.20968  0.76443  0.34784  1.0000
  H   H290      1.0  0.11649  0.75585  0.47456  1.0000
  H   H291      1.0  0.13664  0.77103  0.51024  1.0000
  H   H292      1.0  0.18033  0.77284  0.34807  1.0000
  C   C190      1.0  0.01460  0.98345  0.14520  1.0000
  C   C191      1.0  0.23244  0.78629  0.11088  1.0000
  H   H293      1.0  0.22375  0.74849  0.30738  1.0000
  H   H294      1.0  0.23868  0.78507  0.13320  1.0000
  H   H295      1.0  0.16506  0.75867  0.27596  1.0000
  H   H296      1.0  0.18983  0.85645  0.07713  1.0000
  C   C192      1.0  0.16122  0.76298  0.46320  1.0000
  H   H297      1.0  0.14688  0.99492  0.48758  1.0000
  S   S75       1.0  0.03824  0.99572  0.15013  1.0000
  H   H298      1.0  0.14813  0.77272  0.45924  1.0000
  H   H299      1.0  0.23695  0.79824  0.10340  1.0000
  H   H300      1.0  0.24369  0.75656  0.12569  1.0000
  C   C193      1.0  0.23673  0.75831  0.10377  1.0000
  H   H301      1.0  0.10179  0.99590  0.23248  1.0000
  C   C194      1.0  0.15483  0.85873  0.01896  1.0000
  H   H302      1.0  0.14859  0.84647  0.01943  1.0000
  Fe  Fe37      1.0  0.23010  0.82314  0.64930  1.0000
  S   S76       1.0  0.20993  0.80251  0.63501  1.0000
  C   C195      1.0  0.13916  0.93008  0.56008  1.0000
  Fe  Fe38      1.0  0.18650  0.84601  0.64359  1.0000
  S   S77       1.0  0.16418  0.82641  0.62801  1.0000
  S   S78       1.0  0.16397  0.86784  0.65585  1.0000
  Fe  Fe39      1.0  0.18094  0.81210  0.66316  1.0000
  S   S79       1.0  0.15993  0.79667  0.69267  1.0000
  Fe  Fe40      1.0  0.19537  0.81890  0.60133  1.0000
  S   S80       1.0  0.19811  0.81036  0.55555  1.0000
  S   S81       1.0  0.20190  0.83171  0.67975  1.0000
  S   S82       1.0  0.21701  0.83947  0.61444  1.0000
  C   C196      1.0  0.13367  0.90442  0.58047  1.0000
  S   S83       1.0  0.16054  0.78206  0.90039  1.0000
  Fe  Fe41      1.0  0.09636  0.77458  0.87479  1.0000
  S   S84       1.0  0.11101  0.79858  0.88005  1.0000
  S   S85       1.0  0.05860  0.77689  0.85808  1.0000
  Fe  Fe42      1.0  0.14355  0.78885  0.85864  1.0000
  S   S86       1.0  0.16328  0.80394  0.82715  1.0000
  Fe  Fe43      1.0  0.12637  0.78965  0.92108  1.0000
  S   S87       1.0  0.11843  0.80488  0.96007  1.0000
  S   S88       1.0  0.12832  0.76529  0.85040  1.0000
  H   H303      1.0  0.14140  0.89828  0.56160  1.0000
  Fe  Fe44      1.0  0.14474  0.96059  0.63613  1.0000
  S   S89       1.0  0.15173  0.98580  0.64821  1.0000
  S   S90       1.0  0.17316  0.94121  0.63055  1.0000
  Fe  Fe45      1.0  0.09346  0.96761  0.62534  1.0000
  S   S91       1.0  0.06054  0.95717  0.60838  1.0000
  H   H304      1.0  0.14274  0.99202  0.53991  1.0000
  H   H305      1.0  0.09121  0.83182  0.71520  1.0000
  Fe  Fe46      1.0  0.11812  0.98488  0.67353  1.0000
  H   H306      1.0  0.12559  0.82682  0.74691  1.0000
  S   S92       1.0  0.12491  0.96782  0.59658  1.0000
  S   S93       1.0  0.11282  0.95911  0.66416  1.0000
  H   H307      1.0  0.16668  0.76663  0.51897  1.0000
  C   C197      1.0  0.03538  0.96270  0.62818  1.0000
  C   C198      1.0  0.05711  0.80919  0.91937  1.0000
  H   H308      1.0  0.11511  0.80730  0.52705  1.0000
  H   H309      1.0  0.08611  0.85104  0.73029  1.0000
  H   H310      1.0  0.05462  0.96876  0.66566  1.0000
  N   N21       1.0  0.23871  0.79241  0.73458  1.0000
  H   H311      1.0  0.01141  0.95774  0.59433  1.0000
  H   H312      1.0  0.08976  0.90881  0.56062  1.0000
  H   H313      1.0  0.05635  0.80322  0.89835  1.0000
  C   C199      1.0  0.04783  0.80801  0.96938  1.0000
  C   C200      1.0  0.03074  0.77093  0.87047  1.0000
  C   C201      1.0  0.09611  0.84436  0.71363  1.0000
  H   H314      1.0  0.20808  0.78853  0.76016  1.0000
  H   H315      1.0  0.07701  0.78547  0.95060  1.0000
  H   H316      1.0  0.12979  0.82435  0.69465  1.0000
  C   C202      1.0  0.16761  0.88821  0.64941  1.0000
  C   C203      1.0  0.18680  0.89385  0.63440  1.0000
  C   C204      1.0  0.18853  0.91015  0.62946  1.0000
  C   C205      1.0  0.17108  0.92096  0.63927  1.0000
  C   C206      1.0  0.15203  0.91530  0.65457  1.0000
  C   C207      1.0  0.15030  0.89904  0.65952  1.0000
  H   H317      1.0  0.20030  0.88569  0.62658  1.0000
  H   H318      1.0  0.20340  0.91439  0.61771  1.0000
  H   H319      1.0  0.13865  0.92347  0.66264  1.0000
  H   H320      1.0  0.13546  0.89484  0.67131  1.0000
  C   C208      1.0  0.17476  0.80782  0.53148  1.0000
  H   H321      1.0  0.09381  0.92790  0.54546  1.0000
  C   C209      1.0  0.15124  0.80901  0.54002  1.0000
  C   C210      1.0  0.13742  0.80477  0.98977  1.0000
  H   H322      1.0  0.09923  0.91905  0.60944  1.0000
  H   H323      1.0  0.20798  0.79596  0.70875  1.0000
  C   C211      1.0  0.22658  0.78406  0.75764  1.0000
  H   H324      1.0  0.04992  0.77647  0.95950  1.0000
  H   H325      1.0  0.13082  0.94157  0.55372  1.0000
  C   C212      1.0  0.15869  0.79607  0.98973  1.0000
  C   C213      1.0  0.16037  0.79899  0.73004  1.0000
  C   C214      1.0  0.14871  0.78831  0.74743  1.0000
  C   C215      1.0  0.14918  0.78972  0.77725  1.0000
  C   C216      1.0  0.16139  0.80184  0.78989  1.0000
  C   C217      1.0  0.17286  0.81259  0.77247  1.0000
  C   C218      1.0  0.17226  0.81121  0.74272  1.0000
  H   H326      1.0  0.13936  0.77883  0.73783  1.0000
  H   H327      1.0  0.14023  0.78138  0.79045  1.0000
  H   H328      1.0  0.18224  0.82203  0.78211  1.0000
  H   H329      1.0  0.18096  0.81966  0.72968  1.0000
  H   H330      1.0  0.11044  0.91112  0.53207  1.0000
  H   H331      1.0  0.10081  0.93787  0.59266  1.0000
  H   H332      1.0  0.12141  0.89631  0.59097  1.0000
  C   C219      1.0  0.23951  0.80932  0.74158  1.0000
  N   N22       1.0  0.12169  0.84592  0.71702  1.0000
  C   C220      1.0  0.12901  0.83961  0.74502  1.0000
  C   C221      1.0  0.12756  0.86268  0.71501  1.0000
  C   C222      1.0  0.13412  0.83700  0.69430  1.0000
  H   H333      1.0  0.11950  0.84574  0.76271  1.0000
  H   H334      1.0  0.14812  0.84101  0.74856  1.0000
  H   H335      1.0  0.14687  0.86418  0.71671  1.0000
  H   H336      1.0  0.12217  0.86783  0.69416  1.0000
  H   H337      1.0  0.11887  0.86981  0.73207  1.0000
  H   H338      1.0  0.09010  0.84884  0.69254  1.0000
  H   H339      1.0  0.12960  0.84175  0.67286  1.0000
  H   H340      1.0  0.15346  0.83765  0.69652  1.0000
  N   N23       1.0  0.12181  0.91953  0.57262  1.0000
  H   H341      1.0  0.23506  0.79602  0.68961  1.0000
  H   H342      1.0  0.01927  0.79170  0.91406  1.0000
  C   C223      1.0  0.11124  0.92700  0.59818  1.0000
  H   H343      1.0  0.18987  0.78952  0.01331  1.0000
  C   C224      1.0  0.10315  0.91669  0.55172  1.0000
  H   H344      1.0  0.01892  0.97493  0.69431  1.0000
  S   S94       1.0  0.10658  0.99763  0.71455  1.0000
  Fe  Fe47      1.0  0.12887  0.99272  0.61071  1.0000
  C   C225      1.0  0.22588  0.79045  0.70768  1.0000
  C   C226      1.0  0.05844  0.78428  0.94387  1.0000
  H   H345      1.0  0.16375  0.78918  0.97126  1.0000
  H   H346      1.0  0.14692  0.81181  0.56186  1.0000
  H   H347      1.0  0.22161  0.81469  0.74437  1.0000
  N   N24       1.0  0.04608  0.79979  0.94188  1.0000
  H   H348      1.0  0.05878  0.77815  0.92301  1.0000
  Fe  Fe48      1.0  0.14355  0.75893  0.89338  1.0000
  H   H349      1.0  0.14419  0.75356  0.53009  1.0000
  H   H350      1.0  0.24934  0.81126  0.76156  1.0000
  H   H351      1.0  0.15334  0.93264  0.57552  1.0000
  H   H352      1.0  0.23542  0.78558  0.77844  1.0000
  H   H353      1.0  0.14231  0.98977  0.99929  1.0000
  H   H354      1.0  0.12491  0.93047  0.61351  1.0000
  C   C227      1.0  0.03743  0.96784  0.65622  1.0000
  S   S95       1.0  0.11017  0.76607  0.91700  1.0000
  H   H355      1.0  0.01116  0.80911  0.93352  1.0000
  C   C228      1.0  0.01304  0.96156  0.61611  1.0000
  C   C229      1.0  0.02835  0.75933  0.89130  1.0000
  H   H356      1.0  0.07598  0.81101  0.92404  1.0000
  H   H357      1.0  0.14777  0.92477  0.54097  1.0000
  H   H358      1.0  0.03989  0.80114  0.98688  1.0000
  S   S96       1.0  0.09574  0.99292  0.63660  1.0000
  C   C230      1.0  0.02112  0.79766  0.93490  1.0000
  H   H359      1.0  0.22594  0.77124  0.75328  1.0000
  H   H360      1.0  0.06653  0.80981  0.97509  1.0000
  C   C231      1.0  0.17345  0.79628  0.01361  1.0000
  H   H361      1.0  0.03871  0.81979  0.96872  1.0000
  C   C232      1.0  0.01720  0.97136  0.67239  1.0000
  H   H362      1.0  0.14829  0.90622  0.59551  1.0000
  H   H363      1.0  0.04385  0.75345  0.90005  1.0000
  C   C233      1.0  0.13327  0.80646  0.52024  1.0000
  H   H364      1.0  0.04824  0.82097  0.91707  1.0000
  C   C234      1.0  0.13106  0.81367  0.01395  1.0000
  H   H365      1.0  0.16905  0.85908  0.00271  1.0000
  H   H366      1.0  0.22398  0.77784  0.70227  1.0000
  H   H367      1.0  0.04198  0.99749  0.92737  1.0000
  C   C235      1.0  0.01030  0.77821  0.85901  1.0000
  H   H368      1.0  0.01232  0.79029  0.95105  1.0000
  H   H369      1.0  0.01191  0.78715  0.84281  1.0000
  H   H370      1.0  0.24824  0.81603  0.72443  1.0000
  H   H371      1.0  0.14000  0.86652  0.01148  1.0000
  H   H372      1.0  0.11454  0.82032  0.01421  1.0000
  H   H373      1.0  0.24053  0.74810  0.92702  1.0000
  C   C236      1.0  0.30319  0.23038  0.42144  1.0000
  C   C237      1.0  0.32385  0.23381  0.40660  1.0000
  H   H374      1.0  0.36628  0.23312  0.48487  1.0000
  C   C238      1.0  0.32646  0.22879  0.37845  1.0000
  C   C239      1.0  0.30856  0.22045  0.36531  1.0000
  C   C240      1.0  0.28782  0.21711  0.38008  1.0000
  C   C241      1.0  0.28513  0.22223  0.40817  1.0000
  H   H375      1.0  0.26929  0.21969  0.41979  1.0000
  H   H376      1.0  0.34256  0.23095  0.36706  1.0000
  H   H377      1.0  0.31088  0.21637  0.34369  1.0000
  H   H378      1.0  0.30110  0.23402  0.44333  1.0000
  S   S97       1.0  0.26578  0.20658  0.36270  1.0000
  H   H379      1.0  0.35867  0.24030  0.12170  1.0000
  H   H380      1.0  0.38676  0.24533  0.46775  1.0000
  C   C242      1.0  0.38019  0.24171  0.48895  1.0000
  S   S98       1.0  0.34641  0.24358  0.42453  1.0000
  H   H381      1.0  0.39495  0.23545  0.50010  1.0000
  H   H382      1.0  0.32102  0.23576  0.83092  1.0000
  H   H383      1.0  0.31926  0.20914  0.87619  1.0000
  H   H384      1.0  0.27590  0.20682  0.87989  1.0000
  C   C243      1.0  0.30855  0.21896  0.88406  1.0000
  C   C244      1.0  0.28396  0.21761  0.88609  1.0000
  S   S99       1.0  0.35022  0.23442  0.88759  1.0000
  C   C245      1.0  0.28077  0.24415  0.90417  1.0000
  C   C246      1.0  0.31935  0.23291  0.89199  1.0000
  C   C247      1.0  0.30529  0.24546  0.90226  1.0000
  C   C248      1.0  0.26994  0.23025  0.89612  1.0000
  H   H385      1.0  0.30984  0.23721  0.79538  1.0000
  H   H386      1.0  0.34746  0.24172  0.53026  1.0000
  C   C249      1.0  0.30978  0.24314  0.81642  1.0000
  H   H387      1.0  0.29158  0.24307  0.82514  1.0000
  H   H388      1.0  0.37605  0.24383  0.54562  1.0000
  Fe  Fe49      1.0  0.37234  0.45337  0.16789  1.0000
  S   S100      1.0  0.36106  0.47764  0.15231  1.0000
  S   S101      1.0  0.34332  0.43550  0.17130  1.0000
  Fe  Fe50      1.0  0.42320  0.46308  0.17529  1.0000
  S   S102      1.0  0.45878  0.45785  0.19487  1.0000
  Fe  Fe51      1.0  0.38392  0.48692  0.18740  1.0000
  N   N25       1.0  0.35097  0.26501  0.11581  1.0000
  Fe  Fe52      1.0  0.39374  0.47601  0.12530  1.0000
  C   C250      1.0  0.50467  0.27708  0.42584  1.0000
  S   S103      1.0  0.39220  0.46289  0.20503  1.0000
  S   S104      1.0  0.40429  0.45138  0.13984  1.0000
  Fe  Fe53      1.0  0.32086  0.34158  0.14407  1.0000
  S   S105      1.0  0.34176  0.31903  0.13546  1.0000
  S   S106      1.0  0.34566  0.36220  0.14072  1.0000
  Fe  Fe54      1.0  0.27623  0.32299  0.15574  1.0000
  S   S107      1.0  0.29461  0.29968  0.14858  1.0000
  Fe  Fe55      1.0  0.32392  0.30949  0.17405  1.0000
  S   S108      1.0  0.34639  0.29450  0.20413  1.0000
  Fe  Fe56      1.0  0.31073  0.31141  0.11062  1.0000
  S   S109      1.0  0.31049  0.29710  0.06980  1.0000
  S   S110      1.0  0.30470  0.33220  0.18418  1.0000
  S   S111      1.0  0.29067  0.33446  0.11630  1.0000
  Fe  Fe57      1.0  0.41725  0.27462  0.38494  1.0000
  S   S112      1.0  0.40439  0.29985  0.38898  1.0000
  S   S113      1.0  0.45382  0.26817  0.36731  1.0000
  Fe  Fe58      1.0  0.36967  0.26210  0.40535  1.0000
  S   S114      1.0  0.35412  0.28648  0.41056  1.0000
  Fe  Fe59      1.0  0.37125  0.29165  0.36856  1.0000
  S   S115      1.0  0.34858  0.30609  0.33762  1.0000
  Fe  Fe60      1.0  0.38831  0.29225  0.43042  1.0000
  S   S116      1.0  0.39284  0.30453  0.47276  1.0000
  S   S117      1.0  0.38470  0.26676  0.36191  1.0000
  S   S118      1.0  0.40336  0.26757  0.42759  1.0000
  C   C251      1.0  0.33174  0.29783  0.04238  1.0000
  H   H389      1.0  0.32021  0.45552  0.12614  1.0000
  H   H390      1.0  0.50552  0.28172  0.44719  1.0000
  C   C252      1.0  0.36991  0.30711  0.49794  1.0000
  C   C253      1.0  0.32892  0.28858  0.01801  1.0000
  C   C254      1.0  0.35168  0.30685  0.04477  1.0000
  H   H391      1.0  0.37921  0.28065  0.10797  1.0000
  H   H392      1.0  0.30162  0.27950  0.39286  1.0000
  H   H393      1.0  0.34221  0.30093  0.46962  1.0000
  H   H394      1.0  0.35402  0.31405  0.06339  1.0000
  C   C255      1.0  0.34648  0.29769  0.24128  1.0000
  C   C256      1.0  0.36207  0.28872  0.25836  1.0000
  C   C257      1.0  0.36294  0.29114  0.28792  1.0000
  C   C258      1.0  0.34825  0.30263  0.30060  1.0000
  C   C259      1.0  0.33253  0.31154  0.28356  1.0000
  C   C260      1.0  0.33158  0.30907  0.25403  1.0000
  H   H395      1.0  0.37366  0.27990  0.24869  1.0000
  H   H396      1.0  0.37514  0.28421  0.30081  1.0000
  H   H397      1.0  0.32099  0.32037  0.29327  1.0000
  H   H398      1.0  0.31929  0.31592  0.24119  1.0000
  C   C261      1.0  0.48116  0.26992  0.38503  1.0000
  C   C262      1.0  0.34661  0.30428  0.49103  1.0000
  C   C263      1.0  0.48262  0.27594  0.41258  1.0000
  H   H399      1.0  0.40380  0.48066  0.01700  1.0000
  C   C264      1.0  0.34445  0.41506  0.16316  1.0000
  C   C265      1.0  0.36461  0.40751  0.15196  1.0000
  C   C266      1.0  0.36450  0.39138  0.14511  1.0000
  C   C267      1.0  0.34434  0.38256  0.14945  1.0000
  C   C268      1.0  0.32422  0.39008  0.16083  1.0000
  C   C269      1.0  0.32429  0.40625  0.16753  1.0000
  H   H400      1.0  0.38027  0.41410  0.14850  1.0000
  H   H401      1.0  0.38018  0.38569  0.13633  1.0000
  H   H402      1.0  0.30857  0.38348  0.16428  1.0000
  H   H403      1.0  0.30858  0.41197  0.17618  1.0000
  C   C270      1.0  0.48145  0.45716  0.14299  1.0000
  C   C271      1.0  0.48355  0.45833  0.17249  1.0000
  H   H404      1.0  0.36067  0.44768  0.11539  1.0000
  H   H405      1.0  0.46429  0.45621  0.13351  1.0000
  C   C272      1.0  0.44346  0.49744  0.28621  1.0000
  C   C273      1.0  0.32689  0.26263  0.10546  1.0000
  H   H406      1.0  0.31499  0.27290  0.11058  1.0000
  H   H407      1.0  0.43183  0.48230  0.22142  1.0000
  H   H408      1.0  0.34264  0.25850  0.15886  1.0000
  H   H409      1.0  0.30825  0.44278  0.05219  1.0000
  H   H410      1.0  0.30884  0.29379  0.36649  1.0000
  H   H411      1.0  0.34336  0.27312  0.50195  1.0000
  H   H412      1.0  0.50112  0.26035  0.34973  1.0000
  N   N26       1.0  0.29887  0.27151  0.34975  1.0000
  H   H413      1.0  0.47484  0.48622  0.22752  1.0000
  C   C274      1.0  0.39548  0.49169  0.02359  1.0000
  C   C275      1.0  0.50206  0.26517  0.37093  1.0000
  H   H414      1.0  0.38403  0.25211  0.11797  1.0000
  H   H415      1.0  0.31097  0.30354  0.50637  1.0000
  H   H416      1.0  0.36794  0.27043  0.15531  1.0000
  C   C276      1.0  0.29686  0.28407  0.37136  1.0000
  H   H417      1.0  0.42841  0.47874  0.49627  1.0000
  H   H418      1.0  0.36963  0.44150  0.08056  1.0000
  H   H419      1.0  0.34292  0.47158  0.09238  1.0000
  C   C277      1.0  0.35169  0.26337  0.48943  1.0000
  H   H420      1.0  0.35295  0.48919  0.30870  1.0000
  H   H421      1.0  0.43346  0.47166  0.25427  1.0000
  H   H422      1.0  0.34991  0.46421  0.05782  1.0000
  H   H423      1.0  0.44555  0.48626  0.29839  1.0000
  H   H424      1.0  0.31240  0.43605  0.11684  1.0000
  C   C278      1.0  0.36108  0.27844  0.10070  1.0000
  H   H425      1.0  0.33774  0.25509  0.48380  1.0000
  H   H426      1.0  0.33911  0.27906  0.15121  1.0000
  C   C279      1.0  0.36547  0.49723  0.26799  1.0000
  C   C280      1.0  0.29245  0.27803  0.32160  1.0000
  H   H427      1.0  0.45714  0.48658  0.49314  1.0000
  N   N27       1.0  0.33284  0.44778  0.08519  1.0000
  H   H428      1.0  0.36038  0.48680  0.25678  1.0000
  H   H429      1.0  0.35036  0.28943  0.10426  1.0000
  C   C281      1.0  0.31490  0.44805  0.10799  1.0000
  H   H430      1.0  0.28725  0.25373  0.37856  1.0000
  C   C282      1.0  0.35018  0.26833  0.14661  1.0000
  C   C283      1.0  0.35515  0.44105  0.09647  1.0000
  H   H431      1.0  0.29762  0.45274  0.10027  1.0000
  C   C284      1.0  0.33646  0.46398  0.07505  1.0000
  C   C285      1.0  0.43045  0.48357  0.24486  1.0000
  H   H432      1.0  0.35344  0.42861  0.10337  1.0000
  S   S119      1.0  0.39495  0.47815  0.07673  1.0000
  S   S120      1.0  0.41569  0.48738  0.15866  1.0000
  C   C286      1.0  0.47154  0.48844  0.25055  1.0000
  N   N28       1.0  0.36569  0.35104  0.22317  1.0000
  C   C287      1.0  0.34141  0.35778  0.22338  1.0000
  C   C288      1.0  0.37255  0.34647  0.25239  1.0000
  C   C289      1.0  0.38178  0.36290  0.21215  1.0000
  C   C290      1.0  0.36699  0.33701  0.20469  1.0000
  H   H433      1.0  0.33551  0.36106  0.20156  1.0000
  H   H434      1.0  0.33988  0.36860  0.23658  1.0000
  H   H435      1.0  0.32882  0.34925  0.23199  1.0000
  H   H436      1.0  0.37164  0.35673  0.26702  1.0000
  H   H437      1.0  0.36081  0.33744  0.26118  1.0000
  H   H438      1.0  0.40027  0.35826  0.21168  1.0000
  H   H439      1.0  0.38108  0.37375  0.22532  1.0000
  H   H440      1.0  0.37706  0.36647  0.19004  1.0000
  H   H441      1.0  0.38490  0.33137  0.20448  1.0000
  H   H442      1.0  0.36238  0.34005  0.18236  1.0000
  H   H443      1.0  0.35466  0.32799  0.21191  1.0000
  C   C291      1.0  0.50169  0.45671  0.12578  1.0000
  H   H444      1.0  0.50000  0.45543  0.10303  1.0000
  C   C292      1.0  0.28295  0.25878  0.35730  1.0000
  H   H445      1.0  0.39700  0.27099  0.48968  1.0000
  H   H446      1.0  0.41207  0.48745  0.24970  1.0000
  H   H447      1.0  0.27869  0.28925  0.37258  1.0000
  C   C293      1.0  0.32499  0.43799  0.06139  1.0000
  C   C294      1.0  0.32332  0.26517  0.34876  1.0000
  H   H448      1.0  0.33559  0.27422  0.34142  1.0000
  H   H449      1.0  0.31996  0.46959  0.06671  1.0000
  H   H450      1.0  0.32938  0.26115  0.37009  1.0000
  H   H451      1.0  0.32650  0.26123  0.08194  1.0000
  H   H452      1.0  0.32202  0.42571  0.06849  1.0000
  H   H453      1.0  0.27403  0.28281  0.32138  1.0000
  H   H454      1.0  0.39078  0.34133  0.25305  1.0000
  H   H455      1.0  0.36168  0.27648  0.07731  1.0000
  H   H456      1.0  0.30403  0.28780  0.31556  1.0000
  H   H457      1.0  0.33833  0.43740  0.04405  1.0000
  H   H458      1.0  0.35816  0.26846  0.46916  1.0000
  H   H459      1.0  0.46674  0.27964  0.42372  1.0000
  H   H460      1.0  0.26429  0.26305  0.35801  1.0000
  C   C295      1.0  0.32894  0.30577  0.51191  1.0000
  C   C296      1.0  0.36571  0.25067  0.11048  1.0000
  N   N29       1.0  0.44742  0.49486  0.25549  1.0000
  H   H461      1.0  0.47457  0.47698  0.26163  1.0000
  C   C297      1.0  0.38944  0.49392  0.05237  1.0000
  H   H462      1.0  0.29427  0.26891  0.30473  1.0000
  H   H463      1.0  0.32530  0.25500  0.33400  1.0000
  C   C298      1.0  0.50587  0.45952  0.18461  1.0000
  H   H464      1.0  0.38397  0.31363  0.02484  1.0000
  H   H465      1.0  0.31911  0.25211  0.11529  1.0000
  C   C299      1.0  0.44423  0.48192  0.50854  1.0000
  N   N30       1.0  0.37097  0.25539  0.50538  1.0000
  C   C300      1.0  0.38993  0.26651  0.51010  1.0000
  C   C301      1.0  0.36863  0.30659  0.02289  1.0000
  H   H466      1.0  0.28426  0.24891  0.34179  1.0000
  H   H467      1.0  0.48494  0.49664  0.25817  1.0000
  H   H468      1.0  0.36653  0.24786  0.08739  1.0000
  H   H469      1.0  0.31356  0.28155  0.01603  1.0000
  Fe  Fe61      1.0  0.38779  0.44974  0.65701  1.0000
  S   S121      1.0  0.35978  0.46910  0.66109  1.0000
  S   S122      1.0  0.38678  0.42299  0.66223  1.0000
  Fe  Fe62      1.0  0.42439  0.47256  0.63459  1.0000
  S   S123      1.0  0.45855  0.47657  0.61171  1.0000
  Fe  Fe63      1.0  0.38882  0.48353  0.67976  1.0000
  H   H470      1.0  0.43048  0.28192  0.95824  1.0000
  Fe  Fe64      1.0  0.37288  0.47735  0.61819  1.0000
  H   H471      1.0  0.49359  0.30722  0.94996  1.0000
  S   S124      1.0  0.41602  0.46362  0.67821  1.0000
  S   S125      1.0  0.39884  0.45721  0.61341  1.0000
  Fe  Fe65      1.0  0.30811  0.34704  0.65282  1.0000
  S   S126      1.0  0.34009  0.33380  0.63602  1.0000
  S   S127      1.0  0.30498  0.37360  0.66017  1.0000
  Fe  Fe66      1.0  0.28046  0.31660  0.66129  1.0000
  S   S128      1.0  0.31092  0.30166  0.64548  1.0000
  Fe  Fe67      1.0  0.33326  0.31694  0.67216  1.0000
  S   S129      1.0  0.36195  0.30649  0.70070  1.0000
  Fe  Fe68      1.0  0.31435  0.31972  0.61108  1.0000
  S   S130      1.0  0.31149  0.31138  0.56531  1.0000
  S   S131      1.0  0.30271  0.33090  0.69014  1.0000
  S   S132      1.0  0.28254  0.33406  0.62565  1.0000
  Fe  Fe69      1.0  0.41764  0.27284  0.88325  1.0000
  S   S133      1.0  0.40120  0.29670  0.89254  1.0000
  S   S134      1.0  0.45606  0.27385  0.86854  1.0000
  H   H472      1.0  0.46157  0.48916  0.86626  1.0000
  S   S135      1.0  0.35122  0.28013  0.90357  1.0000
  Fe  Fe70      1.0  0.37084  0.28960  0.86592  1.0000
  S   S136      1.0  0.34978  0.30514  0.83517  1.0000
  Fe  Fe71      1.0  0.38342  0.28494  0.92918  1.0000
  S   S137      1.0  0.38758  0.29733  0.97162  1.0000
  S   S138      1.0  0.38814  0.26657  0.85383  1.0000
  N   N31       1.0  0.31840  0.25929  0.81427  1.0000
  C   C302      1.0  0.33436  0.31021  0.53981  1.0000
  C   C303      1.0  0.35762  0.31321  0.54668  1.0000
  C   C304      1.0  0.35766  0.49712  0.79179  1.0000
  C   C305      1.0  0.36569  0.29744  0.99840  1.0000
  C   C306      1.0  0.31756  0.26669  0.84261  1.0000
  H   H473      1.0  0.33813  0.45456  0.60872  1.0000
  H   H474      1.0  0.36200  0.31667  0.56806  1.0000
  H   H475      1.0  0.34332  0.28132  0.97732  1.0000
  H   H476      1.0  0.42816  0.47611  0.56129  1.0000
  H   H477      1.0  0.27900  0.29138  0.59353  1.0000
  C   C307      1.0  0.35793  0.30533  0.73799  1.0000
  C   C308      1.0  0.37605  0.29888  0.75506  1.0000
  C   C309      1.0  0.37370  0.29844  0.78487  1.0000
  C   C310      1.0  0.35332  0.30469  0.79784  1.0000
  C   C311      1.0  0.33518  0.31103  0.78078  1.0000
  C   C312      1.0  0.33733  0.31116  0.75102  1.0000
  H   H478      1.0  0.39205  0.29432  0.74519  1.0000
  H   H479      1.0  0.38785  0.29357  0.79781  1.0000
  H   H480      1.0  0.31931  0.31581  0.79065  1.0000
  H   H481      1.0  0.32307  0.31583  0.73823  1.0000
  C   C313      1.0  0.48395  0.26889  0.88381  1.0000
  C   C314      1.0  0.37531  0.31170  0.52576  1.0000
  H   H482      1.0  0.39863  0.48943  0.84538  1.0000
  C   C315      1.0  0.34575  0.28843  0.99604  1.0000
  C   C316      1.0  0.36349  0.40971  0.66055  1.0000
  C   C317      1.0  0.34025  0.41424  0.66709  1.0000
  C   C318      1.0  0.32252  0.40309  0.66634  1.0000
  C   C319      1.0  0.32774  0.38733  0.65897  1.0000
  C   C320      1.0  0.35090  0.38288  0.65194  1.0000
  C   C321      1.0  0.36868  0.39396  0.65309  1.0000
  H   H483      1.0  0.33605  0.42623  0.67345  1.0000
  H   H484      1.0  0.30468  0.40665  0.67198  1.0000
  H   H485      1.0  0.35519  0.37088  0.64576  1.0000
  H   H486      1.0  0.38659  0.39033  0.64796  1.0000
  H   H487      1.0  0.36587  0.33894  0.75574  1.0000
  C   C322      1.0  0.48464  0.47228  0.63047  1.0000
  C   C323      1.0  0.48427  0.46435  0.65648  1.0000
  S   S139      1.0  0.35254  0.48101  0.57698  1.0000
  H   H488      1.0  0.46779  0.46079  0.66540  1.0000
  H   H489      1.0  0.32995  0.26059  0.85744  1.0000
  H   H490      1.0  0.44862  0.30597  0.91390  1.0000
  H   H491      1.0  0.36028  0.42845  0.55005  1.0000
  H   H492      1.0  0.40454  0.48379  0.53955  1.0000
  H   H493      1.0  0.31979  0.44010  0.62416  1.0000
  C   C324      1.0  0.35568  0.49488  0.52412  1.0000
  H   H494      1.0  0.35119  0.43765  0.62583  1.0000
  N   N32       1.0  0.43520  0.48800  0.83376  1.0000
  H   H495      1.0  0.44858  0.27852  0.92772  1.0000
  N   N33       1.0  0.45968  0.29713  0.95470  1.0000
  Fe  Fe72      1.0  0.36981  0.25724  0.89260  1.0000
  C   C325      1.0  0.44895  0.28175  0.95055  1.0000
  C   C326      1.0  0.48473  0.29596  0.94639  1.0000
  H   H496      1.0  0.48677  0.29303  0.92345  1.0000
  H   H497      1.0  0.40947  0.47009  0.83583  1.0000
  H   H498      1.0  0.36314  0.44732  0.56654  1.0000
  H   H499      1.0  0.32558  0.36396  0.76237  1.0000
  H   H500      1.0  0.38808  0.35249  0.74670  1.0000
  H   H501      1.0  0.40423  0.48469  0.80879  1.0000
  H   H502      1.0  0.34428  0.35640  0.68840  1.0000
  C   C327      1.0  0.50535  0.46091  0.67091  1.0000
  H   H503      1.0  0.43211  0.49210  0.87870  1.0000
  H   H504      1.0  0.35324  0.33863  0.70620  1.0000
  C   C328      1.0  0.50415  0.27533  0.87184  1.0000
  C   C329      1.0  0.45753  0.30167  0.98490  1.0000
  H   H505      1.0  0.41587  0.49539  0.56783  1.0000
  H   H506      1.0  0.26186  0.27406  0.59317  1.0000
  H   H507      1.0  0.32044  0.45259  0.56203  1.0000
  H   H508      1.0  0.31328  0.25620  0.90879  1.0000
  C   C330      1.0  0.34288  0.25865  0.80372  1.0000
  H   H509      1.0  0.31728  0.43374  0.54558  1.0000
  H   H510      1.0  0.45053  0.46617  0.81835  1.0000
  H   H511      1.0  0.43871  0.30268  0.99160  1.0000
  N   N34       1.0  0.33650  0.43314  0.58484  1.0000
  H   H512      1.0  0.33196  0.40951  0.57006  1.0000
  C   C331      1.0  0.33247  0.41631  0.59019  1.0000
  H   H513      1.0  0.27107  0.29576  0.54255  1.0000
  H   H514      1.0  0.34653  0.38218  0.71413  1.0000
  H   H515      1.0  0.34471  0.48968  0.80120  1.0000
  H   H516      1.0  0.27012  0.25401  0.91200  1.0000
  N   N35       1.0  0.35342  0.35928  0.73222  1.0000
  H   H517      1.0  0.45485  0.32089  0.93951  1.0000
  C   C332      1.0  0.48657  0.25896  0.90744  1.0000
  H   H518      1.0  0.46918  0.48272  0.81544  1.0000
  H   H519      1.0  0.45870  0.27216  0.96208  1.0000
  C   C333      1.0  0.44736  0.30910  0.93687  1.0000
  H   H520      1.0  0.35767  0.48508  0.75120  1.0000
  H   H521      1.0  0.34840  0.48419  0.51611  1.0000
  H   H522      1.0  0.31560  0.41463  0.60165  1.0000
  N   N36       1.0  0.43813  0.49359  0.53083  1.0000
  H   H523      1.0  0.44276  0.47267  0.86926  1.0000
  C   C334      1.0  0.44326  0.48530  0.86324  1.0000
  H   H524      1.0  0.31629  0.36322  0.72591  1.0000
  H   H525      1.0  0.42834  0.31019  0.94243  1.0000
  S   S140      1.0  0.40108  0.26122  0.92105  1.0000
  C   C335      1.0  0.32881  0.35792  0.74172  1.0000
  H   H526      1.0  0.34668  0.41086  0.60351  1.0000
  H   H527      1.0  0.30362  0.26346  0.77284  1.0000
  H   H528      1.0  0.39330  0.31399  0.53122  1.0000
  C   C336      1.0  0.30351  0.26870  0.79448  1.0000
  C   C337      1.0  0.33636  0.44172  0.61209  1.0000
  C   C338      1.0  0.35951  0.43474  0.57073  1.0000
  C   C339      1.0  0.42091  0.48692  0.55067  1.0000
  H   H529      1.0  0.36729  0.35718  0.77459  1.0000
  C   C340      1.0  0.35662  0.35137  0.70452  1.0000
  H   H530      1.0  0.35436  0.25101  0.81748  1.0000
  H   H531      1.0  0.47134  0.25360  0.91654  1.0000
  H   H532      1.0  0.37478  0.35242  0.69617  1.0000
  C   C341      1.0  0.31774  0.43988  0.56641  1.0000
  H   H533      1.0  0.32427  0.34539  0.74453  1.0000
  H   H534      1.0  0.29970  0.26642  0.85221  1.0000
  H   H535      1.0  0.30987  0.28090  0.79238  1.0000
  H   H536      1.0  0.30016  0.43898  0.57655  1.0000
  H   H537      1.0  0.46539  0.31324  0.98891  1.0000
  C   C342      1.0  0.36937  0.35169  0.75327  1.0000
  C   C343      1.0  0.36502  0.49445  0.76346  1.0000
  H   H538      1.0  0.37408  0.42983  0.58420  1.0000
  C   C344      1.0  0.35879  0.37608  0.72923  1.0000
  H   H539      1.0  0.37691  0.37758  0.72097  1.0000
  H   H540      1.0  0.35720  0.38235  0.74989  1.0000
  H   H541      1.0  0.49448  0.28659  0.95854  1.0000
  H   H542      1.0  0.46645  0.29280  0.99894  1.0000
  H   H543      1.0  0.28499  0.26959  0.80204  1.0000
  C   C345      1.0  0.45068  0.47902  0.81389  1.0000
  H   H544      1.0  0.44498  0.48081  0.79144  1.0000
  H   H545      1.0  0.35505  0.26008  0.54607  1.0000
  H   H546      1.0  0.35041  0.27056  0.80342  1.0000
  C   C346      1.0  0.26089  0.28705  0.59586  1.0000
  C   C347      1.0  0.41085  0.48281  0.83082  1.0000
  C   C348      1.0  0.35955  0.49650  0.55347  1.0000
  H   H547      1.0  0.32253  0.27918  0.84167  1.0000
  H   H548      1.0  0.46830  0.48678  0.55584  1.0000
  H   H549      1.0  0.40491  0.26094  0.52192  1.0000
  H   H550      1.0  0.38353  0.27700  0.52237  1.0000
  H   H551      1.0  0.26136  0.31693  0.57637  1.0000
  H   H552      1.0  0.34410  0.25387  0.78177  1.0000
  H   H553      1.0  0.50240  0.28295  0.85348  1.0000
  S   S141      1.0  0.39914  0.49323  0.63686  1.0000
  C   C349      1.0  0.50615  0.47676  0.61894  1.0000
  H   H554      1.0  0.45199  0.47089  0.51790  1.0000
  H   H555      1.0  0.50499  0.45474  0.69101  1.0000
  H   H556      1.0  0.50650  0.48289  0.59882  1.0000
  C   C350      1.0  0.36198  0.24999  0.53308  1.0000
  C   C351      1.0  0.45951  0.49751  0.54662  1.0000
  Fe  Fe73      1.0  0.29162  0.70380  0.39487  1.0000
  S   S142      1.0  0.32643  0.71466  0.38641  1.0000
  Fe  Fe74      1.0  0.31569  0.67109  0.40169  1.0000
  S   S143      1.0  0.35153  0.68008  0.39392  1.0000
  S   S144      1.0  0.31190  0.64540  0.41487  1.0000
  Fe  Fe75      1.0  0.34047  0.70006  0.42242  1.0000
  S   S145      1.0  0.36765  0.71108  0.45048  1.0000
  Fe  Fe76      1.0  0.33484  0.69408  0.35840  1.0000
  S   S146      1.0  0.35924  0.69665  0.32058  1.0000
  S   S147      1.0  0.30549  0.69035  0.43314  1.0000
  S   S148      1.0  0.29917  0.68381  0.36391  1.0000
  Fe  Fe77      1.0  0.35436  0.73610  0.16897  1.0000
  S   S149      1.0  0.32927  0.72781  0.20287  1.0000
  Fe  Fe78      1.0  0.36693  0.72802  0.10747  1.0000
  S   S150      1.0  0.35904  0.70745  0.07872  1.0000
  H   H557      1.0  0.44042  0.51351  0.50267  1.0000
  C   C352      1.0  0.50333  0.56417  0.40650  1.0000
  S   S151      1.0  0.38409  0.72196  0.14936  1.0000
  H   H558      1.0  0.45599  0.50588  0.29508  1.0000
  Fe  Fe79      1.0  0.38839  0.56336  0.39838  1.0000
  S   S152      1.0  0.35927  0.54738  0.41031  1.0000
  S   S153      1.0  0.38436  0.58893  0.38313  1.0000
  Fe  Fe80      1.0  0.42598  0.53663  0.40422  1.0000
  S   S154      1.0  0.39946  0.51900  0.41667  1.0000
  S   S155      1.0  0.46277  0.52610  0.40035  1.0000
  Fe  Fe81      1.0  0.37784  0.52972  0.38114  1.0000
  S   S156      1.0  0.36022  0.51383  0.34914  1.0000
  Fe  Fe82      1.0  0.38390  0.53804  0.44454  1.0000
  H   H559      1.0  0.34060  0.57287  0.37254  1.0000
  S   S157      1.0  0.40532  0.54618  0.36720  1.0000
  S   S158      1.0  0.41204  0.55520  0.43411  1.0000
  S   S159      1.0  0.26441  0.72426  0.39581  1.0000
  C   C353      1.0  0.36764  0.51209  0.31248  1.0000
  H   H560      1.0  0.31075  0.57478  0.36079  1.0000
  C   C354      1.0  0.37977  0.73248  0.34323  1.0000
  H   H561      1.0  0.35699  0.73531  0.04240  1.0000
  C   C355      1.0  0.33220  0.65609  0.49077  1.0000
  H   H562      1.0  0.50115  0.57645  0.41219  1.0000
  H   H563      1.0  0.32103  0.65205  0.47301  1.0000
  H   H564      1.0  0.36727  0.73384  0.39833  1.0000
  H   H565      1.0  0.38063  0.63312  0.47541  1.0000
  S   S160      1.0  0.37768  0.53677  0.49249  1.0000
  H   H566      1.0  0.36142  0.72880  0.34681  1.0000
  C   C356      1.0  0.34795  0.70271  0.50193  1.0000
  H   H567      1.0  0.34519  0.54652  0.34989  1.0000
  C   C357      1.0  0.48653  0.53868  0.39928  1.0000
  C   C358      1.0  0.48368  0.55464  0.40594  1.0000
  H   H568      1.0  0.39600  0.72480  0.49340  1.0000
  H   H569      1.0  0.46643  0.55958  0.41104  1.0000
  C   C359      1.0  0.33226  0.62982  0.40600  1.0000
  C   C360      1.0  0.32925  0.61474  0.41757  1.0000
  C   C361      1.0  0.34527  0.60215  0.41140  1.0000
  C   C362      1.0  0.36434  0.60447  0.39323  1.0000
  C   C363      1.0  0.36730  0.61954  0.38168  1.0000
  C   C364      1.0  0.35149  0.63216  0.38814  1.0000
  H   H570      1.0  0.31445  0.61279  0.43145  1.0000
  H   H571      1.0  0.34274  0.59065  0.42051  1.0000
  H   H572      1.0  0.38194  0.62146  0.36753  1.0000
  H   H573      1.0  0.35404  0.64364  0.37896  1.0000
  C   C365      1.0  0.36558  0.71076  0.48795  1.0000
  C   C366      1.0  0.34764  0.69724  0.02524  1.0000
  H   H574      1.0  0.37379  0.51014  0.08250  1.0000
  C   C367      1.0  0.35284  0.71027  0.04215  1.0000
  H   H575      1.0  0.37712  0.70763  0.37798  1.0000
  C   C368      1.0  0.37863  0.50825  0.06051  1.0000
  H   H576      1.0  0.37577  0.58327  0.02298  1.0000
  H   H577      1.0  0.35387  0.65724  0.44000  1.0000
  H   H578      1.0  0.38292  0.65951  0.45336  1.0000
  H   H579      1.0  0.33479  0.69691  0.48971  1.0000
  C   C369      1.0  0.35067  0.70593  0.28848  1.0000
  C   C370      1.0  0.32721  0.71010  0.28288  1.0000
  C   C371      1.0  0.32098  0.71701  0.25667  1.0000
  C   C372      1.0  0.33817  0.72005  0.23611  1.0000
  C   C373      1.0  0.36170  0.71612  0.24189  1.0000
  C   C374      1.0  0.36788  0.70898  0.26793  1.0000
  H   H580      1.0  0.31382  0.70778  0.29855  1.0000
  H   H581      1.0  0.30274  0.72000  0.25230  1.0000
  H   H582      1.0  0.37508  0.71840  0.22619  1.0000
  H   H583      1.0  0.38608  0.70575  0.27211  1.0000
  H   H584      1.0  0.49589  0.74646  0.08154  1.0000
  C   C375      1.0  0.36188  0.63591  0.48064  1.0000
  C   C376      1.0  0.36397  0.66142  0.45853  1.0000
  H   H585      1.0  0.35121  0.63138  0.46284  1.0000
  S   S161      1.0  0.33611  0.74079  0.12745  1.0000
  N   N37       1.0  0.33578  0.56806  0.32821  1.0000
  C   C377      1.0  0.32925  0.57670  0.35445  1.0000
  C   C378      1.0  0.36042  0.57112  0.32072  1.0000
  C   C379      1.0  0.32023  0.57342  0.30481  1.0000
  C   C380      1.0  0.33325  0.55101  0.33286  1.0000
  H   H586      1.0  0.42535  0.50231  0.29049  1.0000
  H   H587      1.0  0.33140  0.58959  0.35193  1.0000
  H   H588      1.0  0.37257  0.56720  0.33796  1.0000
  H   H589      1.0  0.36605  0.56479  0.30105  1.0000
  H   H590      1.0  0.36315  0.58390  0.31759  1.0000
  H   H591      1.0  0.32474  0.56712  0.28468  1.0000
  H   H592      1.0  0.32172  0.58625  0.30081  1.0000
  H   H593      1.0  0.30151  0.57124  0.30977  1.0000
  H   H594      1.0  0.33764  0.54408  0.31341  1.0000
  H   H595      1.0  0.31507  0.54821  0.33932  1.0000
  N   N38       1.0  0.39483  0.72876  0.36804  1.0000
  N   N39       1.0  0.33906  0.68463  0.15804  1.0000
  C   C381      1.0  0.32589  0.69870  0.14741  1.0000
  C   C382      1.0  0.32301  0.67144  0.16055  1.0000
  C   C383      1.0  0.34901  0.68806  0.18625  1.0000
  C   C384      1.0  0.35824  0.68038  0.13793  1.0000
  H   H596      1.0  0.33752  0.70882  0.14541  1.0000
  H   H597      1.0  0.31140  0.70242  0.16213  1.0000
  H   H598      1.0  0.35732  0.62912  0.49999  1.0000
  H   H599      1.0  0.30831  0.67434  0.17554  1.0000
  S   S162      1.0  0.37983  0.50884  0.21550  1.0000
  H   H600      1.0  0.33235  0.66063  0.16861  1.0000
  H   H601      1.0  0.40602  0.70838  0.39238  1.0000
  C   C385      1.0  0.38227  0.71857  0.50405  1.0000
  C   C386      1.0  0.36131  0.49861  0.29747  1.0000
  H   H602      1.0  0.36857  0.66978  0.14509  1.0000
  H   H603      1.0  0.37068  0.69010  0.13550  1.0000
  H   H604      1.0  0.35137  0.67805  0.11627  1.0000
  H   H605      1.0  0.40182  0.70480  0.35494  1.0000
  C   C387      1.0  0.47097  0.74630  0.11627  1.0000
  H   H606      1.0  0.34517  0.57941  0.02788  1.0000
  C   C388      1.0  0.38551  0.73724  0.39329  1.0000
  H   H607      1.0  0.36092  0.69813  0.18525  1.0000
  C   C389      1.0  0.37381  0.52009  0.04003  1.0000
  H   H608      1.0  0.31517  0.66859  0.13963  1.0000
  H   H609      1.0  0.38930  0.53271  0.25658  1.0000
  C   C390      1.0  0.39509  0.71165  0.37359  1.0000
  H   H610      1.0  0.35926  0.67779  0.19497  1.0000
  H   H611      1.0  0.39069  0.65628  0.50486  1.0000
  Fe  Fe83      1.0  0.40242  0.74484  0.14463  1.0000
  N   N40       1.0  0.35742  0.65299  0.48469  1.0000
  H   H612      1.0  0.32657  0.64987  0.51032  1.0000
  H   H613      1.0  0.42598  0.51495  0.24299  1.0000
  H   H614      1.0  0.35834  0.50561  0.48245  1.0000
  C   C391      1.0  0.37158  0.65856  0.50868  1.0000
  H   H615      1.0  0.34754  0.68565  0.03471  1.0000
  H   H616      1.0  0.39620  0.73445  0.41254  1.0000
  H   H617      1.0  0.38331  0.53464  0.30882  1.0000
  C   C392      1.0  0.36126  0.50700  0.50498  1.0000
  C   C393      1.0  0.35296  0.72519  0.02965  1.0000
  C   C394      1.0  0.38170  0.52307  0.26797  1.0000
  H   H618      1.0  0.36524  0.53104  0.04656  1.0000
  C   C395      1.0  0.37830  0.52421  0.29762  1.0000
  H   H619      1.0  0.36045  0.67434  0.46051  1.0000
  H   H620      1.0  0.31839  0.69671  0.12597  1.0000
  C   C396      1.0  0.46787  0.74722  0.14573  1.0000
  H   H621      1.0  0.33498  0.69135  0.20191  1.0000
  C   C397      1.0  0.37535  0.50957  0.25296  1.0000
  C   C398      1.0  0.49370  0.74699  0.10436  1.0000
  H   H622      1.0  0.32812  0.66886  0.49372  1.0000
  C   C399      1.0  0.41900  0.73361  0.36207  1.0000
  H   H623      1.0  0.41202  0.50536  0.50482  1.0000
  H   H624      1.0  0.38621  0.72617  0.32384  1.0000
  H   H625      1.0  0.36884  0.67145  0.51200  1.0000
  H   H626      1.0  0.45591  0.74517  0.10262  1.0000
  H   H627      1.0  0.42650  0.72735  0.34316  1.0000
  H   H628      1.0  0.44680  0.50835  0.21680  1.0000
  H   H629      1.0  0.45653  0.51881  0.24759  1.0000
  H   H630      1.0  0.43084  0.73094  0.38036  1.0000
  H   H631      1.0  0.32558  0.74208  0.50798  1.0000
  H   H632      1.0  0.37902  0.74528  0.33839  1.0000
  C   C400      1.0  0.44411  0.50993  0.24009  1.0000
  H   H633      1.0  0.41948  0.74646  0.35771  1.0000
  C   C401      1.0  0.37013  0.52104  0.51519  1.0000
  H   H634      1.0  0.36525  0.56403  0.01601  1.0000
  Fe  Fe84      1.0  0.28838  0.69506  0.87217  1.0000
  S   S163      1.0  0.32138  0.70862  0.87142  1.0000
  Fe  Fe85      1.0  0.31509  0.66558  0.89545  1.0000
  S   S164      1.0  0.34966  0.67759  0.89681  1.0000
  S   S165      1.0  0.31030  0.63989  0.90783  1.0000
  Fe  Fe86      1.0  0.32843  0.69822  0.91471  1.0000
  S   S166      1.0  0.33751  0.71700  0.94689  1.0000
  Fe  Fe87      1.0  0.33920  0.68703  0.85366  1.0000
  S   S167      1.0  0.36248  0.68574  0.81440  1.0000
  S   S168      1.0  0.29432  0.68572  0.91641  1.0000
  S   S169      1.0  0.30585  0.67389  0.85136  1.0000
  H   H635      1.0  0.26666  0.71692  0.91141  1.0000
  H   H636      1.0  0.31399  0.68530  0.78817  1.0000
  Fe  Fe88      1.0  0.37788  0.72769  0.61420  1.0000
  S   S170      1.0  0.36255  0.70916  0.58545  1.0000
  H   H637      1.0  0.37440  0.58061  0.94416  1.0000
  H   H638      1.0  0.34058  0.55944  0.97405  1.0000
  S   S171      1.0  0.39819  0.72269  0.65451  1.0000
  H   H639      1.0  0.27286  0.73641  0.89981  1.0000
  Fe  Fe89      1.0  0.38959  0.55971  0.89465  1.0000
  S   S172      1.0  0.36001  0.54427  0.90667  1.0000
  S   S173      1.0  0.38742  0.58551  0.88185  1.0000
  Fe  Fe90      1.0  0.42573  0.53226  0.89752  1.0000
  S   S174      1.0  0.39878  0.51492  0.91029  1.0000
  S   S175      1.0  0.46226  0.52263  0.88842  1.0000
  Fe  Fe91      1.0  0.37687  0.52671  0.87615  1.0000
  H   H640      1.0  0.47248  0.50326  0.53271  1.0000
  Fe  Fe92      1.0  0.38498  0.53395  0.93968  1.0000
  C   C402      1.0  0.45752  0.73599  0.74522  1.0000
  S   S176      1.0  0.40462  0.54289  0.86196  1.0000
  S   S177      1.0  0.41379  0.55054  0.92906  1.0000
  C   C403      1.0  0.38146  0.50416  0.75089  1.0000
  H   H641      1.0  0.40537  0.72589  0.71754  1.0000
  C   C404      1.0  0.34284  0.69907  0.99603  1.0000
  H   H642      1.0  0.45397  0.50941  0.83000  1.0000
  C   C405      1.0  0.38363  0.51884  0.79551  1.0000
  H   H643      1.0  0.40330  0.52396  0.75752  1.0000
  H   H644      1.0  0.39104  0.52817  0.80764  1.0000
  N   N41       1.0  0.28453  0.69910  0.77205  1.0000
  C   C406      1.0  0.27525  0.70449  0.74429  1.0000
  H   H645      1.0  0.27405  0.72019  0.79462  1.0000
  H   H646      1.0  0.34984  0.54809  0.78144  1.0000
  H   H647      1.0  0.42831  0.71264  0.73006  1.0000
  H   H648      1.0  0.36450  0.60558  0.99090  1.0000
  H   H649      1.0  0.35047  0.58992  0.83173  1.0000
  C   C407      1.0  0.48523  0.53466  0.89869  1.0000
  C   C408      1.0  0.48105  0.55052  0.90542  1.0000
  H   H650      1.0  0.31916  0.73024  0.53835  1.0000
  H   H651      1.0  0.46336  0.55554  0.90501  1.0000
  C   C409      1.0  0.33166  0.62482  0.89991  1.0000
  C   C410      1.0  0.32659  0.60901  0.90538  1.0000
  C   C411      1.0  0.34339  0.59679  0.89989  1.0000
  C   C412      1.0  0.36552  0.60031  0.88917  1.0000
  C   C413      1.0  0.37042  0.61606  0.88330  1.0000
  C   C414      1.0  0.35362  0.62825  0.88864  1.0000
  H   H652      1.0  0.30952  0.60624  0.91379  1.0000
  H   H653      1.0  0.33916  0.58468  0.90367  1.0000
  H   H654      1.0  0.38741  0.61891  0.87476  1.0000
  H   H655      1.0  0.35776  0.64033  0.88422  1.0000
  C   C415      1.0  0.34328  0.71397  0.98349  1.0000
  H   H656      1.0  0.46384  0.72419  0.75278  1.0000
  H   H657      1.0  0.46628  0.73820  0.72441  1.0000
  C   C416      1.0  0.36411  0.70996  0.54795  1.0000
  C   C417      1.0  0.30609  0.68922  0.76759  1.0000
  S   S178      1.0  0.35031  0.74248  0.63686  1.0000
  N   N42       1.0  0.35612  0.58139  0.98428  1.0000
  H   H658      1.0  0.39453  0.72422  0.54612  1.0000
  C   C418      1.0  0.37733  0.57783  0.96703  1.0000
  C   C419      1.0  0.36883  0.51041  0.56353  1.0000
  C   C420      1.0  0.36129  0.70074  0.78848  1.0000
  C   C421      1.0  0.35119  0.71557  0.79445  1.0000
  C   C422      1.0  0.34985  0.72716  0.77315  1.0000
  C   C423      1.0  0.35833  0.72399  0.74565  1.0000
  C   C424      1.0  0.36842  0.70915  0.73961  1.0000
  C   C425      1.0  0.37013  0.69762  0.76108  1.0000
  H   H659      1.0  0.34459  0.71815  0.81555  1.0000
  H   H660      1.0  0.34219  0.73866  0.77803  1.0000
  H   H661      1.0  0.37473  0.70648  0.71839  1.0000
  H   H662      1.0  0.37790  0.68613  0.75633  1.0000
  H   H663      1.0  0.40102  0.73470  0.76858  1.0000
  H   H664      1.0  0.34609  0.56699  0.76461  1.0000
  C   C426      1.0  0.34796  0.55847  0.83512  1.0000
  H   H665      1.0  0.29820  0.70924  0.81008  1.0000
  H   H666      1.0  0.27087  0.69438  0.73056  1.0000
  H   H667      1.0  0.29032  0.71683  0.96788  1.0000
  H   H668      1.0  0.25902  0.71202  0.74696  1.0000
  C   C427      1.0  0.37863  0.56863  0.80550  1.0000
  C   C428      1.0  0.27615  0.72764  0.91705  1.0000
  H   H669      1.0  0.49667  0.57234  0.91703  1.0000
  C   C429      1.0  0.39094  0.50359  0.00320  1.0000
  H   H670      1.0  0.37170  0.51188  0.58606  1.0000
  H   H671      1.0  0.26634  0.72532  0.98810  1.0000
  H   H672      1.0  0.43067  0.50739  0.80470  1.0000
  H   H673      1.0  0.30254  0.67847  0.75513  1.0000
  S   S179      1.0  0.35603  0.73908  0.71994  1.0000
  C   C430      1.0  0.36700  0.50929  0.80800  1.0000
  H   H674      1.0  0.29521  0.72441  0.91682  1.0000
  C   C431      1.0  0.42448  0.72474  0.72197  1.0000
  H   H675      1.0  0.38709  0.57408  0.82419  1.0000
  H   H676      1.0  0.34867  0.73857  0.99093  1.0000
  H   H677      1.0  0.38051  0.53350  0.55267  1.0000
  Fe  Fe93      1.0  0.37247  0.73942  0.67585  1.0000
  C   C432      1.0  0.34744  0.70212  0.53182  1.0000
  C   C433      1.0  0.36076  0.57687  0.01413  1.0000
  C   C434      1.0  0.43601  0.50494  0.82703  1.0000
  H   H678      1.0  0.33233  0.57546  0.95094  1.0000
  H   H679      1.0  0.42404  0.51199  0.84119  1.0000
  C   C435      1.0  0.49993  0.56002  0.91222  1.0000
  C   C436      1.0  0.33640  0.57234  0.97336  1.0000
  S   S180      1.0  0.35762  0.51214  0.84372  1.0000
  H   H680      1.0  0.32317  0.55956  0.78671  1.0000
  S   S181      1.0  0.37297  0.53304  0.98614  1.0000
  C   C437      1.0  0.42053  0.73399  0.77020  1.0000
  H   H681      1.0  0.31969  0.69577  0.75594  1.0000
  H   H682      1.0  0.33389  0.60153  0.99491  1.0000
  C   C438      1.0  0.42786  0.50797  0.51746  1.0000
  H   H683      1.0  0.32340  0.58385  0.81657  1.0000
  H   H684      1.0  0.38303  0.57579  0.78653  1.0000
  C   C439      1.0  0.27166  0.72115  0.96658  1.0000
  C   C440      1.0  0.39062  0.51637  0.76710  1.0000
  H   H685      1.0  0.38696  0.55672  0.80260  1.0000
  C   C441      1.0  0.29011  0.71289  0.78948  1.0000
  H   H686      1.0  0.42246  0.51694  0.53363  1.0000
  C   C442      1.0  0.38148  0.71826  0.53393  1.0000
  H   H687      1.0  0.34695  0.60224  0.96021  1.0000
  C   C443      1.0  0.26672  0.68983  0.78685  1.0000
  H   H688      1.0  0.42546  0.72209  0.77866  1.0000
  H   H689      1.0  0.32014  0.57456  0.98609  1.0000
  N   N43       1.0  0.43168  0.73682  0.74234  1.0000
  H   H690      1.0  0.35545  0.56388  0.85441  1.0000
  H   H691      1.0  0.34601  0.59139  0.79410  1.0000
  C   C444      1.0  0.35008  0.59842  0.98256  1.0000
  C   C445      1.0  0.37994  0.51786  0.01125  1.0000
  H   H692      1.0  0.27318  0.68563  0.80790  1.0000
  H   H693      1.0  0.35551  0.54626  0.83332  1.0000
  H   H694      1.0  0.30261  0.72056  0.77840  1.0000
  S   S182      1.0  0.25835  0.70926  0.85144  1.0000
  H   H695      1.0  0.39251  0.58468  0.97416  1.0000
  H   H696      1.0  0.33388  0.69576  0.54255  1.0000
  H   H697      1.0  0.26103  0.71083  0.96130  1.0000
  C   C446      1.0  0.34821  0.72701  0.00047  1.0000
  H   H698      1.0  0.45528  0.50555  0.56473  1.0000
  H   H699      1.0  0.33908  0.68894  0.98319  1.0000
  H   H700      1.0  0.50280  0.73957  0.68304  1.0000
  C   C447      1.0  0.48486  0.74590  0.64417  1.0000
  N   N44       1.0  0.35295  0.56785  0.80950  1.0000
  C   C448      1.0  0.34255  0.56033  0.78445  1.0000
  C   C449      1.0  0.37373  0.52268  0.54455  1.0000
  H   H701      1.0  0.43376  0.72586  0.70128  1.0000
  C   C450      1.0  0.34272  0.58395  0.81306  1.0000
  H   H702      1.0  0.32875  0.55754  0.83875  1.0000
  H   H703      1.0  0.39572  0.50164  0.98120  1.0000
  H   H704      1.0  0.31520  0.74210  0.58579  1.0000
  H   H705      1.0  0.42568  0.74281  0.78622  1.0000
  H   H706      1.0  0.38264  0.56516  0.96866  1.0000
  H   H707      1.0  0.35400  0.74099  0.56486  1.0000
  S   S183      1.0  0.39085  0.50205  0.71503  1.0000
  N   N45       1.0  0.26865  0.73376  0.94509  1.0000
  H   H708      1.0  0.28833  0.71152  0.73259  1.0000
  H   H709      1.0  0.26198  0.67933  0.77438  1.0000
  H   H710      1.0  0.30221  0.74340  0.95396  1.0000
  H   H711      1.0  0.29711  0.74380  0.52454  1.0000
  S   S184      1.0  0.45652  0.74383  0.65979  1.0000
  Fe  Fe94      1.0  0.41847  0.74428  0.64336  1.0000
  C   C451      1.0  0.31623  0.74213  0.52881  1.0000
  C   C452      1.0  0.50491  0.74312  0.66114  1.0000
  H   H712      1.0  0.36691  0.65260  0.52890  1.0000
  H   H713      1.0  0.46366  0.74492  0.76047  1.0000
  H   H714      1.0  0.50586  0.54189  0.80906  1.0000
  C   C453      1.0  0.28325  0.74712  0.95276  1.0000
  C   C454      1.0  0.43614  0.78065  0.11237  1.0000
  H   H715      1.0  0.43487  0.81162  0.10192  1.0000
  H   H716      1.0  0.42812  0.76910  0.11609  1.0000
  S   S185      1.0  0.34066  0.78530  0.10989  1.0000
  C   C455      1.0  0.31552  0.79233  0.12876  1.0000
  C   C456      1.0  0.30880  0.78532  0.15427  1.0000
  C   C457      1.0  0.28860  0.79097  0.16879  1.0000
  C   C458      1.0  0.27460  0.80341  0.15767  1.0000
  C   C459      1.0  0.28111  0.81030  0.13193  1.0000
  C   C460      1.0  0.30171  0.80493  0.11776  1.0000
  H   H717      1.0  0.31929  0.77564  0.16303  1.0000
  H   H718      1.0  0.45516  0.77906  0.11746  1.0000
  H   H719      1.0  0.38514  0.75019  0.39004  1.0000
  H   H720      1.0  0.30685  0.81046  0.09809  1.0000
  C   C461      1.0  0.42699  0.78884  0.16033  1.0000
  C   C462      1.0  0.39954  0.79471  0.12252  1.0000
  N   N46       1.0  0.42469  0.79310  0.12998  1.0000
  C   C463      1.0  0.43614  0.80814  0.12469  1.0000
  H   H721      1.0  0.41952  0.79825  0.17439  1.0000
  H   H722      1.0  0.39046  0.78353  0.12615  1.0000
  H   H723      1.0  0.39015  0.80387  0.13553  1.0000
  H   H724      1.0  0.41755  0.77794  0.16530  1.0000
  H   H725      1.0  0.39696  0.79786  0.09976  1.0000
  Fe  Fe95      1.0  0.35751  0.76219  0.12470  1.0000
  H   H726      1.0  0.42786  0.81783  0.13750  1.0000
  H   H727      1.0  0.43460  0.78331  0.08930  1.0000
  H   H728      1.0  0.44569  0.78649  0.16635  1.0000
  H   H729      1.0  0.45513  0.80728  0.13027  1.0000
  S   S186      1.0  0.37356  0.75868  0.16777  1.0000
  H   H730      1.0  0.28377  0.78563  0.18876  1.0000
  H   H731      1.0  0.27062  0.82002  0.12334  1.0000
  C   C464      1.0  0.26858  0.77507  0.09168  1.0000
  S   S187      1.0  0.38752  0.74994  0.10102  1.0000
  H   H732      1.0  0.27376  0.78665  0.08311  1.0000
  H   H733      1.0  0.27620  0.77386  0.11335  1.0000
  H   H734      1.0  0.27713  0.76577  0.07823  1.0000
  H   H735      1.0  0.32961  0.77109  0.51402  1.0000
  C   C465      1.0  0.48781  0.74848  0.16304  1.0000
  H   H736      1.0  0.48567  0.74918  0.18585  1.0000
  S   S188      1.0  0.43954  0.74771  0.16201  1.0000
  H   H737      1.0  0.47281  0.75269  0.60253  1.0000
  H   H738      1.0  0.35781  0.76167  0.56445  1.0000
  S   S189      1.0  0.39321  0.76081  0.66663  1.0000
  S   S190      1.0  0.35319  0.78371  0.60652  1.0000
  C   C466      1.0  0.32806  0.79202  0.62393  1.0000
  C   C467      1.0  0.30992  0.79923  0.60783  1.0000
  C   C468      1.0  0.29031  0.80664  0.62122  1.0000
  C   C469      1.0  0.28915  0.80742  0.65088  1.0000
  C   C470      1.0  0.30731  0.80021  0.66694  1.0000
  C   C471      1.0  0.32641  0.79226  0.65357  1.0000
  H   H739      1.0  0.31115  0.79933  0.58492  1.0000
  H   H740      1.0  0.27660  0.81230  0.60861  1.0000
  H   H741      1.0  0.30691  0.80103  0.68983  1.0000
  H   H742      1.0  0.34039  0.78693  0.66620  1.0000
  Fe  Fe96      1.0  0.37276  0.76263  0.62610  1.0000
  C   C472      1.0  0.31228  0.75376  0.57535  1.0000
  H   H743      1.0  0.29303  0.75587  0.57276  1.0000
  H   H744      1.0  0.26307  0.77316  0.72562  1.0000
  H   H745      1.0  0.42933  0.76202  0.74648  1.0000
  H   H746      1.0  0.40467  0.75358  0.72928  1.0000
  C   C473      1.0  0.48799  0.75047  0.61588  1.0000
  H   H747      1.0  0.31846  0.76280  0.59036  1.0000
  H   H748      1.0  0.36007  0.75087  0.53199  1.0000
  H   H749      1.0  0.32680  0.77964  0.54877  1.0000
  H   H750      1.0  0.28165  0.75672  0.93672  1.0000
  N   N47       1.0  0.32477  0.75448  0.54782  1.0000
  H   H751      1.0  0.30133  0.77260  0.53119  1.0000
  S   S191      1.0  0.26616  0.81803  0.66873  1.0000
  S   S192      1.0  0.39977  0.74805  0.60129  1.0000
  C   C474      1.0  0.32040  0.77013  0.53480  1.0000
  C   C475      1.0  0.42412  0.75257  0.73177  1.0000
  C   C476      1.0  0.35025  0.75187  0.55241  1.0000
  H   H752      1.0  0.27239  0.79203  0.71403  1.0000
  H   H753      1.0  0.27325  0.78711  0.75112  1.0000
  C   C477      1.0  0.26292  0.78585  0.73129  1.0000
  H   H754      1.0  0.43206  0.75503  0.71063  1.0000
  H   H755      1.0  0.27815  0.75209  0.97380  1.0000
  C   C478      1.0  0.72459  0.21723  0.39363  1.0000
  H   H756      1.0  0.69167  0.21044  0.37549  1.0000
  C   C479      1.0  0.68905  0.23420  0.39129  1.0000
  H   H757      1.0  0.73331  0.20589  0.39009  1.0000
  C   C480      1.0  0.70095  0.21981  0.38554  1.0000
  C   C481      1.0  0.73642  0.22904  0.40768  1.0000
  C   C482      1.0  0.67502  0.23742  0.46693  1.0000
  H   H758      1.0  0.66329  0.22836  0.47551  1.0000
  H   H759      1.0  0.71143  0.23347  0.50234  1.0000
  H   H760      1.0  0.69047  0.23114  0.45702  1.0000
  C   C483      1.0  0.72478  0.24364  0.41234  1.0000
  S   S193      1.0  0.65884  0.23664  0.38302  1.0000
  C   C484      1.0  0.69554  0.23964  0.51141  1.0000
  H   H761      1.0  0.66531  0.24366  0.44953  1.0000
  C   C485      1.0  0.70126  0.24625  0.40409  1.0000
  H   H762      1.0  0.70370  0.21839  0.85154  1.0000
  H   H763      1.0  0.61517  0.23258  0.90521  1.0000
  C   C486      1.0  0.68938  0.22556  0.89212  1.0000
  C   C487      1.0  0.69281  0.22507  0.92154  1.0000
  C   C488      1.0  0.71256  0.21683  0.93294  1.0000
  C   C489      1.0  0.72942  0.20942  0.91507  1.0000
  C   C490      1.0  0.72641  0.21044  0.88564  1.0000
  C   C491      1.0  0.70629  0.21822  0.87429  1.0000
  H   H764      1.0  0.60869  0.18964  0.90016  1.0000
  H   H765      1.0  0.71455  0.21599  0.95572  1.0000
  S   S194      1.0  0.75298  0.19809  0.93027  1.0000
  S   S195      1.0  0.66285  0.23328  0.87702  1.0000
  C   C492      1.0  0.61020  0.21305  0.86195  1.0000
  H   H766      1.0  0.61404  0.22523  0.85505  1.0000
  N   N48       1.0  0.59684  0.21308  0.88895  1.0000
  C   C493      1.0  0.59207  0.19675  0.89728  1.0000
  C   C494      1.0  0.61083  0.22044  0.91133  1.0000
  C   C495      1.0  0.57439  0.22212  0.88534  1.0000
  H   H767      1.0  0.56322  0.21690  0.86875  1.0000
  H   H768      1.0  0.62754  0.20669  0.86417  1.0000
  H   H769      1.0  0.58149  0.19083  0.88089  1.0000
  H   H770      1.0  0.62789  0.21393  0.91484  1.0000
  H   H771      1.0  0.58213  0.19641  0.91768  1.0000
  H   H772      1.0  0.60117  0.22117  0.93191  1.0000
  H   H773      1.0  0.57732  0.23451  0.87901  1.0000
  H   H774      1.0  0.56405  0.22268  0.90548  1.0000
  H   H775      1.0  0.60040  0.20745  0.84452  1.0000
  H   H776      1.0  0.67977  0.23044  0.93553  1.0000
  H   H777      1.0  0.73914  0.20472  0.87163  1.0000
  H   H778      1.0  0.75363  0.21447  0.98545  1.0000
  H   H779      1.0  0.68461  0.23058  0.52152  1.0000
  H   H780      1.0  0.70148  0.24764  0.52842  1.0000
  H   H781      1.0  0.69288  0.29401  0.30415  1.0000
  S   S196      1.0  0.61288  0.46573  0.10722  1.0000
  H   H782      1.0  0.67916  0.47393  0.23317  1.0000
  Fe  Fe97      1.0  0.60821  0.48072  0.18552  1.0000
  S   S197      1.0  0.60229  0.45544  0.17345  1.0000
  H   H783      1.0  0.55890  0.47908  0.06088  1.0000
  Fe  Fe98      1.0  0.63375  0.45767  0.14530  1.0000
  S   S198      1.0  0.66218  0.43846  0.13950  1.0000
  Fe  Fe99      1.0  0.58191  0.46544  0.13657  1.0000
  S   S199      1.0  0.54914  0.45683  0.11613  1.0000
  S   S200      1.0  0.64117  0.48246  0.15923  1.0000
  Fe  Fe100     1.0  0.67454  0.34276  0.15877  1.0000
  S   S201      1.0  0.65175  0.32158  0.16212  1.0000
  S   S202      1.0  0.65404  0.36567  0.16989  1.0000
  Fe  Fe101     1.0  0.71831  0.32185  0.14501  1.0000
  S   S203      1.0  0.69828  0.29987  0.14811  1.0000
  Fe  Fe102     1.0  0.67046  0.31278  0.12282  1.0000
  S   S204      1.0  0.65314  0.29760  0.08960  1.0000
  Fe  Fe103     1.0  0.68139  0.31047  0.18706  1.0000
  S   S205      1.0  0.67713  0.29331  0.22373  1.0000
  S   S206      1.0  0.69116  0.33461  0.11742  1.0000
  S   S207      1.0  0.70354  0.33187  0.18607  1.0000
  Fe  Fe104     1.0  0.62319  0.29140  0.37308  1.0000
  S   S208      1.0  0.60599  0.26810  0.37057  1.0000
  S   S209      1.0  0.62222  0.30965  0.33799  1.0000
  Fe  Fe105     1.0  0.63785  0.28639  0.43557  1.0000
  S   S210      1.0  0.62118  0.26291  0.43750  1.0000
  S   S211      1.0  0.66287  0.29554  0.46864  1.0000
  Fe  Fe106     1.0  0.63793  0.25893  0.39465  1.0000
  Fe  Fe107     1.0  0.59084  0.27449  0.41348  1.0000
  S   S212      1.0  0.55285  0.27450  0.42945  1.0000
  S   S213      1.0  0.65599  0.28180  0.39377  1.0000
  S   S214      1.0  0.60669  0.29837  0.41478  1.0000
  H   H784      1.0  0.57868  0.32036  0.37006  1.0000
  C   C496      1.0  0.52557  0.27235  0.41175  1.0000
  C   C497      1.0  0.69736  0.26041  0.47660  1.0000
  C   C498      1.0  0.59272  0.42338  0.08170  1.0000
  C   C499      1.0  0.65256  0.29986  0.05221  1.0000
  C   C500      1.0  0.61335  0.40145  0.10433  1.0000
  H   H785      1.0  0.70170  0.26964  0.49228  1.0000
  H   H786      1.0  0.74309  0.26588  0.31819  1.0000
  N   N49       1.0  0.54748  0.30949  0.35530  1.0000
  H   H787      1.0  0.52231  0.30203  0.38621  1.0000
  H   H788      1.0  0.63645  0.27758  0.04613  1.0000
  H   H789      1.0  0.66327  0.43278  0.21658  1.0000
  H   H790      1.0  0.56070  0.28792  0.37376  1.0000
  H   H791      1.0  0.64939  0.47566  0.22112  1.0000
  C   C501      1.0  0.65965  0.29820  0.25369  1.0000
  C   C502      1.0  0.65487  0.31382  0.26157  1.0000
  C   C503      1.0  0.64298  0.31723  0.28724  1.0000
  C   C504      1.0  0.63587  0.30505  0.30515  1.0000
  C   C505      1.0  0.63983  0.28945  0.29671  1.0000
  C   C506      1.0  0.65181  0.28604  0.27117  1.0000
  H   H792      1.0  0.66082  0.32328  0.24824  1.0000
  H   H793      1.0  0.63973  0.32934  0.29347  1.0000
  H   H794      1.0  0.63362  0.28000  0.30983  1.0000
  H   H795      1.0  0.65511  0.27393  0.26492  1.0000
  C   C507      1.0  0.66030  0.41831  0.14890  1.0000
  C   C508      1.0  0.64349  0.41319  0.16820  1.0000
  C   C509      1.0  0.64208  0.39706  0.17450  1.0000
  C   C510      1.0  0.65754  0.38585  0.16182  1.0000
  C   C511      1.0  0.67461  0.39099  0.14286  1.0000
  C   C512      1.0  0.67600  0.40716  0.13653  1.0000
  H   H796      1.0  0.63161  0.42163  0.17837  1.0000
  H   H797      1.0  0.62895  0.39318  0.18936  1.0000
  H   H798      1.0  0.68666  0.38251  0.13302  1.0000
  H   H799      1.0  0.68923  0.41100  0.12177  1.0000
  H   H800      1.0  0.67875  0.26016  0.30930  1.0000
  H   H801      1.0  0.66810  0.32255  0.05101  1.0000
  H   H802      1.0  0.68844  0.26657  0.45853  1.0000
  S   S215      1.0  0.60180  0.48590  0.23265  1.0000
  H   H803      1.0  0.54318  0.46036  0.17694  1.0000
  H   H804      1.0  0.65319  0.44988  0.19726  1.0000
  H   H805      1.0  0.56966  0.39636  0.08562  1.0000
  H   H806      1.0  0.63001  0.40792  0.10457  1.0000
  C   C513      1.0  0.52604  0.45947  0.16737  1.0000
  H   H807      1.0  0.59379  0.41352  0.15160  1.0000
  H   H808      1.0  0.71324  0.27439  0.37061  1.0000
  C   C514      1.0  0.66127  0.25632  0.50207  1.0000
  H   H809      1.0  0.68314  0.44807  0.20830  1.0000
  C   C515      1.0  0.70644  0.28439  0.30109  1.0000
  C   C516      1.0  0.65653  0.29864  0.50503  1.0000
  H   H810      1.0  0.54991  0.28604  0.33821  1.0000
  H   H811      1.0  0.57761  0.29483  0.34440  1.0000
  H   H812      1.0  0.52598  0.49483  0.03839  1.0000
  H   H813      1.0  0.51316  0.31910  0.36625  1.0000
  H   H814      1.0  0.68427  0.25752  0.34650  1.0000
  H   H815      1.0  0.73010  0.28777  0.34996  1.0000
  C   C517      1.0  0.52412  0.26632  0.38419  1.0000
  C   C518      1.0  0.52994  0.49546  0.09530  1.0000
  N   N50       1.0  0.72840  0.29299  0.06304  1.0000
  C   C519      1.0  0.52400  0.45782  0.13796  1.0000
  N   N51       1.0  0.59260  0.41237  0.10603  1.0000
  C   C520      1.0  0.55943  0.29388  0.35277  1.0000
  H   H816      1.0  0.59195  0.41703  0.06111  1.0000
  C   C521      1.0  0.55996  0.31898  0.37631  1.0000
  C   C522      1.0  0.66480  0.44577  0.21491  1.0000
  H   H817      1.0  0.71541  0.29207  0.02019  1.0000
  H   H818      1.0  0.72160  0.25404  0.30137  1.0000
  H   H819      1.0  0.73635  0.27171  0.08644  1.0000
  H   H820      1.0  0.69092  0.30730  0.51337  1.0000
  H   H821      1.0  0.72633  0.25251  0.33900  1.0000
  H   H822      1.0  0.60928  0.42863  0.13339  1.0000
  C   C523      1.0  0.66146  0.31302  0.03856  1.0000
  H   H823      1.0  0.66981  0.45375  0.28532  1.0000
  C   C524      1.0  0.66081  0.47092  0.23845  1.0000
  N   N52       1.0  0.65843  0.45377  0.24186  1.0000
  H   H824      1.0  0.69288  0.45024  0.25971  1.0000
  H   H825      1.0  0.62813  0.45681  0.26903  1.0000
  H   H826      1.0  0.65549  0.47741  0.25812  1.0000
  C   C525      1.0  0.67420  0.44793  0.26470  1.0000
  N   N53       1.0  0.70719  0.27347  0.32560  1.0000
  H   H827      1.0  0.61404  0.39310  0.12263  1.0000
  H   H828      1.0  0.63148  0.43767  0.25280  1.0000
  C   C526      1.0  0.63388  0.45045  0.24938  1.0000
  H   H829      1.0  0.62155  0.45439  0.23233  1.0000
  H   H830      1.0  0.55988  0.31333  0.39769  1.0000
  H   H831      1.0  0.67019  0.27531  0.33408  1.0000
  H   H832      1.0  0.67285  0.43501  0.26782  1.0000
  H   H833      1.0  0.53992  0.26226  0.37329  1.0000
  C   C527      1.0  0.52297  0.30760  0.36480  1.0000
  H   H834      1.0  0.73397  0.25289  0.42283  1.0000
  C   C528      1.0  0.71561  0.28506  0.04019  1.0000
  H   H835      1.0  0.53864  0.31049  0.31099  1.0000
  C   C529      1.0  0.59338  0.42141  0.13271  1.0000
  H   H836      1.0  0.69241  0.25742  0.40835  1.0000
  C   C530      1.0  0.72752  0.28346  0.08927  1.0000
  H   H837      1.0  0.63643  0.48849  0.05317  1.0000
  H   H838      1.0  0.75446  0.30222  0.03509  1.0000
  Fe  Fe108     1.0  0.61715  0.49023  0.12313  1.0000
  H   H839      1.0  0.53893  0.32930  0.32837  1.0000
  C   C531      1.0  0.71719  0.30863  0.06829  1.0000
  H   H840      1.0  0.55168  0.33095  0.37855  1.0000
  H   H841      1.0  0.61331  0.39431  0.08458  1.0000
  C   C532      1.0  0.72539  0.26093  0.32080  1.0000
  C   C533      1.0  0.54775  0.31744  0.32736  1.0000
  S   S216      1.0  0.58479  0.49032  0.15078  1.0000
  H   H842      1.0  0.60893  0.43034  0.08152  1.0000
  H   H843      1.0  0.55497  0.41127  0.10692  1.0000
  H   H844      1.0  0.62546  0.48953  0.49749  1.0000
  H   H845      1.0  0.57777  0.42957  0.13496  1.0000
  H   H846      1.0  0.72718  0.31540  0.08402  1.0000
  H   H847      1.0  0.75163  0.29225  0.16672  1.0000
  H   H848      1.0  0.57745  0.43193  0.08264  1.0000
  H   H849      1.0  0.73638  0.28937  0.10717  1.0000
  H   H850      1.0  0.72357  0.29000  0.29773  1.0000
  H   H851      1.0  0.51321  0.29994  0.35012  1.0000
  H   H852      1.0  0.69917  0.30756  0.07696  1.0000
  C   C534      1.0  0.57092  0.40333  0.10551  1.0000
  H   H853      1.0  0.57032  0.39495  0.12369  1.0000
  H   H854      1.0  0.71412  0.25504  0.46842  1.0000
  H   H855      1.0  0.71591  0.31581  0.04856  1.0000
  H   H856      1.0  0.70903  0.28157  0.09597  1.0000
  C   C535      1.0  0.71273  0.28225  0.35166  1.0000
  H   H857      1.0  0.56612  0.31899  0.31979  1.0000
  H   H858      1.0  0.70202  0.27827  0.28099  1.0000
  H   H859      1.0  0.65138  0.26353  0.48611  1.0000
  H   H860      1.0  0.62119  0.29053  0.50377  1.0000
  H   H861      1.0  0.69931  0.29181  0.35588  1.0000
  C   C536      1.0  0.68412  0.26629  0.32897  1.0000
  C   C537      1.0  0.64345  0.28777  0.03573  1.0000
  H   H862      1.0  0.58952  0.49400  0.28997  1.0000
  H   H863      1.0  0.72360  0.27324  0.03545  1.0000
  H   H864      1.0  0.57797  0.49489  0.05215  1.0000
  N   N54       1.0  0.68228  0.24844  0.48924  1.0000
  H   H865      1.0  0.50759  0.46041  0.20743  1.0000
  C   C538      1.0  0.56558  0.49047  0.06843  1.0000
  C   C539      1.0  0.75314  0.29491  0.05461  1.0000
  H   H866      1.0  0.69693  0.28341  0.04630  1.0000
  H   H867      1.0  0.52235  0.48437  0.08754  1.0000
  H   H868      1.0  0.57599  0.48796  0.08791  1.0000
  H   H869      1.0  0.53905  0.49252  0.11562  1.0000
  H   H870      1.0  0.64902  0.24771  0.51106  1.0000
  S   S217      1.0  0.75647  0.31961  0.12981  1.0000
  H   H871      1.0  0.61079  0.42708  0.66032  1.0000
  S   S218      1.0  0.59885  0.46782  0.61599  1.0000
  H   H872      1.0  0.71133  0.36954  0.62676  1.0000
  H   H873      1.0  0.61659  0.25885  0.65708  1.0000
  S   S219      1.0  0.61884  0.45996  0.68105  1.0000
  C   C540      1.0  0.61360  0.27162  0.66138  1.0000
  Fe  Fe109     1.0  0.63211  0.45807  0.63629  1.0000
  S   S220      1.0  0.64665  0.43548  0.61568  1.0000
  Fe  Fe110     1.0  0.58632  0.47063  0.66096  1.0000
  S   S221      1.0  0.55285  0.46088  0.67808  1.0000
  S   S222      1.0  0.64847  0.48183  0.63774  1.0000
  Fe  Fe111     1.0  0.68514  0.34662  0.66083  1.0000
  S   S223      1.0  0.65940  0.32772  0.66942  1.0000
  S   S224      1.0  0.67982  0.37170  0.67730  1.0000
  Fe  Fe112     1.0  0.72237  0.32324  0.63807  1.0000
  S   S225      1.0  0.69987  0.30248  0.64448  1.0000
  Fe  Fe113     1.0  0.67063  0.31784  0.62690  1.0000
  S   S226      1.0  0.64283  0.30644  0.60032  1.0000
  Fe  Fe114     1.0  0.68999  0.31344  0.68647  1.0000
  S   S227      1.0  0.68944  0.29655  0.72373  1.0000
  S   S228      1.0  0.69379  0.33800  0.61670  1.0000
  S   S229      1.0  0.71514  0.33294  0.68154  1.0000
  Fe  Fe115     1.0  0.62109  0.28521  0.86450  1.0000
  S   S230      1.0  0.60912  0.26042  0.86637  1.0000
  S   S231      1.0  0.61775  0.30201  0.82714  1.0000
  Fe  Fe116     1.0  0.63565  0.28530  0.92664  1.0000
  S   S232      1.0  0.62499  0.26036  0.93399  1.0000
  S   S233      1.0  0.65286  0.30331  0.95473  1.0000
  H   H874      1.0  0.55607  0.40542  0.67289  1.0000
  Fe  Fe117     1.0  0.59255  0.26704  0.90822  1.0000
  H   H875      1.0  0.54625  0.42520  0.66455  1.0000
  S   S234      1.0  0.65525  0.27952  0.88616  1.0000
  S   S235      1.0  0.60195  0.29238  0.90458  1.0000
  Fe  Fe118     1.0  0.64211  0.25518  0.89162  1.0000
  C   C541      1.0  0.52925  0.26217  0.90701  1.0000
  H   H876      1.0  0.68372  0.31161  0.56483  1.0000
  H   H877      1.0  0.54194  0.27714  0.87387  1.0000
  C   C542      1.0  0.64839  0.30350  0.56367  1.0000
  C   C543      1.0  0.63086  0.29743  0.54630  1.0000
  H   H878      1.0  0.58478  0.43418  0.67834  1.0000
  C   C544      1.0  0.65237  0.30179  0.99222  1.0000
  H   H879      1.0  0.67000  0.28008  0.67652  1.0000
  H   H880      1.0  0.57974  0.39850  0.61516  1.0000
  H   H881      1.0  0.61401  0.29476  0.55542  1.0000
  H   H882      1.0  0.54371  0.40994  0.63856  1.0000
  H   H883      1.0  0.60797  0.40568  0.62432  1.0000
  H   H884      1.0  0.65309  0.35454  0.90260  1.0000
  C   C545      1.0  0.66990  0.29872  0.75278  1.0000
  C   C546      1.0  0.67112  0.28756  0.77479  1.0000
  C   C547      1.0  0.65532  0.28849  0.79779  1.0000
  C   C548      1.0  0.63806  0.30056  0.79880  1.0000
  C   C549      1.0  0.63686  0.31176  0.77684  1.0000
  C   C550      1.0  0.65278  0.31089  0.75392  1.0000
  H   H885      1.0  0.68433  0.27811  0.77404  1.0000
  H   H886      1.0  0.65641  0.27980  0.81459  1.0000
  H   H887      1.0  0.62353  0.32113  0.77752  1.0000
  H   H888      1.0  0.65176  0.31960  0.73716  1.0000
  C   C551      1.0  0.65550  0.41780  0.63324  1.0000
  C   C552      1.0  0.65873  0.41713  0.66264  1.0000
  C   C553      1.0  0.66590  0.40286  0.67572  1.0000
  C   C554      1.0  0.66964  0.38907  0.65968  1.0000
  C   C555      1.0  0.66615  0.38967  0.63030  1.0000
  C   C556      1.0  0.65929  0.40401  0.61716  1.0000
  H   H889      1.0  0.65606  0.42766  0.67527  1.0000
  H   H890      1.0  0.66867  0.40253  0.69845  1.0000
  H   H891      1.0  0.66887  0.37915  0.61767  1.0000
  H   H892      1.0  0.65682  0.40442  0.59438  1.0000
  C   C557      1.0  0.52682  0.46551  0.65954  1.0000
  C   C558      1.0  0.52722  0.47345  0.63352  1.0000
  H   H893      1.0  0.64192  0.29985  0.69700  1.0000
  H   H894      1.0  0.54373  0.47704  0.62466  1.0000
  H   H895      1.0  0.61242  0.27778  0.64045  1.0000
  H   H896      1.0  0.61097  0.29698  0.69551  1.0000
  C   C559      1.0  0.66151  0.31391  0.00866  1.0000
  N   N55       1.0  0.74606  0.37644  0.63724  1.0000
  H   H897      1.0  0.73454  0.35842  0.60912  1.0000
  H   H898      1.0  0.59622  0.27322  0.67207  1.0000
  C   C560      1.0  0.67008  0.30696  0.55167  1.0000
  C   C561      1.0  0.74791  0.36573  0.66195  1.0000
  C   C562      1.0  0.52663  0.27207  0.88339  1.0000
  H   H899      1.0  0.51090  0.24788  0.93707  1.0000
  N   N56       1.0  0.57881  0.41778  0.64471  1.0000
  C   C563      1.0  0.57670  0.42987  0.62220  1.0000
  C   C564      1.0  0.59327  0.42364  0.66813  1.0000
  C   C565      1.0  0.59016  0.40332  0.63287  1.0000
  C   C566      1.0  0.55517  0.41438  0.65565  1.0000
  H   H900      1.0  0.56588  0.42589  0.60416  1.0000
  H   H901      1.0  0.72054  0.39190  0.65761  1.0000
  H   H902      1.0  0.65511  0.28208  0.64310  1.0000
  H   H903      1.0  0.65934  0.26302  0.65923  1.0000
  N   N57       1.0  0.63261  0.27786  0.67890  1.0000
  H   H904      1.0  0.62033  0.48844  0.54990  1.0000
  H   H905      1.0  0.59618  0.41460  0.68496  1.0000
  C   C567      1.0  0.62783  0.29479  0.68394  1.0000
  Fe  Fe119     1.0  0.63168  0.48464  0.68109  1.0000
  H   H906      1.0  0.63731  0.25666  0.70356  1.0000
  H   H907      1.0  0.64298  0.49024  0.00102  1.0000
  H   H908      1.0  0.66842  0.32411  0.99825  1.0000
  C   C568      1.0  0.73799  0.39227  0.64686  1.0000
  H   H909      1.0  0.61723  0.27118  0.71878  1.0000
  H   H910      1.0  0.59238  0.39398  0.64933  1.0000
  N   N58       1.0  0.65211  0.33301  0.87888  1.0000
  C   C569      1.0  0.66688  0.31856  0.87490  1.0000
  C   C570      1.0  0.62898  0.32890  0.89049  1.0000
  C   C571      1.0  0.64883  0.34100  0.85117  1.0000
  C   C572      1.0  0.66373  0.34350  0.89902  1.0000
  H   H911      1.0  0.68453  0.32119  0.86636  1.0000
  H   H912      1.0  0.65873  0.31043  0.85961  1.0000
  H   H913      1.0  0.66947  0.31212  0.89535  1.0000
  H   H914      1.0  0.61744  0.33952  0.89406  1.0000
  H   H915      1.0  0.61960  0.32110  0.87577  1.0000
  H   H916      1.0  0.63079  0.32259  0.91115  1.0000
  H   H917      1.0  0.66593  0.34417  0.84164  1.0000
  H   H918      1.0  0.63769  0.35194  0.85325  1.0000
  H   H919      1.0  0.64007  0.33324  0.83565  1.0000
  H   H920      1.0  0.68132  0.34678  0.89110  1.0000
  H   H921      1.0  0.66628  0.33765  0.92010  1.0000
  C   C573      1.0  0.64330  0.28872  0.00589  1.0000
  C   C574      1.0  0.63384  0.26951  0.70646  1.0000
  H   H922      1.0  0.64825  0.27395  0.71992  1.0000
  S   S236      1.0  0.55726  0.25745  0.92212  1.0000
  C   C575      1.0  0.65523  0.27564  0.66374  1.0000
  H   H923      1.0  0.63618  0.27933  0.99349  1.0000
  H   H924      1.0  0.59426  0.43276  0.61350  1.0000
  H   H925      1.0  0.62682  0.30148  0.66356  1.0000
  H   H926      1.0  0.56827  0.44096  0.63045  1.0000
  H   H927      1.0  0.72695  0.37818  0.59794  1.0000
  H   H928      1.0  0.73079  0.36514  0.67333  1.0000
  H   H929      1.0  0.73601  0.40062  0.62872  1.0000
  C   C576      1.0  0.72899  0.37038  0.61682  1.0000
  S   S237      1.0  0.65264  0.49562  0.71669  1.0000
  C   C577      1.0  0.50908  0.25565  0.91894  1.0000
  Fe  Fe120     1.0  0.61405  0.49169  0.62102  1.0000
  H   H930      1.0  0.75044  0.39726  0.66229  1.0000
  H   H931      1.0  0.75327  0.35353  0.65535  1.0000
  S   S238      1.0  0.59796  0.49544  0.66457  1.0000
  C   C578      1.0  0.67412  0.30449  0.52250  1.0000
  H   H932      1.0  0.66608  0.26452  0.51934  1.0000
  C   C579      1.0  0.63488  0.29504  0.51703  1.0000
  Fe  Fe121     1.0  0.72668  0.69850  0.39389  1.0000
  S   S239      1.0  0.70522  0.72099  0.39011  1.0000
  Fe  Fe122     1.0  0.68581  0.67802  0.37603  1.0000
  S   S240      1.0  0.66183  0.69940  0.37086  1.0000
  S   S241      1.0  0.66783  0.65589  0.36135  1.0000
  Fe  Fe123     1.0  0.69211  0.71065  0.34938  1.0000
  S   S242      1.0  0.69369  0.72339  0.30692  1.0000
  Fe  Fe124     1.0  0.67711  0.70754  0.41214  1.0000
  S   S243      1.0  0.65157  0.71751  0.44522  1.0000
  S   S244      1.0  0.71542  0.68883  0.35188  1.0000
  S   S245      1.0  0.69923  0.68552  0.41866  1.0000
  H   H933      1.0  0.62744  0.64773  0.47890  1.0000
  H   H934      1.0  0.55591  0.55948  0.47492  1.0000
  S   S246      1.0  0.59407  0.72330  0.13818  1.0000
  S   S247      1.0  0.60942  0.72930  0.21921  1.0000
  H   H935      1.0  0.61724  0.67350  0.41606  1.0000
  H   H936      1.0  0.61927  0.53993  0.49965  1.0000
  Fe  Fe125     1.0  0.62538  0.72924  0.11137  1.0000
  S   S248      1.0  0.64685  0.71241  0.08328  1.0000
  Fe  Fe126     1.0  0.63693  0.56857  0.40725  1.0000
  S   S249      1.0  0.65114  0.54394  0.39891  1.0000
  S   S250      1.0  0.66263  0.58781  0.41760  1.0000
  Fe  Fe127     1.0  0.58669  0.55849  0.39978  1.0000
  S   S251      1.0  0.59707  0.53334  0.38970  1.0000
  S   S252      1.0  0.55031  0.56957  0.40435  1.0000
  Fe  Fe128     1.0  0.62186  0.53567  0.42674  1.0000
  S   S253      1.0  0.62610  0.51488  0.45733  1.0000
  Fe  Fe129     1.0  0.62548  0.54354  0.36264  1.0000
  S   S254      1.0  0.64026  0.53718  0.31860  1.0000
  S   S255      1.0  0.60978  0.56022  0.43821  1.0000
  S   S256      1.0  0.61284  0.56868  0.36976  1.0000
  H   H937      1.0  0.69005  0.70496  0.48071  1.0000
  C   C580      1.0  0.62250  0.51482  0.49484  1.0000
  H   H938      1.0  0.69378  0.57844  0.29130  1.0000
  C   C581      1.0  0.52388  0.53715  0.47050  1.0000
  H   H939      1.0  0.63725  0.51007  0.22632  1.0000
  H   H940      1.0  0.63969  0.64459  0.44403  1.0000
  H   H941      1.0  0.57666  0.54810  0.49572  1.0000
  C   C582      1.0  0.62892  0.52312  0.29471  1.0000
  C   C583      1.0  0.56252  0.53105  0.45163  1.0000
  H   H942      1.0  0.61047  0.72392  0.27906  1.0000
  H   H943      1.0  0.64761  0.66741  0.41303  1.0000
  H   H944      1.0  0.71556  0.56493  0.30597  1.0000
  H   H945      1.0  0.58142  0.52882  0.45638  1.0000
  H   H946      1.0  0.54572  0.51057  0.48928  1.0000
  C   C584      1.0  0.52580  0.55780  0.40025  1.0000
  C   C585      1.0  0.52848  0.54194  0.39278  1.0000
  C   C586      1.0  0.62176  0.51205  0.05675  1.0000
  H   H947      1.0  0.54561  0.53699  0.38735  1.0000
  C   C587      1.0  0.63130  0.49913  0.04183  1.0000
  C   C588      1.0  0.67677  0.71042  0.49430  1.0000
  S   S257      1.0  0.61805  0.51179  0.09425  1.0000
  N   N59       1.0  0.63465  0.66890  0.45588  1.0000
  H   H948      1.0  0.61752  0.67519  0.49530  1.0000
  C   C589      1.0  0.66557  0.63753  0.37894  1.0000
  C   C590      1.0  0.68040  0.63295  0.40129  1.0000
  C   C591      1.0  0.67896  0.61778  0.41325  1.0000
  C   C592      1.0  0.66246  0.60717  0.40335  1.0000
  C   C593      1.0  0.64712  0.61198  0.38164  1.0000
  C   C594      1.0  0.64887  0.62700  0.36932  1.0000
  H   H949      1.0  0.69346  0.64087  0.40878  1.0000
  H   H950      1.0  0.69094  0.61417  0.43001  1.0000
  H   H951      1.0  0.63404  0.60409  0.37411  1.0000
  H   H952      1.0  0.63718  0.63047  0.35217  1.0000
  C   C595      1.0  0.66998  0.72562  0.28307  1.0000
  C   C596      1.0  0.67465  0.72873  0.25431  1.0000
  C   C597      1.0  0.65631  0.72977  0.23438  1.0000
  C   C598      1.0  0.63310  0.72807  0.24325  1.0000
  C   C599      1.0  0.62843  0.72520  0.27207  1.0000
  C   C600      1.0  0.64678  0.72398  0.29193  1.0000
  H   H953      1.0  0.69261  0.72996  0.24730  1.0000
  H   H954      1.0  0.66015  0.73164  0.21215  1.0000
  C   C601      1.0  0.62283  0.50034  0.50934  1.0000
  H   H955      1.0  0.64296  0.72179  0.31409  1.0000
  C   C602      1.0  0.65672  0.71767  0.48232  1.0000
  C   C603      1.0  0.62751  0.65236  0.45678  1.0000
  C   C604      1.0  0.63250  0.72546  0.03202  1.0000
  C   C605      1.0  0.64846  0.71536  0.04614  1.0000
  C   C606      1.0  0.55206  0.52175  0.49819  1.0000
  N   N60       1.0  0.54622  0.50205  0.07422  1.0000
  H   H956      1.0  0.66442  0.74282  0.07687  1.0000
  C   C607      1.0  0.61918  0.52870  0.51045  1.0000
  H   H957      1.0  0.67871  0.69966  0.04122  1.0000
  H   H958      1.0  0.65195  0.52965  0.26055  1.0000
  C   C608      1.0  0.55772  0.54944  0.49017  1.0000
  H   H959      1.0  0.68450  0.69568  0.26032  1.0000
  C   C609      1.0  0.62998  0.51079  0.24754  1.0000
  H   H960      1.0  0.51696  0.52670  0.45952  1.0000
  N   N61       1.0  0.66535  0.67611  0.27586  1.0000
  C   C610      1.0  0.65485  0.68485  0.30009  1.0000
  C   C611      1.0  0.68697  0.66754  0.28530  1.0000
  C   C612      1.0  0.64836  0.66483  0.26516  1.0000
  H   H961      1.0  0.65027  0.67683  0.31780  1.0000
  H   H962      1.0  0.68320  0.65907  0.30268  1.0000
  H   H963      1.0  0.70004  0.67578  0.29369  1.0000
  H   H964      1.0  0.69547  0.66082  0.26759  1.0000
  H   H965      1.0  0.64348  0.65633  0.28203  1.0000
  H   H966      1.0  0.65569  0.65795  0.24689  1.0000
  H   H967      1.0  0.63189  0.67100  0.25783  1.0000
  H   H968      1.0  0.67860  0.68111  0.23403  1.0000
  H   H969      1.0  0.61849  0.73141  0.04379  1.0000
  C   C613      1.0  0.53346  0.50561  0.04756  1.0000
  C   C614      1.0  0.63977  0.72483  0.50029  1.0000
  H   H970      1.0  0.67150  0.66248  0.45600  1.0000
  H   H971      1.0  0.60390  0.51375  0.32395  1.0000
  H   H972      1.0  0.63848  0.69147  0.29382  1.0000
  C   C615      1.0  0.63477  0.67442  0.42611  1.0000
  C   C616      1.0  0.61233  0.50065  0.25567  1.0000
  C   C617      1.0  0.61124  0.51301  0.30275  1.0000
  N   N62       1.0  0.54901  0.53484  0.47767  1.0000
  H   H973      1.0  0.65336  0.56879  0.32822  1.0000
  H   H974      1.0  0.65837  0.58159  0.35757  1.0000
  C   C618      1.0  0.66445  0.57844  0.33582  1.0000
  H   H975      1.0  0.66443  0.68228  0.46711  1.0000
  C   C619      1.0  0.67122  0.68728  0.25304  1.0000
  H   H976      1.0  0.68272  0.55009  0.34953  1.0000
  H   H977      1.0  0.66085  0.58883  0.32195  1.0000
  H   H978      1.0  0.55608  0.52042  0.44083  1.0000
  H   H979      1.0  0.66723  0.69347  0.30864  1.0000
  C   C620      1.0  0.69668  0.56871  0.30684  1.0000
  H   H980      1.0  0.68855  0.56365  0.37775  1.0000
  C   C621      1.0  0.69345  0.56026  0.35559  1.0000
  N   N63       1.0  0.68959  0.57360  0.33581  1.0000
  H   H981      1.0  0.68628  0.55860  0.29952  1.0000
  H   H982      1.0  0.72266  0.58376  0.34549  1.0000
  C   C622      1.0  0.61798  0.67890  0.47262  1.0000
  H   H983      1.0  0.71216  0.55609  0.35587  1.0000
  C   C623      1.0  0.65844  0.66998  0.46793  1.0000
  H   H984      1.0  0.65545  0.69439  0.24609  1.0000
  H   H985      1.0  0.69844  0.59079  0.36704  1.0000
  C   C624      1.0  0.70356  0.58696  0.34515  1.0000
  H   H986      1.0  0.70087  0.59734  0.33096  1.0000
  C   C625      1.0  0.63828  0.52190  0.26703  1.0000
  H   H987      1.0  0.52100  0.54735  0.45593  1.0000
  C   C626      1.0  0.60313  0.50179  0.28340  1.0000
  Fe  Fe130     1.0  0.61161  0.73679  0.17291  1.0000
  H   H988      1.0  0.60795  0.53589  0.05293  1.0000
  C   C627      1.0  0.61534  0.52581  0.04161  1.0000
  H   H989      1.0  0.62420  0.73046  0.49122  1.0000
  H   H990      1.0  0.60957  0.65112  0.44794  1.0000
  C   C628      1.0  0.66625  0.70747  0.03043  1.0000
  H   H991      1.0  0.51867  0.51429  0.05111  1.0000
  H   H992      1.0  0.54529  0.51064  0.03123  1.0000
  H   H993      1.0  0.63964  0.68695  0.42469  1.0000
  S   S258      1.0  0.64440  0.74045  0.14755  1.0000
  H   H994      1.0  0.51113  0.52006  0.38718  1.0000
  C   C629      1.0  0.50893  0.53238  0.39260  1.0000
  H   H995      1.0  0.56580  0.51435  0.10565  1.0000
  H   H996      1.0  0.65897  0.66620  0.49058  1.0000
  H   H997      1.0  0.56862  0.52177  0.07033  1.0000
  H   H998      1.0  0.68945  0.53845  0.02025  1.0000
  Fe  Fe131     1.0  0.57856  0.74685  0.12464  1.0000
  H   H999      1.0  0.54195  0.52570  0.09006  1.0000
  H   H1000     1.0  0.56142  0.54094  0.43623  1.0000
  C   C630      1.0  0.55598  0.51663  0.08555  1.0000
  H   H1001     1.0  0.59983  0.67848  0.46409  1.0000
  H   H1002     1.0  0.51508  0.50384  0.10028  1.0000
  H   H1003     1.0  0.62301  0.69146  0.47222  1.0000
  H   H1004     1.0  0.51295  0.53949  0.48975  1.0000
  H   H1005     1.0  0.57092  0.51963  0.50374  1.0000
  H   H1006     1.0  0.54790  0.55278  0.50983  1.0000
  H   H1007     1.0  0.67563  0.74378  0.02619  1.0000
  Fe  Fe132     1.0  0.72850  0.69793  0.90592  1.0000
  S   S259      1.0  0.70903  0.72075  0.89719  1.0000
  Fe  Fe133     1.0  0.68618  0.67792  0.89025  1.0000
  S   S260      1.0  0.66448  0.69983  0.87999  1.0000
  S   S261      1.0  0.66321  0.65699  0.88078  1.0000
  Fe  Fe134     1.0  0.69630  0.70861  0.85795  1.0000
  S   S262      1.0  0.70027  0.71929  0.81389  1.0000
  Fe  Fe135     1.0  0.67909  0.70967  0.92021  1.0000
  S   S263      1.0  0.65307  0.72246  0.94953  1.0000
  S   S264      1.0  0.71743  0.68617  0.86550  1.0000
  S   S265      1.0  0.69921  0.68748  0.93171  1.0000
  H   H1008     1.0  0.70664  0.53789  0.94368  1.0000
  S   S266      1.0  0.66147  0.74002  0.64896  1.0000
  S   S267      1.0  0.61188  0.72275  0.63426  1.0000
  C   C631      1.0  0.67019  0.54588  0.65830  1.0000
  Fe  Fe136     1.0  0.62834  0.73416  0.67227  1.0000
  S   S268      1.0  0.62393  0.72293  0.71577  1.0000
  Fe  Fe137     1.0  0.64354  0.73072  0.61006  1.0000
  S   S269      1.0  0.66672  0.71647  0.57926  1.0000
  Fe  Fe138     1.0  0.63462  0.56674  0.90617  1.0000
  S   S270      1.0  0.64694  0.54213  0.89377  1.0000
  S   S271      1.0  0.66277  0.58439  0.91660  1.0000
  Fe  Fe139     1.0  0.58356  0.55681  0.91047  1.0000
  S   S272      1.0  0.59271  0.53173  0.89965  1.0000
  S   S273      1.0  0.54651  0.56623  0.91832  1.0000
  Fe  Fe140     1.0  0.62315  0.53432  0.92926  1.0000
  S   S274      1.0  0.63540  0.51501  0.96023  1.0000
  Fe  Fe141     1.0  0.61525  0.54181  0.86521  1.0000
  S   S275      1.0  0.60589  0.53403  0.82022  1.0000
  S   S276      1.0  0.61228  0.55876  0.94265  1.0000
  S   S277      1.0  0.60471  0.56707  0.87507  1.0000
  H   H1009     1.0  0.64956  0.66865  0.97878  1.0000
  C   C632      1.0  0.60558  0.51846  0.76928  1.0000
  H   H1010     1.0  0.70528  0.65596  0.78646  1.0000
  H   H1011     1.0  0.51261  0.55773  0.85224  1.0000
  H   H1012     1.0  0.62171  0.73532  0.99167  1.0000
  H   H1013     1.0  0.67186  0.50697  0.76906  1.0000
  C   C633      1.0  0.69580  0.66369  0.80204  1.0000
  C   C634      1.0  0.61946  0.52279  0.79247  1.0000
  C   C635      1.0  0.66633  0.52593  0.62233  1.0000
  N   N64       1.0  0.66534  0.52918  0.65318  1.0000
  H   H1014     1.0  0.64013  0.52823  0.68734  1.0000
  H   H1015     1.0  0.65303  0.53326  0.61048  1.0000
  C   C636      1.0  0.64271  0.72471  0.52999  1.0000
  H   H1016     1.0  0.69456  0.69095  0.77362  1.0000
  C   C637      1.0  0.52302  0.55372  0.91231  1.0000
  C   C638      1.0  0.52703  0.53779  0.90614  1.0000
  C   C639      1.0  0.66299  0.55516  0.98329  1.0000
  H   H1017     1.0  0.54457  0.53271  0.90672  1.0000
  H   H1018     1.0  0.66248  0.51346  0.61769  1.0000
  H   H1019     1.0  0.63791  0.51329  0.66117  1.0000
  H   H1020     1.0  0.68789  0.54883  0.65023  1.0000
  C   C640      1.0  0.63936  0.50573  0.74596  1.0000
  C   C641      1.0  0.55885  0.55899  0.80659  1.0000
  C   C642      1.0  0.66342  0.63695  0.89173  1.0000
  C   C643      1.0  0.68116  0.63019  0.90871  1.0000
  C   C644      1.0  0.68064  0.61411  0.91621  1.0000
  C   C645      1.0  0.66236  0.60466  0.90699  1.0000
  C   C646      1.0  0.64448  0.61150  0.89031  1.0000
  C   C647      1.0  0.64506  0.62753  0.88270  1.0000
  H   H1021     1.0  0.69544  0.63725  0.91578  1.0000
  H   H1022     1.0  0.69459  0.60895  0.92909  1.0000
  H   H1023     1.0  0.63030  0.60440  0.88307  1.0000
  H   H1024     1.0  0.63121  0.63262  0.86958  1.0000
  C   C648      1.0  0.67830  0.72178  0.78762  1.0000
  C   C649      1.0  0.68499  0.72593  0.75991  1.0000
  C   C650      1.0  0.66839  0.72682  0.73781  1.0000
  C   C651      1.0  0.64498  0.72341  0.74325  1.0000
  C   C652      1.0  0.63822  0.71951  0.77106  1.0000
  C   C653      1.0  0.65474  0.71891  0.79325  1.0000
  H   H1025     1.0  0.62508  0.69716  0.92607  1.0000
  H   H1026     1.0  0.69128  0.67529  0.74862  1.0000
  H   H1027     1.0  0.62008  0.71702  0.77545  1.0000
  H   H1028     1.0  0.64927  0.71613  0.81464  1.0000
  H   H1029     1.0  0.69488  0.70420  0.53316  1.0000
  H   H1030     1.0  0.62719  0.67896  0.90678  1.0000
  H   H1031     1.0  0.62091  0.65379  0.93143  1.0000
  C   C654      1.0  0.66252  0.71721  0.54200  1.0000
  H   H1032     1.0  0.56756  0.55083  0.79101  1.0000
  H   H1033     1.0  0.65669  0.67370  0.82926  1.0000
  C   C655      1.0  0.65330  0.51013  0.76906  1.0000
  H   H1034     1.0  0.70814  0.73268  0.55462  1.0000
  H   H1035     1.0  0.67607  0.53361  0.94399  1.0000
  C   C656      1.0  0.52771  0.56292  0.84097  1.0000
  H   H1036     1.0  0.55341  0.56995  0.79514  1.0000
  H   H1037     1.0  0.68236  0.52096  0.69145  1.0000
  N   N65       1.0  0.68682  0.54835  0.97822  1.0000
  H   H1038     1.0  0.62771  0.53282  0.65283  1.0000
  C   C657      1.0  0.61847  0.52670  0.01193  1.0000
  H   H1039     1.0  0.62945  0.73021  0.54357  1.0000
  C   C658      1.0  0.61795  0.68515  0.92465  1.0000
  C   C659      1.0  0.61663  0.51355  0.55471  1.0000
  H   H1040     1.0  0.68208  0.70367  0.98908  1.0000
  H   H1041     1.0  0.61326  0.53733  0.00064  1.0000
  H   H1042     1.0  0.66063  0.55918  0.00561  1.0000
  C   C660      1.0  0.52776  0.74475  0.65002  1.0000
  H   H1043     1.0  0.59264  0.66117  0.94346  1.0000
  H   H1044     1.0  0.72246  0.55579  0.97967  1.0000
  C   C661      1.0  0.68301  0.51905  0.66803  1.0000
  C   C662      1.0  0.66237  0.68109  0.81118  1.0000
  H   H1045     1.0  0.67979  0.50635  0.66462  1.0000
  H   H1046     1.0  0.70845  0.67242  0.80968  1.0000
  H   H1047     1.0  0.60443  0.50660  0.72871  1.0000
  C   C663      1.0  0.60870  0.68509  0.97472  1.0000
  C   C664      1.0  0.64171  0.52585  0.66413  1.0000
  H   H1048     1.0  0.67382  0.69023  0.81990  1.0000
  H   H1049     1.0  0.65917  0.56544  0.96914  1.0000
  H   H1050     1.0  0.51479  0.55786  0.78689  1.0000
  H   H1051     1.0  0.64638  0.68718  0.80242  1.0000
  C   C665      1.0  0.67951  0.71006  0.52403  1.0000
  H   H1052     1.0  0.67812  0.52554  0.99399  1.0000
  H   H1053     1.0  0.66956  0.54866  0.68141  1.0000
  H   H1054     1.0  0.54294  0.74245  0.66334  1.0000
  H   H1055     1.0  0.66787  0.65230  0.76158  1.0000
  H   H1056     1.0  0.65316  0.65176  0.79543  1.0000
  H   H1057     1.0  0.59908  0.68657  0.91889  1.0000
  H   H1058     1.0  0.66691  0.68865  0.75643  1.0000
  C   C666      1.0  0.68221  0.68203  0.76591  1.0000
  H   H1059     1.0  0.68518  0.55277  0.93327  1.0000
  C   C667      1.0  0.65208  0.71972  0.98675  1.0000
  H   H1060     1.0  0.70126  0.57077  0.96887  1.0000
  S   S278      1.0  0.61307  0.51341  0.59225  1.0000
  H   H1061     1.0  0.61376  0.53885  0.55209  1.0000
  N   N66       1.0  0.67487  0.67162  0.78927  1.0000
  C   C668      1.0  0.65903  0.65972  0.77816  1.0000
  H   H1062     1.0  0.68391  0.52823  0.61322  1.0000
  C   C669      1.0  0.64340  0.51852  0.79232  1.0000
  H   H1063     1.0  0.67380  0.72983  0.71650  1.0000
  H   H1064     1.0  0.70889  0.52936  0.99437  1.0000
  C   C670      1.0  0.68880  0.54293  0.94848  1.0000
  N   N67       1.0  0.53870  0.55167  0.82063  1.0000
  C   C671      1.0  0.54697  0.53737  0.83598  1.0000
  C   C672      1.0  0.63501  0.50017  0.01224  1.0000
  C   C673      1.0  0.52132  0.54737  0.79903  1.0000
  H   H1065     1.0  0.65634  0.66839  0.94146  1.0000
  H   H1066     1.0  0.64305  0.66538  0.76845  1.0000
  H   H1067     1.0  0.61388  0.65363  0.96865  1.0000
  H   H1068     1.0  0.70317  0.72827  0.75542  1.0000
  H   H1069     1.0  0.55985  0.54025  0.85275  1.0000
  N   N68       1.0  0.62114  0.67643  0.95163  1.0000
  C   C674      1.0  0.61619  0.52805  0.54020  1.0000
  H   H1070     1.0  0.58706  0.52167  0.76913  1.0000
  H   H1071     1.0  0.58952  0.68635  0.97054  1.0000
  C   C675      1.0  0.61540  0.50990  0.74627  1.0000
  H   H1072     1.0  0.65407  0.68675  0.96036  1.0000
  H   H1073     1.0  0.57251  0.56205  0.82234  1.0000
  H   H1074     1.0  0.70112  0.52125  0.66055  1.0000
  C   C676      1.0  0.64640  0.67496  0.95836  1.0000
  H   H1075     1.0  0.55593  0.52874  0.82146  1.0000
  H   H1076     1.0  0.65431  0.52181  0.80994  1.0000
  H   H1077     1.0  0.69098  0.65633  0.82067  1.0000
  H   H1078     1.0  0.53224  0.53138  0.84647  1.0000
  H   H1079     1.0  0.52911  0.53877  0.78353  1.0000
  H   H1080     1.0  0.61109  0.67904  0.99556  1.0000
  H   H1081     1.0  0.65704  0.55379  0.64750  1.0000
  C   C677      1.0  0.66816  0.70970  0.00087  1.0000
  C   C678      1.0  0.62873  0.51395  0.99712  1.0000
  C   C679      1.0  0.61992  0.49968  0.53909  1.0000
  C   C680      1.0  0.61168  0.66056  0.94869  1.0000
  H   H1082     1.0  0.64950  0.54635  0.97914  1.0000
  H   H1083     1.0  0.54046  0.56643  0.85749  1.0000
  C   C681      1.0  0.70423  0.56049  0.98337  1.0000
  C   C682      1.0  0.69109  0.53485  0.99759  1.0000
  H   H1084     1.0  0.61542  0.69717  0.97712  1.0000
  H   H1085     1.0  0.70427  0.73274  0.60661  1.0000
  C   C683      1.0  0.63431  0.72761  0.00246  1.0000
  H   H1086     1.0  0.73431  0.73822  0.60959  1.0000
  H   H1087     1.0  0.54238  0.52423  0.51834  1.0000
  H   H1088     1.0  0.52113  0.57386  0.83026  1.0000
  C   C684      1.0  0.71599  0.74295  0.60712  1.0000
  H   H1089     1.0  0.51154  0.51601  0.89429  1.0000
  H   H1090     1.0  0.70312  0.56494  0.00555  1.0000
  C   C685      1.0  0.50823  0.52831  0.89919  1.0000
  H   H1091     1.0  0.73801  0.73853  0.55689  1.0000
  C   C686      1.0  0.71947  0.74306  0.55605  1.0000
  Fe  Fe142     1.0  0.59586  0.74681  0.62541  1.0000
  H   H1092     1.0  0.64279  0.77269  0.18366  1.0000
  S   S279      1.0  0.64512  0.78570  0.12740  1.0000
  C   C687      1.0  0.62848  0.78829  0.23013  1.0000
  H   H1093     1.0  0.74697  0.76287  0.43570  1.0000
  H   H1094     1.0  0.67252  0.79866  0.23444  1.0000
  C   C688      1.0  0.67470  0.78793  0.13763  1.0000
  C   C689      1.0  0.68783  0.77561  0.15017  1.0000
  C   C690      1.0  0.71076  0.77804  0.15973  1.0000
  C   C691      1.0  0.72112  0.79265  0.15607  1.0000
  C   C692      1.0  0.70837  0.80481  0.14247  1.0000
  C   C693      1.0  0.68516  0.80248  0.13350  1.0000
  H   H1095     1.0  0.68029  0.76425  0.15293  1.0000
  H   H1096     1.0  0.72057  0.76857  0.17016  1.0000
  H   H1097     1.0  0.71611  0.81615  0.13972  1.0000
  H   H1098     1.0  0.67520  0.81208  0.12368  1.0000
  H   H1099     1.0  0.66401  0.75984  0.20088  1.0000
  C   C694      1.0  0.65159  0.76883  0.04795  1.0000
  H   H1100     1.0  0.66553  0.79564  0.19772  1.0000
  H   H1101     1.0  0.68665  0.78283  0.21500  1.0000
  H   H1102     1.0  0.66787  0.75960  0.09901  1.0000
  N   N69       1.0  0.65069  0.77898  0.22659  1.0000
  Fe  Fe143     1.0  0.62616  0.76279  0.13306  1.0000
  H   H1103     1.0  0.70838  0.77346  0.06724  1.0000
  C   C695      1.0  0.65690  0.77099  0.25359  1.0000
  C   C696      1.0  0.66965  0.78949  0.21814  1.0000
  C   C697      1.0  0.64762  0.76708  0.20428  1.0000
  H   H1104     1.0  0.67362  0.76388  0.25158  1.0000
  S   S280      1.0  0.59429  0.76010  0.16090  1.0000
  H   H1105     1.0  0.62330  0.79435  0.20997  1.0000
  H   H1106     1.0  0.63340  0.75897  0.20988  1.0000
  H   H1107     1.0  0.65915  0.77957  0.27108  1.0000
  H   H1108     1.0  0.61379  0.78064  0.23627  1.0000
  H   H1109     1.0  0.64308  0.76277  0.26028  1.0000
  N   N70       1.0  0.67581  0.76337  0.05497  1.0000
  S   S281      1.0  0.74898  0.79545  0.17133  1.0000
  H   H1110     1.0  0.63003  0.79744  0.24680  1.0000
  H   H1111     1.0  0.69143  0.78489  0.04188  1.0000
  C   C698      1.0  0.69021  0.77711  0.06081  1.0000
  H   H1112     1.0  0.64330  0.77555  0.06590  1.0000
  H   H1113     1.0  0.64025  0.75877  0.04329  1.0000
  H   H1114     1.0  0.68252  0.78438  0.07840  1.0000
  H   H1115     1.0  0.65122  0.77666  0.02899  1.0000
  C   C699      1.0  0.67537  0.75318  0.08039  1.0000
  H   H1116     1.0  0.52570  0.74985  0.16477  1.0000
  S   S282      1.0  0.60903  0.75184  0.09544  1.0000
  H   H1117     1.0  0.69327  0.74870  0.08630  1.0000
  H   H1118     1.0  0.70429  0.75011  0.03532  1.0000
  C   C700      1.0  0.68598  0.75434  0.03082  1.0000
  C   C701      1.0  0.51058  0.74886  0.15116  1.0000
  C   C702      1.0  0.51367  0.74824  0.12168  1.0000
  S   S283      1.0  0.54177  0.74977  0.10534  1.0000
  H   H1119     1.0  0.71142  0.74982  0.62655  1.0000
  S   S284      1.0  0.65925  0.78681  0.63522  1.0000
  S   S285      1.0  0.55926  0.75219  0.60680  1.0000
  H   H1120     1.0  0.60624  0.79034  0.63550  1.0000
  H   H1121     1.0  0.53299  0.80122  0.62382  1.0000
  C   C703      1.0  0.68951  0.78929  0.64230  1.0000
  C   C704      1.0  0.70045  0.80291  0.63275  1.0000
  C   C705      1.0  0.72461  0.80500  0.63750  1.0000
  C   C706      1.0  0.73802  0.79348  0.65198  1.0000
  C   C707      1.0  0.72700  0.77992  0.66168  1.0000
  C   C708      1.0  0.70291  0.77785  0.65694  1.0000
  H   H1122     1.0  0.69022  0.81188  0.62154  1.0000
  H   H1123     1.0  0.72436  0.77386  0.60134  1.0000
  H   H1124     1.0  0.73715  0.77098  0.67306  1.0000
  H   H1125     1.0  0.69464  0.76747  0.66495  1.0000
  H   H1126     1.0  0.57702  0.82093  0.62672  1.0000
  C   C709      1.0  0.56369  0.78659  0.65901  1.0000
  C   C710      1.0  0.57280  0.81294  0.64464  1.0000
  H   H1127     1.0  0.71704  0.74989  0.53604  1.0000
  H   H1128     1.0  0.73282  0.81551  0.62998  1.0000
  C   C711      1.0  0.68871  0.75865  0.57888  1.0000
  H   H1129     1.0  0.58761  0.81327  0.66001  1.0000
  H   H1130     1.0  0.55340  0.80422  0.59517  1.0000
  C   C712      1.0  0.72900  0.76616  0.58294  1.0000
  H   H1131     1.0  0.58901  0.77853  0.61252  1.0000
  C   C713      1.0  0.59107  0.79068  0.62059  1.0000
  H   H1132     1.0  0.56123  0.77423  0.65222  1.0000
  H   H1133     1.0  0.59598  0.79808  0.60215  1.0000
  S   S286      1.0  0.61056  0.75787  0.66458  1.0000
  H   H1134     1.0  0.57799  0.78635  0.67507  1.0000
  H   H1135     1.0  0.55680  0.81788  0.65548  1.0000
  Fe  Fe144     1.0  0.64266  0.76288  0.63841  1.0000
  H   H1136     1.0  0.54666  0.78470  0.60609  1.0000
  H   H1137     1.0  0.54717  0.79066  0.66979  1.0000
  C   C714      1.0  0.53088  0.74933  0.62174  1.0000
  N   N71       1.0  0.56932  0.79675  0.63456  1.0000
  C   C715      1.0  0.51084  0.75224  0.60482  1.0000
  C   C716      1.0  0.54974  0.79678  0.61402  1.0000
  H   H1138     1.0  0.72775  0.77364  0.56357  1.0000
  S   S287      1.0  0.62657  0.75392  0.59833  1.0000
  H   H1139     1.0  0.74768  0.76218  0.58560  1.0000
  H   H1140     1.0  0.68319  0.76550  0.59798  1.0000
  N   N72       1.0  0.71332  0.75271  0.58124  1.0000
  H   H1141     1.0  0.68610  0.76645  0.56009  1.0000
  H   H1142     1.0  0.68622  0.76154  0.01106  1.0000
  H   H1143     1.0  0.51300  0.75580  0.58293  1.0000
  H   H1144     1.0  0.67645  0.74885  0.57674  1.0000
  Fe  Fe145     1.0  0.89675  0.07043  0.39673  1.0000
  S   S288      1.0  0.86521  0.05549  0.39996  1.0000
  S   S289      1.0  0.89757  0.09701  0.38906  1.0000
  Fe  Fe146     1.0  0.93011  0.04119  0.39844  1.0000
  S   S290      1.0  0.90069  0.02430  0.40093  1.0000
  S   S291      1.0  0.96662  0.03014  0.39944  1.0000
  Fe  Fe147     1.0  0.88356  0.03977  0.36731  1.0000
  S   S292      1.0  0.86562  0.03487  0.32487  1.0000
  Fe  Fe148     1.0  0.88563  0.04144  0.43317  1.0000
  S   S293      1.0  0.87174  0.03682  0.47794  1.0000
  S   S294      1.0  0.91427  0.05538  0.36291  1.0000
  S   S295      1.0  0.91602  0.05759  0.43201  1.0000
  N   N73       1.0  0.80656  0.22830  0.21848  1.0000
  Fe  Fe149     1.0  0.79449  0.20958  0.40677  1.0000
  S   S296      1.0  0.82713  0.22318  0.40051  1.0000
  Fe  Fe150     1.0  0.82147  0.17838  0.39251  1.0000
  S   S297      1.0  0.85545  0.19036  0.38439  1.0000
  S   S298      1.0  0.81763  0.15165  0.39399  1.0000
  Fe  Fe151     1.0  0.84616  0.20393  0.42422  1.0000
  S   S299      1.0  0.87431  0.20814  0.45711  1.0000
  Fe  Fe152     1.0  0.83313  0.20861  0.36130  1.0000
  S   S300      1.0  0.84142  0.22405  0.32337  1.0000
  S   S301      1.0  0.81337  0.19116  0.43355  1.0000
  S   S302      1.0  0.79938  0.19578  0.36628  1.0000
  S   S303      1.0  0.85764  0.22389  0.14389  1.0000
  H   H1145     1.0  0.85266  0.02979  0.26660  1.0000
  S   S304      1.0  0.91415  0.22002  0.13427  1.0000
  H   H1146     1.0  0.77547  0.21852  0.23626  1.0000
  Fe  Fe153     1.0  0.88221  0.22389  0.10667  1.0000
  S   S305      1.0  0.87262  0.20626  0.07278  1.0000
  Fe  Fe154     1.0  0.88941  0.22239  0.17137  1.0000
  S   S306      1.0  0.89193  0.20508  0.20798  1.0000
  H   H1147     1.0  0.98898  0.00207  0.15360  1.0000
  C   C717      1.0  0.87094  0.01826  0.04596  1.0000
  C   C718      1.0  0.79727  0.22863  0.18920  1.0000
  C   C719      1.0  0.86661  0.21242  0.49271  1.0000
  H   H1148     1.0  0.96196  0.01048  0.45279  1.0000
  H   H1149     1.0  0.78667  0.23963  0.18499  1.0000
  H   H1150     1.0  0.98600  0.03317  0.46225  1.0000
  H   H1151     1.0  0.83009  0.20729  0.48823  1.0000
  C   C720      1.0  0.86397  0.01993  0.27290  1.0000
  H   H1152     1.0  0.88878  0.15810  0.42743  1.0000
  C   C721      1.0  0.85826  0.21844  0.29339  1.0000
  C   C722      1.0  0.86467  0.23018  0.27417  1.0000
  C   C723      1.0  0.87542  0.22622  0.24815  1.0000
  C   C724      1.0  0.88022  0.21046  0.24139  1.0000
  C   C725      1.0  0.87490  0.19872  0.26119  1.0000
  C   C726      1.0  0.86378  0.20268  0.28711  1.0000
  H   H1153     1.0  0.81177  0.22827  0.17329  1.0000
  C   C727      1.0  0.97098  0.03838  0.47465  1.0000
  H   H1154     1.0  0.87872  0.18650  0.25612  1.0000
  H   H1155     1.0  0.85895  0.19356  0.30184  1.0000
  H   H1156     1.0  0.93826  0.00577  0.47625  1.0000
  H   H1157     1.0  0.83694  0.24169  0.20901  1.0000
  H   H1158     1.0  0.81080  0.20305  0.21887  1.0000
  H   H1159     1.0  0.96960  0.06424  0.40074  1.0000
  C   C728      1.0  0.87507  0.11198  0.39123  1.0000
  C   C729      1.0  0.85229  0.10901  0.40049  1.0000
  C   C730      1.0  0.83490  0.12124  0.40090  1.0000
  C   C731      1.0  0.84008  0.13661  0.39238  1.0000
  C   C732      1.0  0.86286  0.13956  0.38308  1.0000
  C   C733      1.0  0.88022  0.12733  0.38261  1.0000
  H   H1160     1.0  0.84806  0.09732  0.40748  1.0000
  H   H1161     1.0  0.81734  0.11882  0.40814  1.0000
  H   H1162     1.0  0.86705  0.15123  0.37596  1.0000
  H   H1163     1.0  0.89773  0.12976  0.37523  1.0000
  C   C734      1.0  0.87326  0.01944  0.30060  1.0000
  C   C735      1.0  0.78687  0.22876  0.23902  1.0000
  H   H1164     1.0  0.89482  0.00590  0.32973  1.0000
  C   C736      1.0  0.87430  0.22478  0.02426  1.0000
  H   H1165     1.0  0.82778  0.21291  0.24488  1.0000
  H   H1166     1.0  0.92493  0.03991  0.49087  1.0000
  H   H1167     1.0  0.94669  0.23528  0.17866  1.0000
  H   H1168     1.0  0.79978  0.21653  0.04145  1.0000
  C   C737      1.0  0.88771  0.00653  0.30846  1.0000
  C   C738      1.0  0.87982  0.02139  0.50196  1.0000
  N   N74       1.0  0.86988  0.15844  0.46713  1.0000
  H   H1169     1.0  0.83649  0.21320  0.20820  1.0000
  C   C739      1.0  0.99031  0.04260  0.40296  1.0000
  C   C740      1.0  0.98707  0.05896  0.40291  1.0000
  H   H1170     1.0  0.99070  0.23201  0.21533  1.0000
  H   H1171     1.0  0.83265  0.16345  0.46652  1.0000
  H   H1172     1.0  0.87966  0.23535  0.23320  1.0000
  C   C741      1.0  0.84848  0.16618  0.47920  1.0000
  C   C742      1.0  0.97970  0.24306  0.21683  1.0000
  H   H1173     1.0  0.87762  0.17712  0.43817  1.0000
  C   C743      1.0  0.86889  0.00765  0.25336  1.0000
  C   C744      1.0  0.87377  0.16441  0.43809  1.0000
  C   C745      1.0  0.87012  0.21002  0.03600  1.0000
  H   H1174     1.0  0.79342  0.22845  0.26134  1.0000
  C   C746      1.0  0.89029  0.16202  0.48499  1.0000
  H   H1175     1.0  0.00408  0.08121  0.40498  1.0000
  N   N75       1.0  0.85458  0.08426  0.31674  1.0000
  C   C747      1.0  0.85214  0.10162  0.31617  1.0000
  C   C748      1.0  0.84150  0.07755  0.29285  1.0000
  C   C749      1.0  0.84506  0.07835  0.34379  1.0000
  C   C750      1.0  0.87968  0.07942  0.31433  1.0000
  H   H1176     1.0  0.86210  0.10692  0.33385  1.0000
  H   H1177     1.0  0.83347  0.10573  0.31856  1.0000
  H   H1178     1.0  0.85896  0.10652  0.29597  1.0000
  H   H1179     1.0  0.84317  0.06443  0.29292  1.0000
  H   H1180     1.0  0.82245  0.08083  0.29416  1.0000
  H   H1181     1.0  0.84821  0.08170  0.27203  1.0000
  H   H1182     1.0  0.82639  0.08222  0.34695  1.0000
  H   H1183     1.0  0.85516  0.08267  0.36219  1.0000
  H   H1184     1.0  0.84592  0.06526  0.34454  1.0000
  H   H1185     1.0  0.88213  0.06638  0.31477  1.0000
  H   H1186     1.0  0.89005  0.08416  0.33220  1.0000
  H   H1187     1.0  0.88752  0.08369  0.29421  1.0000
  H   H1188     1.0  0.89414  0.00556  0.47035  1.0000
  H   H1189     1.0  0.86012  0.18635  0.02708  1.0000
  H   H1190     1.0  0.95655  0.21823  0.19840  1.0000
  H   H1191     1.0  0.89268  0.17497  0.48622  1.0000
  H   H1192     1.0  0.87969  0.23424  0.03782  1.0000
  H   H1193     1.0  0.96002  0.04545  0.45947  1.0000
  C   C751      1.0  0.82101  0.21373  0.22277  1.0000
  H   H1194     1.0  0.87033  0.02932  0.05730  1.0000
  H   H1195     1.0  0.77572  0.23968  0.23645  1.0000
  H   H1196     1.0  0.97065  0.22713  0.13805  1.0000
  H   H1197     1.0  0.82717  0.24282  0.24532  1.0000
  H   H1198     1.0  0.93372  0.22915  0.25457  1.0000
  C   C752      1.0  0.98457  0.23541  0.13927  1.0000
  H   H1199     1.0  0.94017  0.00069  0.09495  1.0000
  H   H1200     1.0  0.85155  0.13831  0.45273  1.0000
  C   C753      1.0  0.94777  0.01565  0.46657  1.0000
  C   C754      1.0  0.86981  0.00410  0.06123  1.0000
  C   C755      1.0  0.82111  0.24211  0.22298  1.0000
  C   C756      1.0  0.00657  0.06854  0.40538  1.0000
  C   C757      1.0  0.94607  0.22948  0.19978  1.0000
  C   C758      1.0  0.97265  0.01668  0.50783  1.0000
  H   H1201     1.0  0.97822  0.04662  0.49041  1.0000
  H   H1202     1.0  0.86071  0.24240  0.27919  1.0000
  H   H1203     1.0  0.88258  0.13502  0.45657  1.0000
  H   H1204     1.0  0.90180  0.21838  0.50411  1.0000
  C   C759      1.0  0.93770  0.03347  0.50494  1.0000
  H   H1205     1.0  0.94684  0.00740  0.04376  1.0000
  H   H1206     1.0  0.88805  0.15765  0.50709  1.0000
  C   C760      1.0  0.86692  0.14125  0.46605  1.0000
  H   H1207     1.0  0.93525  0.02219  0.45236  1.0000
  N   N76       1.0  0.95727  0.02606  0.48850  1.0000
  H   H1208     1.0  0.78606  0.21847  0.18501  1.0000
  H   H1209     1.0  0.75877  0.21412  0.02306  1.0000
  H   H1210     1.0  0.92754  0.22649  0.20369  1.0000
  C   C761      1.0  0.95237  0.23193  0.25011  1.0000
  H   H1211     1.0  0.90680  0.15656  0.47624  1.0000
  C   C762      1.0  0.84369  0.21074  0.50267  1.0000
  S   S307      1.0  0.86707  0.00472  0.09882  1.0000
  C   C763      1.0  0.88403  0.21703  0.51169  1.0000
  H   H1212     1.0  0.92002  0.99835  0.03450  1.0000
  H   H1213     1.0  0.00611  0.04327  0.31318  1.0000
  N   N77       1.0  0.95476  0.23982  0.22229  1.0000
  H   H1214     1.0  0.85795  0.16305  0.42473  1.0000
  H   H1215     1.0  0.84988  0.17920  0.47938  1.0000
  H   H1216     1.0  0.84529  0.16233  0.50143  1.0000
  H   H1217     1.0  0.86140  0.00813  0.23230  1.0000
  H   H1218     1.0  0.96278  0.22061  0.25077  1.0000
  H   H1219     1.0  0.95847  0.23943  0.26776  1.0000
  S   S308      1.0  0.76442  0.22562  0.42307  1.0000
  H   H1220     1.0  0.86404  0.13627  0.48759  1.0000
  Fe  Fe155     1.0  0.91483  0.24635  0.13600  1.0000
  C   C764      1.0  0.89090  0.00738  0.49278  1.0000
  H   H1221     1.0  0.98753  0.01084  0.49607  1.0000
  H   H1222     1.0  0.80135  0.23494  0.02267  1.0000
  C   C765      1.0  0.86322  0.19782  0.01814  1.0000
  C   C766      1.0  0.80405  0.22198  0.02064  1.0000
  H   H1223     1.0  0.82314  0.21966  0.01684  1.0000
  H   H1224     1.0  0.78877  0.19255  0.01605  1.0000
  H   H1225     1.0  0.96030  0.99876  0.23352  1.0000
  C   C767      1.0  0.87276  0.01829  0.01607  1.0000
  Fe  Fe156     1.0  0.86697  0.05602  0.90517  1.0000
  S   S309      1.0  0.85881  0.03055  0.89720  1.0000
  S   S310      1.0  0.83885  0.07564  0.90984  1.0000
  Fe  Fe157     1.0  0.91807  0.04838  0.91622  1.0000
  S   S311      1.0  0.91452  0.02265  0.90916  1.0000
  S   S312      1.0  0.95078  0.05993  0.93135  1.0000
  Fe  Fe158     1.0  0.89218  0.02952  0.87134  1.0000
  S   S313      1.0  0.89991  0.01201  0.83526  1.0000
  Fe  Fe159     1.0  0.88154  0.02483  0.93518  1.0000
  H   H1226     1.0  0.96676  0.03526  0.73812  1.0000
  S   S314      1.0  0.89872  0.05546  0.87638  1.0000
  S   S315      1.0  0.88685  0.05021  0.94532  1.0000
  H   H1227     1.0  0.98019  0.02416  0.52462  1.0000
  Fe  Fe160     1.0  0.78739  0.19335  0.90638  1.0000
  S   S316      1.0  0.80646  0.21463  0.89270  1.0000
  Fe  Fe161     1.0  0.82823  0.17073  0.88772  1.0000
  S   S317      1.0  0.85005  0.19102  0.87378  1.0000
  S   S318      1.0  0.84686  0.14767  0.87414  1.0000
  Fe  Fe162     1.0  0.83777  0.20296  0.91390  1.0000
  S   S319      1.0  0.86028  0.21874  0.94043  1.0000
  Fe  Fe163     1.0  0.81692  0.20065  0.85405  1.0000
  S   S320      1.0  0.81209  0.20984  0.80917  1.0000
  S   S321      1.0  0.81845  0.18212  0.92971  1.0000
  S   S322      1.0  0.79536  0.18001  0.86598  1.0000
  H   H1228     1.0  0.78345  0.19319  0.97847  1.0000
  C   C768      1.0  0.79690  0.22280  0.97017  1.0000
  S   S323      1.0  0.90598  0.22476  0.63757  1.0000
  H   H1229     1.0  0.94505  0.09916  0.93966  1.0000
  C   C769      1.0  0.99631  0.03896  0.87585  1.0000
  N   N78       1.0  0.78987  0.21562  0.99737  1.0000
  Fe  Fe164     1.0  0.88883  0.23081  0.67961  1.0000
  S   S324      1.0  0.89476  0.21652  0.71986  1.0000
  C   C770      1.0  0.85583  0.21784  0.55052  1.0000
  C   C771      1.0  0.86672  0.01736  0.75848  1.0000
  C   C772      1.0  0.87157  0.22726  0.99483  1.0000
  C   C773      1.0  0.86445  0.21507  0.97705  1.0000
  H   H1230     1.0  0.91882  0.08079  0.96415  1.0000
  H   H1231     1.0  0.76096  0.23220  0.00339  1.0000
  C   C774      1.0  0.87386  0.02001  0.78675  1.0000
  C   C775      1.0  0.81061  0.17079  0.78054  1.0000
  H   H1232     1.0  0.82678  0.24743  0.74760  1.0000
  H   H1233     1.0  0.89218  0.22345  0.55493  1.0000
  C   C776      1.0  0.83538  0.21108  0.78465  1.0000
  C   C777      1.0  0.83017  0.21512  0.75641  1.0000
  C   C778      1.0  0.84821  0.21660  0.73625  1.0000
  C   C779      1.0  0.87161  0.21389  0.74416  1.0000
  C   C780      1.0  0.87681  0.20945  0.77226  1.0000
  C   C781      1.0  0.85876  0.20820  0.79256  1.0000
  N   N79       1.0  0.95087  0.01383  0.72542  1.0000
  H   H1234     1.0  0.84399  0.21981  0.71460  1.0000
  H   H1235     1.0  0.89491  0.20735  0.77851  1.0000
  H   H1236     1.0  0.86298  0.20516  0.81431  1.0000
  H   H1237     1.0  0.90519  0.09966  0.89444  1.0000
  C   C782      1.0  0.98116  0.24642  0.65893  1.0000
  H   H1238     1.0  0.86341  0.24231  0.77653  1.0000
  H   H1239     1.0  0.95956  0.03749  0.88618  1.0000
  C   C783      1.0  0.84054  0.09555  0.89887  1.0000
  C   C784      1.0  0.85622  0.10014  0.87776  1.0000
  C   C785      1.0  0.85777  0.11614  0.87048  1.0000
  C   C786      1.0  0.84351  0.12774  0.88396  1.0000
  C   C787      1.0  0.82748  0.12315  0.90468  1.0000
  C   C788      1.0  0.82596  0.10712  0.91198  1.0000
  H   H1240     1.0  0.86710  0.09134  0.86695  1.0000
  H   H1241     1.0  0.87009  0.11955  0.85425  1.0000
  H   H1242     1.0  0.81631  0.13193  0.91512  1.0000
  H   H1243     1.0  0.81357  0.10368  0.92812  1.0000
  C   C789      1.0  0.88951  0.00935  0.80009  1.0000
  H   H1244     1.0  0.85476  0.02573  0.74824  1.0000
  H   H1245     1.0  0.90704  0.09691  0.98505  1.0000
  C   C790      1.0  0.84705  0.16717  0.80601  1.0000
  C   C791      1.0  0.88853  0.11350  0.94110  1.0000
  H   H1246     1.0  0.82654  0.14508  0.75212  1.0000
  C   C792      1.0  0.87520  0.00410  0.74323  1.0000
  H   H1247     1.0  0.78613  0.21864  0.95223  1.0000
  H   H1248     1.0  0.91990  0.08317  0.91099  1.0000
  C   C793      1.0  0.88170  0.01152  0.55102  1.0000
  H   H1249     1.0  0.88772  0.08494  0.96500  1.0000
  H   H1250     1.0  0.83919  0.17377  0.82423  1.0000
  C   C794      1.0  0.97624  0.05476  0.91186  1.0000
  C   C795      1.0  0.97575  0.04320  0.89085  1.0000
  H   H1251     1.0  0.84789  0.16012  0.75045  1.0000
  H   H1252     1.0  0.88308  0.99852  0.89184  1.0000
  N   N80       1.0  0.82885  0.15912  0.78985  1.0000
  C   C796      1.0  0.83841  0.21326  0.53153  1.0000
  H   H1253     1.0  0.81208  0.21724  0.75012  1.0000
  H   H1254     1.0  0.98290  0.01756  0.74804  1.0000
  C   C797      1.0  0.99729  0.06217  0.91761  1.0000
  H   H1255     1.0  0.99770  0.07120  0.93372  1.0000
  H   H1256     1.0  0.87349  0.02931  0.00464  1.0000
  H   H1257     1.0  0.91588  0.01452  0.70822  1.0000
  H   H1258     1.0  0.00721  0.23291  0.58766  1.0000
  C   C798      1.0  0.87514  0.02334  0.53117  1.0000
  H   H1259     1.0  0.93282  0.11627  0.92191  1.0000
  H   H1260     1.0  0.96629  0.24090  0.66862  1.0000
  S   S325      1.0  0.86684  0.00166  0.70717  1.0000
  H   H1261     1.0  0.96432  0.02554  0.68850  1.0000
  H   H1262     1.0  0.86739  0.03035  0.79806  1.0000
  H   H1263     1.0  0.85632  0.17575  0.79254  1.0000
  H   H1264     1.0  0.99588  0.02992  0.85973  1.0000
  H   H1265     1.0  0.87489  0.23868  0.98584  1.0000
  H   H1266     1.0  0.81012  0.15264  0.82760  1.0000
  H   H1267     1.0  0.93288  0.11535  0.96008  1.0000
  C   C799      1.0  0.79383  0.19838  0.99589  1.0000
  H   H1268     1.0  0.81552  0.21976  0.96494  1.0000
  H   H1269     1.0  0.88926  0.12155  0.92244  1.0000
  H   H1270     1.0  0.98029  0.00770  0.69831  1.0000
  S   S326      1.0  0.87439  0.00357  0.96335  1.0000
  C   C800      1.0  0.87306  0.00412  0.00106  1.0000
  H   H1271     1.0  0.80405  0.14097  0.79690  1.0000
  H   H1272     1.0  0.80192  0.17675  0.79903  1.0000
  C   C801      1.0  0.81809  0.14719  0.80818  1.0000
  H   H1273     1.0  0.81824  0.18019  0.76726  1.0000
  N   N81       1.0  0.90735  0.10109  0.93997  1.0000
  H   H1274     1.0  0.87084  0.10834  0.94107  1.0000
  H   H1275     1.0  0.86639  0.03408  0.53850  1.0000
  C   C802      1.0  0.93055  0.10832  0.94045  1.0000
  H   H1276     1.0  0.82074  0.21162  0.53917  1.0000
  H   H1277     1.0  0.80962  0.23942  0.56185  1.0000
  S   S327      1.0  0.85381  0.23670  0.66042  1.0000
  C   C803      1.0  0.83973  0.15138  0.76475  1.0000
  C   C804      1.0  0.87863  0.21991  0.54047  1.0000
  H   H1278     1.0  0.87795  0.01319  0.57337  1.0000
  C   C805      1.0  0.96247  0.01350  0.69727  1.0000
  H   H1279     1.0  0.79498  0.23585  0.97072  1.0000
  C   C806      1.0  0.90515  0.09048  0.96468  1.0000
  Fe  Fe165     1.0  0.87160  0.23295  0.61814  1.0000
  H   H1280     1.0  0.95228  0.00671  0.68168  1.0000
  H   H1281     1.0  0.83137  0.13820  0.81565  1.0000
  H   H1282     1.0  0.88975  0.12078  0.96060  1.0000
  H   H1283     1.0  0.88866  0.08535  0.91346  1.0000
  H   H1284     1.0  0.96277  0.00730  0.51869  1.0000
  C   C807      1.0  0.90516  0.09195  0.91354  1.0000
  H   H1285     1.0  0.86046  0.15869  0.81486  1.0000
  H   H1286     1.0  0.85531  0.19079  0.97524  1.0000
  C   C808      1.0  0.92712  0.02127  0.72283  1.0000
  H   H1287     1.0  0.79669  0.16524  0.76793  1.0000
  H   H1288     1.0  0.81261  0.19517  0.99178  1.0000
  H   H1289     1.0  0.92774  0.02453  0.51682  1.0000
  S   S328      1.0  0.84825  0.22083  0.58656  1.0000
  H   H1290     1.0  0.85376  0.14265  0.77111  1.0000
  C   C809      1.0  0.86037  0.20032  0.98881  1.0000
  C   C810      1.0  0.96491  0.02293  0.74550  1.0000
  H   H1291     1.0  0.92775  0.03346  0.71438  1.0000
  H   H1292     1.0  0.95658  0.02341  0.76696  1.0000
  H   H1293     1.0  0.91797  0.02187  0.74377  1.0000
  H   H1294     1.0  0.00627  0.23644  0.68876  1.0000
  H   H1295     1.0  0.84193  0.99898  0.90859  1.0000
  H   H1296     1.0  0.85134  0.00355  0.85736  1.0000
  C   C811      1.0  0.76469  0.21929  0.00265  1.0000
  H   H1297     1.0  0.94407  0.04199  0.52078  1.0000
  C   C812      1.0  0.00386  0.24393  0.67032  1.0000
  S   S329      1.0  0.82498  0.26063  0.15851  1.0000
  C   C813      1.0  0.99777  0.26205  0.13856  1.0000
  H   H1298     1.0  0.83010  0.28785  0.12025  1.0000
  H   H1299     1.0  0.77869  0.26955  0.17716  1.0000
  H   H1300     1.0  0.80301  0.31077  0.11003  1.0000
  H   H1301     1.0  0.94166  0.26080  0.20124  1.0000
  H   H1302     1.0  0.99390  0.27458  0.13719  1.0000
  C   C814      1.0  0.77535  0.30309  0.13761  1.0000
  C   C815      1.0  0.79756  0.30168  0.12448  1.0000
  C   C816      1.0  0.81298  0.28870  0.13024  1.0000
  C   C817      1.0  0.80633  0.27705  0.14936  1.0000
  C   C818      1.0  0.78403  0.27842  0.16225  1.0000
  C   C819      1.0  0.76859  0.29130  0.15635  1.0000
  S   S330      1.0  0.94962  0.25929  0.13565  1.0000
  H   H1303     1.0  0.76228  0.28337  0.05053  1.0000
  C   C820      1.0  0.94077  0.25479  0.22231  1.0000
  C   C821      1.0  0.97918  0.25157  0.13749  1.0000
  H   H1304     1.0  0.76306  0.30085  0.07170  1.0000
  S   S331      1.0  0.88402  0.25031  0.10565  1.0000
  H   H1305     1.0  0.92192  0.25281  0.22691  1.0000
  H   H1306     1.0  0.94717  0.26307  0.23856  1.0000
  S   S332      1.0  0.89161  0.24851  0.17500  1.0000
  H   H1307     1.0  0.81122  0.25331  0.21809  1.0000
  H   H1308     1.0  0.98711  0.25042  0.23388  1.0000
  Fe  Fe166     1.0  0.86087  0.25012  0.14486  1.0000
  H   H1309     1.0  0.98186  0.24953  0.19646  1.0000
  S   S333      1.0  0.89999  0.25586  0.67963  1.0000
  Fe  Fe167     1.0  0.86574  0.26143  0.65736  1.0000
  S   S334      1.0  0.83964  0.27953  0.67602  1.0000
  C   C822      1.0  0.86351  0.27796  0.74396  1.0000
  H   H1310     1.0  0.78846  0.28083  0.57507  1.0000
  S   S335      1.0  0.88145  0.25820  0.61384  1.0000
  H   H1311     1.0  0.99485  0.27067  0.60444  1.0000
  C   C823      1.0  0.78075  0.30952  0.63391  1.0000
  C   C824      1.0  0.80309  0.30826  0.62121  1.0000
  C   C825      1.0  0.82102  0.29855  0.63317  1.0000
  C   C826      1.0  0.81676  0.29004  0.65802  1.0000
  C   C827      1.0  0.79440  0.29129  0.67066  1.0000
  C   C828      1.0  0.77640  0.30085  0.65853  1.0000
  H   H1312     1.0  0.83885  0.26387  0.53246  1.0000
  H   H1313     1.0  0.83841  0.29816  0.62384  1.0000
  H   H1314     1.0  0.79104  0.28502  0.69019  1.0000
  H   H1315     1.0  0.82550  0.27851  0.77809  1.0000
  C   C829      1.0  0.87103  0.25255  0.76558  1.0000
  S   S336      1.0  0.75901  0.32241  0.61901  1.0000
  H   H1316     1.0  0.76850  0.38515  0.60441  1.0000
  H   H1317     1.0  0.88417  0.25753  0.78015  1.0000
  N   N82       1.0  0.85258  0.26438  0.75765  1.0000
  H   H1318     1.0  0.84918  0.25099  0.56014  1.0000
  H   H1319     1.0  0.85156  0.27504  0.79902  1.0000
  S   S337      1.0  0.94969  0.25916  0.61925  1.0000
  C   C830      1.0  0.97777  0.25599  0.63499  1.0000
  N   N83       1.0  0.81678  0.26364  0.56971  1.0000
  H   H1320     1.0  0.80318  0.28150  0.54120  1.0000
  C   C831      1.0  0.80181  0.25142  0.55794  1.0000
  C   C832      1.0  0.83966  0.26965  0.78340  1.0000
  C   C833      1.0  0.83606  0.25731  0.73764  1.0000
  C   C834      1.0  0.81933  0.26120  0.60067  1.0000
  C   C835      1.0  0.76928  0.37728  0.62332  1.0000
  H   H1321     1.0  0.75931  0.30180  0.66863  1.0000
  H   H1322     1.0  0.80670  0.31511  0.60242  1.0000
  H   H1323     1.0  0.83124  0.25960  0.79420  1.0000
  H   H1324     1.0  0.82247  0.26608  0.73020  1.0000
  H   H1325     1.0  0.78264  0.38181  0.63810  1.0000
  H   H1326     1.0  0.78404  0.25190  0.56783  1.0000
  H   H1327     1.0  0.87609  0.28364  0.75837  1.0000
  H   H1328     1.0  0.84536  0.25266  0.71841  1.0000
  H   H1329     1.0  0.81704  0.28883  0.57244  1.0000
  H   H1330     1.0  0.87332  0.27433  0.72441  1.0000
  C   C836      1.0  0.80585  0.27937  0.56432  1.0000
  H   H1331     1.0  0.77573  0.36542  0.61601  1.0000
  C   C837      1.0  0.99733  0.26310  0.62275  1.0000
  H   H1332     1.0  0.85006  0.28704  0.73729  1.0000
  H   H1333     1.0  0.83163  0.26958  0.61004  1.0000
  H   H1334     1.0  0.80226  0.26280  0.61204  1.0000
  C   C838      1.0  0.84015  0.26255  0.55593  1.0000
  H   H1335     1.0  0.85184  0.27177  0.56391  1.0000
  H   H1336     1.0  0.82640  0.24917  0.60566  1.0000
  H   H1337     1.0  0.76102  0.36970  0.67758  1.0000
  H   H1338     1.0  0.79971  0.25272  0.53454  1.0000
  Fe  Fe168     1.0  0.91497  0.25034  0.63638  1.0000
  H   H1339     1.0  0.88073  0.24798  0.74654  1.0000
  H   H1340     1.0  0.77836  0.74441  0.39555  1.0000
  H   H1341     1.0  0.79459  0.72942  0.32879  1.0000
  C   C839      1.0  0.78502  0.71071  0.39162  1.0000
  C   C840      1.0  0.80638  0.71387  0.40488  1.0000
  C   C841      1.0  0.82315  0.72306  0.39121  1.0000
  C   C842      1.0  0.81902  0.72871  0.36372  1.0000
  C   C843      1.0  0.79791  0.72521  0.35012  1.0000
  C   C844      1.0  0.78082  0.71644  0.36415  1.0000
  H   H1342     1.0  0.80991  0.70927  0.42594  1.0000
  H   H1343     1.0  0.83953  0.72543  0.40168  1.0000
  S   S338      1.0  0.76389  0.69996  0.41036  1.0000
  C   C845      1.0  0.81939  0.74476  0.26808  1.0000
  H   H1344     1.0  0.80187  0.73876  0.44055  1.0000
  H   H1345     1.0  0.76448  0.71400  0.35365  1.0000
  S   S339      1.0  0.84003  0.73982  0.34548  1.0000
  H   H1346     1.0  0.82529  0.73537  0.25297  1.0000
  H   H1347     1.0  0.82116  0.73977  0.28987  1.0000
  H   H1348     1.0  0.75947  0.74351  0.44189  1.0000
  H   H1349     1.0  0.86538  0.74591  0.25515  1.0000
  H   H1350     1.0  0.80039  0.74739  0.26430  1.0000
  H   H1351     1.0  0.81385  0.70197  0.93783  1.0000
  C   C846      1.0  0.90617  0.72043  0.84911  1.0000
  C   C847      1.0  0.78766  0.70970  0.90752  1.0000
  C   C848      1.0  0.81027  0.70925  0.91937  1.0000
  C   C849      1.0  0.82847  0.71771  0.90695  1.0000
  C   C850      1.0  0.82421  0.72692  0.88273  1.0000
  H   H1352     1.0  0.96275  0.73200  0.84751  1.0000
  C   C851      1.0  0.78330  0.71898  0.88339  1.0000
  C   C852      1.0  0.94366  0.73236  0.84240  1.0000
  H   H1353     1.0  0.89815  0.73145  0.85809  1.0000
  H   H1354     1.0  0.96060  0.70274  0.84813  1.0000
  H   H1355     1.0  0.84601  0.71672  0.91563  1.0000
  H   H1356     1.0  0.92715  0.73009  0.89613  1.0000
  C   C853      1.0  0.80157  0.72745  0.87094  1.0000
  C   C854      1.0  0.93501  0.71918  0.88652  1.0000
  H   H1357     1.0  0.89639  0.71056  0.85846  1.0000
  H   H1358     1.0  0.95399  0.71887  0.89217  1.0000
  C   C855      1.0  0.94145  0.70411  0.84366  1.0000
  N   N84       1.0  0.93157  0.71902  0.85541  1.0000
  H   H1359     1.0  0.79822  0.73419  0.85178  1.0000
  H   H1360     1.0  0.93274  0.69379  0.85302  1.0000
  H   H1361     1.0  0.93913  0.70361  0.82021  1.0000
  H   H1362     1.0  0.81443  0.74368  0.00220  1.0000
  S   S340      1.0  0.76564  0.69832  0.92337  1.0000
  H   H1363     1.0  0.92668  0.70907  0.89705  1.0000
  H   H1364     1.0  0.94177  0.73254  0.81890  1.0000
  H   H1365     1.0  0.90275  0.72067  0.82586  1.0000
  H   H1366     1.0  0.93643  0.74381  0.85047  1.0000
  H   H1367     1.0  0.76601  0.71936  0.87393  1.0000
  S   S341      1.0  0.84763  0.73586  0.86464  1.0000
  H   H1368     1.0  0.79155  0.73448  0.96080  1.0000
  H   H1369     1.0  0.83448  0.73550  0.95703  1.0000
  H   H1370     1.0  0.78934  0.74630  0.92940  1.0000
  C   C856      1.0  0.79053  0.74687  0.95301  1.0000
  H   H1371     1.0  0.00419  0.74590  0.91614  1.0000
  Fe  Fe169     1.0  0.77681  0.81259  0.15743  1.0000
  S   S342      1.0  0.80892  0.80067  0.13807  1.0000
  Fe  Fe170     1.0  0.80158  0.84461  0.16084  1.0000
  S   S343      1.0  0.83482  0.83441  0.14176  1.0000
  S   S344      1.0  0.80154  0.86907  0.18090  1.0000
  Fe  Fe171     1.0  0.81105  0.82239  0.11105  1.0000
  S   S345      1.0  0.81484  0.82420  0.06294  1.0000
  Fe  Fe172     1.0  0.82917  0.81382  0.17086  1.0000
  S   S346      1.0  0.85807  0.80232  0.19794  1.0000
  S   S347      1.0  0.77763  0.83381  0.12869  1.0000
  S   S348      1.0  0.79720  0.82453  0.19152  1.0000
  H   H1372     1.0  0.96415  0.98051  0.27422  1.0000
  S   S349      1.0  0.84335  0.77896  0.38029  1.0000
  Fe  Fe173     1.0  0.91001  0.76979  0.39021  1.0000
  S   S350      1.0  0.89249  0.79295  0.40297  1.0000
  H   H1373     1.0  0.99341  0.96024  0.23244  1.0000
  Fe  Fe174     1.0  0.86377  0.77843  0.42089  1.0000
  S   S351      1.0  0.84382  0.77898  0.46290  1.0000
  Fe  Fe175     1.0  0.87366  0.79120  0.36091  1.0000
  S   S352      1.0  0.86292  0.81150  0.33196  1.0000
  H   H1374     1.0  0.83462  0.84784  0.21047  1.0000
  S   S353      1.0  0.89286  0.76904  0.34691  1.0000
  Fe  Fe176     1.0  0.86514  0.95067  0.14625  1.0000
  S   S354      1.0  0.85146  0.97444  0.16179  1.0000
  S   S355      1.0  0.84445  0.93078  0.12725  1.0000
  Fe  Fe177     1.0  0.91584  0.96152  0.14439  1.0000
  S   S356      1.0  0.95197  0.95232  0.13210  1.0000
  Fe  Fe178     1.0  0.88305  0.97398  0.19101  1.0000
  H   H1375     1.0  0.95546  0.99131  0.19849  1.0000
  Fe  Fe179     1.0  0.87590  0.98440  0.12891  1.0000
  C   C857      1.0  0.95554  0.97149  0.26118  1.0000
  S   S357      1.0  0.89476  0.94936  0.17746  1.0000
  S   S358      1.0  0.88751  0.96099  0.11187  1.0000
  C   C858      1.0  0.97590  0.96435  0.13784  1.0000
  N   N85       1.0  0.93036  0.78223  0.48417  1.0000
  C   C859      1.0  0.97241  0.98023  0.14476  1.0000
  H   H1376     1.0  0.84119  0.77566  0.23202  1.0000
  C   C860      1.0  0.99171  0.98976  0.14835  1.0000
  C   C861      1.0  0.85835  0.75495  0.27026  1.0000
  H   H1377     1.0  0.81881  0.98801  0.07062  1.0000
  H   H1378     1.0  0.79951  0.98988  0.10084  1.0000
  N   N86       1.0  0.83331  0.75898  0.26476  1.0000
  H   H1379     1.0  0.93629  0.97262  0.26551  1.0000
  H   H1380     1.0  0.88624  0.85773  0.25341  1.0000
  H   H1381     1.0  0.84684  0.84802  0.24553  1.0000
  C   C862      1.0  0.81474  0.88579  0.16594  1.0000
  C   C863      1.0  0.81875  0.89886  0.18333  1.0000
  C   C864      1.0  0.82892  0.91246  0.17218  1.0000
  C   C865      1.0  0.83461  0.91326  0.14330  1.0000
  C   C866      1.0  0.83071  0.90016  0.12598  1.0000
  C   C867      1.0  0.82118  0.88641  0.13729  1.0000
  H   H1382     1.0  0.81376  0.89852  0.20551  1.0000
  H   H1383     1.0  0.83154  0.92250  0.18572  1.0000
  H   H1384     1.0  0.83492  0.90066  0.10357  1.0000
  H   H1385     1.0  0.81818  0.87646  0.12364  1.0000
  C   C868      1.0  0.83110  0.81114  0.04045  1.0000
  H   H1386     1.0  0.96170  0.95969  0.26889  1.0000
  H   H1387     1.0  0.86945  0.97890  0.05770  1.0000
  C   C869      1.0  0.84752  0.79186  0.49189  1.0000
  H   H1388     1.0  0.88424  0.86806  0.17614  1.0000
  C   C870      1.0  0.99878  0.95805  0.13454  1.0000
  H   H1389     1.0  0.84139  0.95649  0.08699  1.0000
  H   H1390     1.0  0.86968  0.83507  0.18978  1.0000
  H   H1391     1.0  0.94670  0.80338  0.47043  1.0000
  H   H1392     1.0  0.84279  0.79531  0.07356  1.0000
  C   C871      1.0  0.85906  0.80496  0.23523  1.0000
  C   C872      1.0  0.87671  0.79701  0.25096  1.0000
  C   C873      1.0  0.87779  0.79864  0.28070  1.0000
  C   C874      1.0  0.86156  0.80858  0.29486  1.0000
  C   C875      1.0  0.84414  0.81670  0.27907  1.0000
  C   C876      1.0  0.84265  0.81470  0.24948  1.0000
  H   H1393     1.0  0.88961  0.78954  0.24010  1.0000
  H   H1394     1.0  0.89152  0.79250  0.29259  1.0000
  H   H1395     1.0  0.83153  0.82443  0.28987  1.0000
  H   H1396     1.0  0.82888  0.82080  0.23777  1.0000
  C   C877      1.0  0.97895  0.77427  0.36502  1.0000
  H   H1397     1.0  0.86537  0.77753  0.04083  1.0000
  H   H1398     1.0  0.79014  0.78082  0.45558  1.0000
  H   H1399     1.0  0.99583  0.98111  0.23703  1.0000
  C   C878      1.0  0.81363  0.98235  0.09094  1.0000
  S   S359      1.0  0.90619  0.98586  0.15934  1.0000
  H   H1400     1.0  0.95492  0.98525  0.14719  1.0000
  C   C879      1.0  0.84318  0.79781  0.05103  1.0000
  H   H1401     1.0  0.76376  0.75885  0.46740  1.0000
  H   H1402     1.0  0.93768  0.79089  0.44222  1.0000
  H   H1403     1.0  0.94080  0.96442  0.03217  1.0000
  H   H1404     1.0  0.96390  0.77656  0.35151  1.0000
  H   H1405     1.0  0.81476  0.95894  0.12914  1.0000
  H   H1406     1.0  0.93561  0.95992  0.06893  1.0000
  H   H1407     1.0  0.99049  0.97315  0.20249  1.0000
  C   C880      1.0  0.00183  0.77680  0.35469  1.0000
  S   S360      1.0  0.94737  0.76427  0.40640  1.0000
  C   C881      1.0  0.91179  0.77185  0.47435  1.0000
  Fe  Fe180     1.0  0.86316  0.75680  0.36868  1.0000
  S   S361      1.0  0.88867  0.97820  0.23856  1.0000
  H   H1408     1.0  0.79469  0.94660  0.11176  1.0000
  H   H1409     1.0  0.93426  0.98073  0.10430  1.0000
  H   H1410     1.0  0.78487  0.96569  0.12451  1.0000
  H   H1411     1.0  0.87040  0.80754  0.47021  1.0000
  H   H1412     1.0  0.95129  0.96277  0.19109  1.0000
  C   C882      1.0  0.95188  0.98929  0.22139  1.0000
  H   H1413     1.0  0.86934  0.76544  0.26820  1.0000
  H   H1414     1.0  0.90582  0.98471  0.50521  1.0000
  C   C883      1.0  0.84577  0.85460  0.22511  1.0000
  H   H1415     1.0  0.83624  0.86603  0.22918  1.0000
  H   H1416     1.0  0.88218  0.83370  0.22456  1.0000
  H   H1417     1.0  0.97719  0.99227  0.07266  1.0000
  C   C884      1.0  0.94863  0.96133  0.21431  1.0000
  H   H1418     1.0  0.89813  0.84262  0.19613  1.0000
  C   C885      1.0  0.97570  0.76844  0.39251  1.0000
  S   S362      1.0  0.88184  0.75527  0.41049  1.0000
  C   C886      1.0  0.89742  0.99555  0.51260  1.0000
  N   N87       1.0  0.86929  0.85688  0.21277  1.0000
  H   H1419     1.0  0.85503  0.86134  0.17117  1.0000
  H   H1420     1.0  0.92938  0.96187  0.21832  1.0000
  C   C887      1.0  0.86702  0.86663  0.18683  1.0000
  H   H1421     1.0  0.85953  0.87858  0.19170  1.0000
  C   C888      1.0  0.88035  0.84143  0.20552  1.0000
  H   H1422     1.0  0.87593  0.87649  0.23989  1.0000
  C   C889      1.0  0.88400  0.86488  0.23369  1.0000
  H   H1423     1.0  0.93256  0.99081  0.22462  1.0000
  H   H1424     1.0  0.90180  0.86695  0.22496  1.0000
  H   H1425     1.0  0.76762  0.76407  0.38867  1.0000
  C   C890      1.0  0.98619  0.97195  0.22549  1.0000
  C   C891      1.0  0.88285  0.99455  0.26150  1.0000
  H   H1426     1.0  0.95522  0.94929  0.22007  1.0000
  H   H1427     1.0  0.91608  0.80239  0.46165  1.0000
  H   H1428     1.0  0.96738  0.78058  0.49318  1.0000
  C   C892      1.0  0.86159  0.80495  0.48997  1.0000
  C   C893      1.0  0.93287  0.96911  0.05219  1.0000
  C   C894      1.0  0.78792  0.77767  0.43281  1.0000
  C   C895      1.0  0.79973  0.95907  0.11414  1.0000
  C   C896      1.0  0.83059  0.76512  0.23549  1.0000
  H   H1429     1.0  0.90282  0.98401  0.29589  1.0000
  C   C897      1.0  0.78212  0.75701  0.39876  1.0000
  H   H1430     1.0  0.91631  0.76656  0.45337  1.0000
  C   C898      1.0  0.99563  0.76548  0.40963  1.0000
  H   H1431     1.0  0.83047  0.96136  0.05228  1.0000
  H   H1432     1.0  0.00159  0.94577  0.12908  1.0000
  H   H1433     1.0  0.82914  0.98261  0.10521  1.0000
  H   H1434     1.0  0.77045  0.97326  0.07681  1.0000
  N   N88       1.0  0.96059  0.97352  0.23059  1.0000
  H   H1435     1.0  0.79861  0.75934  0.38691  1.0000
  C   C899      1.0  0.85596  0.78776  0.03240  1.0000
  H   H1436     1.0  0.91361  0.97063  0.04882  1.0000
  H   H1437     1.0  0.82714  0.76694  0.30758  1.0000
  N   N89       1.0  0.80607  0.96609  0.08651  1.0000
  H   H1438     1.0  0.81201  0.76866  0.23077  1.0000
  N   N90       1.0  0.78432  0.76067  0.42929  1.0000
  H   H1439     1.0  0.80412  0.78129  0.42165  1.0000
  C   C900      1.0  0.82548  0.95663  0.07341  1.0000
  H   H1440     1.0  0.77942  0.95414  0.06375  1.0000
  H   H1441     1.0  0.95818  0.76816  0.46496  1.0000
  H   H1442     1.0  0.77296  0.78492  0.42419  1.0000
  C   C901      1.0  0.95289  0.77312  0.48602  1.0000
  C   C902      1.0  0.87047  0.98988  0.04627  1.0000
  C   C903      1.0  0.80458  0.75161  0.44129  1.0000
  H   H1443     1.0  0.83650  0.75626  0.21940  1.0000
  H   H1444     1.0  0.80603  0.77432  0.28203  1.0000
  H   H1445     1.0  0.90908  0.76199  0.48943  1.0000
  C   C904      1.0  0.93279  0.79532  0.46379  1.0000
  H   H1446     1.0  0.86099  0.75025  0.29217  1.0000
  H   H1447     1.0  0.89468  0.77840  0.47195  1.0000
  H   H1448     1.0  0.82108  0.75390  0.42943  1.0000
  H   H1449     1.0  0.78962  0.97152  0.04650  1.0000
  H   H1450     1.0  0.99345  0.76084  0.43082  1.0000
  C   C905      1.0  0.82491  0.77108  0.28525  1.0000
  C   C906      1.0  0.78547  0.96626  0.06753  1.0000
  H   H1451     1.0  0.82076  0.94412  0.07070  1.0000
  H   H1452     1.0  0.83483  0.78204  0.28303  1.0000
  H   H1453     1.0  0.80767  0.75478  0.46387  1.0000
  C   C907      1.0  0.76265  0.75631  0.44428  1.0000
  H   H1454     1.0  0.97248  0.97208  0.08103  1.0000
  C   C908      1.0  0.89227  0.99413  0.28913  1.0000
  C   C909      1.0  0.93228  0.98971  0.08727  1.0000
  H   H1455     1.0  0.95171  0.76305  0.50102  1.0000
  H   H1456     1.0  0.91315  0.99222  0.08459  1.0000
  H   H1457     1.0  0.00412  0.78105  0.33322  1.0000
  N   N91       1.0  0.94330  0.98407  0.06057  1.0000
  H   H1458     1.0  0.87481  0.82502  0.51203  1.0000
  H   H1459     1.0  0.97789  0.97767  0.04500  1.0000
  C   C910      1.0  0.96883  0.98145  0.06494  1.0000
  C   C911      1.0  0.86397  0.81487  0.51365  1.0000
  C   C912      1.0  0.93914  0.99598  0.03806  1.0000
  H   H1460     1.0  0.94692  0.99209  0.01742  1.0000
  C   C913      1.0  0.92396  0.78861  0.51245  1.0000
  H   H1461     1.0  0.90695  0.79545  0.51180  1.0000
  C   C914      1.0  0.87193  0.98992  0.01635  1.0000
  Fe  Fe181     1.0  0.79571  0.81378  0.64984  1.0000
  S   S363      1.0  0.83070  0.80190  0.63980  1.0000
  Fe  Fe182     1.0  0.81898  0.84605  0.65491  1.0000
  S   S364      1.0  0.85505  0.83561  0.64685  1.0000
  S   S365      1.0  0.81227  0.87265  0.65847  1.0000
  Fe  Fe183     1.0  0.83777  0.82246  0.61157  1.0000
  S   S366      1.0  0.85597  0.82456  0.56851  1.0000
  Fe  Fe184     1.0  0.84435  0.81611  0.67599  1.0000
  S   S367      1.0  0.86678  0.80157  0.70684  1.0000
  S   S368      1.0  0.80178  0.83347  0.61862  1.0000
  S   S369      1.0  0.80938  0.82745  0.68695  1.0000
  H   H1462     1.0  0.84630  0.89799  0.58982  1.0000
  S   S370      1.0  0.85289  0.77826  0.89717  1.0000
  Fe  Fe185     1.0  0.92013  0.76638  0.89414  1.0000
  S   S371      1.0  0.90672  0.79027  0.90852  1.0000
  H   H1463     1.0  0.90950  0.98753  0.79521  1.0000
  Fe  Fe186     1.0  0.87909  0.77750  0.93293  1.0000
  S   S372      1.0  0.87281  0.77762  0.98082  1.0000
  Fe  Fe187     1.0  0.88167  0.78892  0.87123  1.0000
  S   S373      1.0  0.87154  0.80917  0.84149  1.0000
  H   H1464     1.0  0.87002  0.87479  0.60142  1.0000
  H   H1465     1.0  0.82503  0.79405  0.76902  1.0000
  Fe  Fe188     1.0  0.89300  0.95027  0.65524  1.0000
  S   S374      1.0  0.86868  0.97022  0.64048  1.0000
  S   S375      1.0  0.89246  0.92344  0.65975  1.0000
  Fe  Fe189     1.0  0.93401  0.97234  0.66267  1.0000
  S   S376      1.0  0.97000  0.97331  0.68212  1.0000
  Fe  Fe190     1.0  0.88478  0.98438  0.67611  1.0000
  H   H1466     1.0  0.82083  0.89680  0.56748  1.0000
  Fe  Fe191     1.0  0.89923  0.97837  0.61386  1.0000
  H   H1467     1.0  0.76486  0.78538  0.71820  1.0000
  S   S377      1.0  0.90642  0.96392  0.69240  1.0000
  S   S378      1.0  0.92245  0.95754  0.62669  1.0000
  C   C915      1.0  0.99487  0.97012  0.66042  1.0000
  C   C916      1.0  0.99279  0.96553  0.63206  1.0000
  H   H1468     1.0  0.79328  0.77841  0.96074  1.0000
  H   H1469     1.0  0.97562  0.96475  0.62255  1.0000
  H   H1470     1.0  0.88778  0.97952  0.90739  1.0000
  S   S379      1.0  0.91340  0.99377  0.64829  1.0000
  H   H1471     1.0  0.95820  0.93941  0.70372  1.0000
  H   H1472     1.0  0.86205  0.98757  0.83591  1.0000
  C   C917      1.0  0.88179  0.98574  0.88775  1.0000
  H   H1473     1.0  0.96474  0.90349  0.70858  1.0000
  H   H1474     1.0  0.79666  0.76161  0.00314  1.0000
  H   H1475     1.0  0.82954  0.77860  0.72419  1.0000
  C   C918      1.0  0.83461  0.88675  0.66026  1.0000
  C   C919      1.0  0.85834  0.88223  0.66293  1.0000
  C   C920      1.0  0.87567  0.89365  0.66273  1.0000
  C   C921      1.0  0.86957  0.90975  0.65997  1.0000
  C   C922      1.0  0.84584  0.91431  0.65742  1.0000
  C   C923      1.0  0.82848  0.90286  0.65768  1.0000
  H   H1476     1.0  0.86338  0.86992  0.66527  1.0000
  H   H1477     1.0  0.89392  0.88996  0.66490  1.0000
  H   H1478     1.0  0.84085  0.92665  0.65538  1.0000
  H   H1479     1.0  0.81017  0.90652  0.65570  1.0000
  C   C924      1.0  0.85231  0.81179  0.53936  1.0000
  S   S380      1.0  0.76858  0.79502  0.65814  1.0000
  H   H1480     1.0  0.94077  0.91763  0.63937  1.0000
  H   H1481     1.0  0.86926  0.88408  0.55062  1.0000
  S   S381      1.0  0.90178  0.98215  0.56564  1.0000
  H   H1482     1.0  0.82025  0.88926  0.60301  1.0000
  H   H1483     1.0  0.82572  0.85286  0.56105  1.0000
  H   H1484     1.0  0.86303  0.85579  0.58781  1.0000
  H   H1485     1.0  0.99384  0.92107  0.64568  1.0000
  H   H1486     1.0  0.82918  0.79623  0.56089  1.0000
  C   C925      1.0  0.86781  0.80408  0.74416  1.0000
  C   C926      1.0  0.87691  0.79164  0.76094  1.0000
  C   C927      1.0  0.87786  0.79297  0.79072  1.0000
  C   C928      1.0  0.87002  0.80687  0.80407  1.0000
  C   C929      1.0  0.86090  0.81933  0.78726  1.0000
  C   C930      1.0  0.85971  0.81794  0.75744  1.0000
  H   H1487     1.0  0.88332  0.78091  0.75086  1.0000
  H   H1488     1.0  0.88501  0.78333  0.80327  1.0000
  H   H1489     1.0  0.85489  0.83016  0.79737  1.0000
  H   H1490     1.0  0.85281  0.82765  0.74475  1.0000
  H   H1491     1.0  0.98769  0.91744  0.70995  1.0000
  H   H1492     1.0  0.80824  0.87006  0.55129  1.0000
  H   H1493     1.0  0.96188  0.90161  0.64382  1.0000
  H   H1494     1.0  0.81190  0.80973  0.74833  1.0000
  H   H1495     1.0  0.80715  0.77241  0.92796  1.0000
  H   H1496     1.0  0.84292  0.88241  0.53008  1.0000
  S   S382      1.0  0.89695  0.76590  0.85537  1.0000
  N   N92       1.0  0.96439  0.92026  0.67443  1.0000
  H   H1497     1.0  0.78441  0.76369  0.74555  1.0000
  C   C931      1.0  0.95054  0.91035  0.65547  1.0000
  C   C932      1.0  0.98134  0.92906  0.65734  1.0000
  C   C933      1.0  0.94845  0.93149  0.68954  1.0000
  H   H1498     1.0  0.84675  0.97995  0.92382  1.0000
  H   H1499     1.0  0.89443  0.98275  0.87031  1.0000
  N   N93       1.0  0.79673  0.78721  0.74216  1.0000
  H   H1500     1.0  0.93763  0.99057  0.72208  1.0000
  C   C934      1.0  0.85036  0.99062  0.85425  1.0000
  H   H1501     1.0  0.83206  0.98816  0.84797  1.0000
  C   C935      1.0  0.83581  0.78882  0.51754  1.0000
  H   H1502     1.0  0.82308  0.98339  0.89900  1.0000
  H   H1503     1.0  0.93854  0.93908  0.67427  1.0000
  H   H1504     1.0  0.82490  0.77871  0.51921  1.0000
  H   H1505     1.0  0.93711  0.90384  0.66757  1.0000
  S   S383      1.0  0.95749  0.75592  0.90029  1.0000
  H   H1506     1.0  0.81528  0.79414  0.70458  1.0000
  C   C936      1.0  0.98776  0.77407  0.86832  1.0000
  H   H1507     1.0  0.97214  0.93667  0.64131  1.0000
  N   N94       1.0  0.81111  0.75569  0.96209  1.0000
  H   H1508     1.0  0.80904  0.86353  0.58757  1.0000
  H   H1509     1.0  0.86197  0.95778  0.89368  1.0000
  C   C937      1.0  0.83155  0.89042  0.58381  1.0000
  C   C938      1.0  0.80806  0.79883  0.76040  1.0000
  H   H1510     1.0  0.99182  0.93691  0.67088  1.0000
  C   C939      1.0  0.85531  0.86724  0.59530  1.0000
  N   N95       1.0  0.85756  0.98183  0.88012  1.0000
  C   C940      1.0  0.77390  0.79383  0.73211  1.0000
  H   H1511     1.0  0.96645  0.99133  0.73699  1.0000
  C   C941      1.0  0.83181  0.81424  0.01109  1.0000
  C   C942      1.0  0.98538  0.76237  0.88892  1.0000
  C   C943      1.0  0.85683  0.79094  0.00310  1.0000
  C   C944      1.0  0.83820  0.79872  0.54121  1.0000
  C   C945      1.0  0.84462  0.80420  0.99245  1.0000
  C   C946      1.0  0.81989  0.86489  0.56802  1.0000
  H   H1512     1.0  0.78159  0.77512  0.77754  1.0000
  H   H1513     1.0  0.84521  0.80681  0.96997  1.0000
  H   H1514     1.0  0.97225  0.77977  0.85922  1.0000
  C   C947      1.0  0.79298  0.77271  0.75867  1.0000
  H   H1515     1.0  0.82800  0.76239  0.00077  1.0000
  C   C948      1.0  0.85379  0.87670  0.54706  1.0000
  H   H1516     1.0  0.86039  0.86508  0.53885  1.0000
  H   H1517     1.0  0.83855  0.96141  0.86873  1.0000
  H   H1518     1.0  0.79682  0.80230  0.77887  1.0000
  C   C949      1.0  0.81202  0.78347  0.71747  1.0000
  N   N96       1.0  0.84014  0.87484  0.57352  1.0000
  H   H1519     1.0  0.76189  0.79689  0.75010  1.0000
  C   C950      1.0  0.85660  0.96477  0.87463  1.0000
  Fe  Fe192     1.0  0.86939  0.75527  0.88320  1.0000
  S   S384      1.0  0.89365  0.75359  0.92031  1.0000
  H   H1520     1.0  0.80396  0.77487  0.70301  1.0000
  H   H1521     1.0  0.77384  0.75240  0.96107  1.0000
  C   C951      1.0  0.83266  0.74801  0.95032  1.0000
  H   H1522     1.0  0.84516  0.86478  0.61485  1.0000
  C   C952      1.0  0.81254  0.75581  0.99344  1.0000
  H   H1523     1.0  0.82457  0.77882  0.95714  1.0000
  H   H1524     1.0  0.82253  0.82456  0.00277  1.0000
  C   C953      1.0  0.80888  0.77204  0.95150  1.0000
  C   C954      1.0  0.84156  0.98618  0.90385  1.0000
  H   H1525     1.0  0.93514  0.92535  0.70247  1.0000
  C   C955      1.0  0.89054  0.99334  0.75681  1.0000
  H   H1526     1.0  0.86854  0.96115  0.85684  1.0000
  H   H1527     1.0  0.87210  0.97889  0.00493  1.0000
  C   C956      1.0  0.97714  0.91024  0.69534  1.0000
  H   H1528     1.0  0.89694  0.98299  0.74558  1.0000
  H   H1529     1.0  0.77616  0.80471  0.71931  1.0000
  H   H1530     1.0  0.80993  0.76744  0.76652  1.0000
  H   H1531     1.0  0.84864  0.75385  0.95762  1.0000
  C   C957      1.0  0.00581  0.75504  0.90032  1.0000
  H   H1532     1.0  0.92198  0.77904  0.52835  1.0000
  H   H1533     1.0  0.98936  0.90162  0.68467  1.0000
  H   H1534     1.0  0.83279  0.74846  0.92671  1.0000
  H   H1535     1.0  0.93750  0.79658  0.52049  1.0000
  C   C958      1.0  0.89758  0.99595  0.78503  1.0000
  C   C959      1.0  0.89287  0.99752  0.54184  1.0000
  C   C960      1.0  0.94897  0.99759  0.73611  1.0000
  H   H1536     1.0  0.94128  0.99741  0.75783  1.0000
