data_image0
_chemical_formula_structural       FeS2FeS2FeSFeS3FeS2FeS2FeSFeS3FeS2FeS2FeSFeS3FeS2FeS2FeSFeS3FeS2FeS2FeSFeS3FeS2FeS2FeSFeS3FeS2FeS2FeSFeS3FeS2FeS2FeSFeS3FeS2FeS2FeSFeS3FeS2FeS2FeSFeS3FeS2FeS2FeSFeS3FeS2FeS2FeSFeS3FeS2FeS2FeSFeS3FeS2FeS2FeSFeS3FeS2FeS2FeSFeS3FeS2FeS2FeSFeS3C6H4C6H4C6H4C6H4C6H4C6H4C6H4C6H4C6H4C6H4C6H4C6H4C6H4C6H4C6H4C6H4C6H4C6H4C6H4C6H4C6H4C6H4C6H4C6H4C6H4C6H4C6H4C6H4C6H4C6H4C6H4C6H4NC4H12NC4H12NC4H12NC4H12NC4H12NC4H12NC4H12NC4H12NC4H12NC4H12NC4H12NC4H12NC4H12NC4H12NC4H12NC4H12NC4H12NC4H12NC4H12NC4H12NC4H12NC4H12NC4H12NC4H12NC4H12NC4H12NC4H12NC4H12NC4H12NC4H12NC4H12NC4H12
_chemical_formula_sum              "Fe64 S128 C320 H512 N32"
_cell_length_a       33.7320877467986
_cell_length_b       22.945534304926042
_cell_length_c       38.326778871472115
_cell_angle_alpha    89.90618212095126
_cell_angle_beta     89.76054771420347
_cell_angle_gamma    92.24435592368532

_space_group_name_H-M_alt    "P 1"
_space_group_IT_number       1

loop_
  _space_group_symop_operation_xyz
  'x, y, z'

loop_
  _atom_site_type_symbol
  _atom_site_label
  _atom_site_symmetry_multiplicity
  _atom_site_fract_x
  _atom_site_fract_y
  _atom_site_fract_z
  _atom_site_occupancy
  Fe  Fe1       1.0  0.8885119192946029  0.8412661470295969  0.5053747842299349  1.0000
  S   S1        1.0  0.8987800858585372  0.9113199169627442  0.5451340754025473  1.0000
  S   S2        1.0  0.8537799389963046  0.7602495422506146  0.5211998114672607  1.0000
  Fe  Fe2       1.0  0.9306595345478246  0.9104446398799793  0.44813165818652456  1.0000
  S   S3        1.0  0.9451488506933478  0.9864657886485179  0.4829073789578864  1.0000
  S   S4        1.0  0.953393542499768  0.9153479216443018  0.393096098285054  1.0000
  Fe  Fe3       1.0  0.959814998400991  0.9186452122877147  0.5223055638595149  1.0000
  S   S5        1.0  0.013909208395676664  0.932207881372785  0.5552235742126118  1.0000
  Fe  Fe4       1.0  0.8829223871713908  0.9723993006281828  0.5022425855326809  1.0000
  S   S6        1.0  0.8440381184043948  0.04749691234975395  0.5122599009383363  1.0000
  S   S7        1.0  0.9513321235536665  0.8431793413275056  0.4857930014253532  1.0000
  S   S8        1.0  0.8666424326518082  0.9015111476786783  0.4641951815284238  1.0000
  Fe  Fe5       1.0  0.93871494155612  0.6621859801248494  0.7723567521020763  1.0000
  S   S9        1.0  0.9958926432951974  0.650143861826463  0.7437054326641499  1.0000
  S   S10       1.0  0.9305438730622501  0.6206025606465141  0.8252279739470667  1.0000
  Fe  Fe6       1.0  0.8999836853563257  0.7167126091985063  0.7093426157202554  1.0000
  S   S11       1.0  0.9538529585783485  0.7094949220110315  0.675706517481184  1.0000
  S   S12       1.0  0.8447529432272117  0.7499382494520276  0.6854765866969658  1.0000
  Fe  Fe7       1.0  0.9574621711016446  0.6208874571577108  0.6990935680298667  1.0000
  S   S13       1.0  0.9667670288537461  0.5442378468301542  0.6644534891150209  1.0000
  Fe  Fe8       1.0  0.9864424096290324  0.7401776558414502  0.7232896551842765  1.0000
  S   S14       1.0  0.036833300003646485  0.8057937162910396  0.7173222233415103  1.0000
  S   S15       1.0  0.9008217299433808  0.6251735347446106  0.7293383963676461  1.0000
  S   S16       1.0  0.932097900770716  0.7553647107703924  0.7554845273024345  1.0000
  Fe  Fe9       1.0  0.21487197856273377  0.07842922409702457  0.2761042495056901  1.0000
  S   S17       1.0  0.18709958598559592  0.15463651236523623  0.30173006995055235  1.0000
  S   S18       1.0  0.23134208701418205  0.08178982586009953  0.21943575499269502  1.0000
  Fe  Fe10      1.0  0.2142034046118006  0.007248222588644548  0.3421888972360745  1.0000
  S   S19       1.0  0.18561389988617097  0.07649711655397295  0.37382114265632155  1.0000
  S   S20       1.0  0.23019658590324957  0.9190997603534398  0.3617491546673132  1.0000
  Fe  Fe11      1.0  0.14715164968354172  0.08675414072967702  0.3272434281540263  1.0000
  S   S21       1.0  0.08163095379876804  0.09270635154709961  0.33409552312219537  1.0000
  Fe  Fe12      1.0  0.22845341505625374  0.1373624149407935  0.3458410369170689  1.0000
  S   S22       1.0  0.2591927113875103  0.21312999892445417  0.37264219946221017  1.0000
  S   S23       1.0  0.1713372421618662  0.011799516013815792  0.29788866058828767  1.0000
  S   S24       1.0  0.2603468380382696  0.06738180454703979  0.31775065227703303  1.0000
  Fe  Fe13      1.0  0.2183850067578315  0.8105442273160713  0.5396573084478223  1.0000
  S   S25       1.0  0.17644715901629598  0.7491863744770778  0.5113693652666647  1.0000
  S   S26       1.0  0.22080066302853818  0.9052093273288137  0.5254879441024096  1.0000
  Fe  Fe14      1.0  0.2499746827871475  0.7155657246895412  0.5851038450273958  1.0000
  S   S27       1.0  0.2097086795051839  0.6463242332578123  0.5617959633195562  1.0000
  S   S28       1.0  0.29623661858562106  0.6979378424803511  0.6248512440680594  1.0000
  Fe  Fe15      1.0  0.22715971762878293  0.689073033427964  0.5111334351387473  1.0000
  S   S29       1.0  0.24479352899989357  0.630221623828429  0.4676665269497993  1.0000
  Fe  Fe16      1.0  0.1632247323147313  0.7133840983348188  0.5645691586454731  1.0000
  S   S30       1.0  0.0987604119346481  0.6953864708726935  0.5768754439726991  1.0000
  S   S31       1.0  0.27061647134280686  0.7541547723147997  0.5343434152896093  1.0000
  S   S32       1.0  0.2019867554458885  0.778949563855796  0.5932598244966258  1.0000
  Fe  Fe17      1.0  0.8679389182561182  0.03190281216465651  0.17435316396461434  1.0000
  S   S33       1.0  0.8996498127322743  0.1049213209826585  0.14565736474117047  1.0000
  S   S34       1.0  0.8525534394953767  0.9463145419965768  0.14905643599500545  1.0000
  Fe  Fe18      1.0  0.8716759744050342  0.0938925249510505  0.24416837043610864  1.0000
  S   S35       1.0  0.9033420935088257  0.17331858416784263  0.22156362032711208  1.0000
  S   S36       1.0  0.8549272971346448  0.08698121057891006  0.3012078325627278  1.0000
  Fe  Fe19      1.0  0.8607224056563831  0.16198390853489464  0.17708665354535172  1.0000
  S   S37       1.0  0.8342325503320814  0.23949152347516134  0.15157760407939255  1.0000
  Fe  Fe20      1.0  0.9391780150785718  0.10919010738635726  0.19223385759347078  1.0000
  S   S38       1.0  0.0050205418515192335  0.11874035042206632  0.18573793666391006  1.0000
  S   S39       1.0  0.8252435162989711  0.08832352818465616  0.20216719873541858  1.0000
  S   S40       1.0  0.911063893304499  0.030541594388272086  0.21830958142215182  1.0000
  Fe  Fe21      1.0  0.04321382915445238  0.6683713167124467  0.0349059678265316  1.0000
  S   S41       1.0  0.031060040350448404  0.7626591850173449  0.027284658038820186  1.0000
  S   S42       1.0  0.10207478629320699  0.6349346062898058  0.018832000582772457  1.0000
  Fe  Fe22      1.0  0.9607804239670401  0.6400210464812914  0.06204471965334372  1.0000
  S   S43       1.0  0.9415866614760605  0.7320216894883557  0.05648265880961608  1.0000
  S   S44       1.0  0.917237117748991  0.5703110776444538  0.08064789680786405  1.0000
  Fe  Fe23      1.0  0.9732265328175574  0.7307546094769831  0.0051887960994509985  1.0000
  S   S45       1.0  0.9518585438223882  0.779660245375113  0.9585723424107576  1.0000
  Fe  Fe24      1.0  0.0013056119468446425  0.7550920622855388  0.07938020829919497  1.0000
  S   S46       1.0  0.01348230668790995  0.8268487265361151  0.11804146056628274  1.0000
  S   S47       1.0  0.9874669280997946  0.6363241738541214  0.008406217397654236  1.0000
  S   S48       1.0  0.018120832391703035  0.6630009359217117  0.08907781189594191  1.0000
  Fe  Fe25      1.0  0.21200322023666285  0.60995847065462  0.8803653766017923  1.0000
  S   S49       1.0  0.2631886182891517  0.6037232178943391  0.8434882599089588  1.0000
  S   S50       1.0  0.20043512784486153  0.5460680851631181  0.92371759641308  1.0000
  Fe  Fe26      1.0  0.18192030606175202  0.7185326552052682  0.846290169651017  1.0000
  S   S51       1.0  0.23038578502590382  0.7231505577398896  0.8060451002830875  1.0000
  S   S52       1.0  0.133763413840237  0.780835311897869  0.8559000240722433  1.0000
  Fe  Fe27      1.0  0.21925920138225957  0.626042537857265  0.8023938540392168  1.0000
  S   S53       1.0  0.21200070317149666  0.5739740541643006  0.7532736856341499  1.0000
  Fe  Fe28      1.0  0.2701763053630811  0.7005648169865148  0.8507173190048591  1.0000
  S   S54       1.0  0.3314135366314199  0.7414963318819797  0.8576543403773285  1.0000
  S   S55       1.0  0.16710982349818537  0.623588155161455  0.838743150213494  1.0000
  S   S56       1.0  0.22228777451079687  0.704815888840381  0.8910899404596461  1.0000
  Fe  Fe29      1.0  0.29240071306626314  0.8611194259905298  0.09739936024515483  1.0000
  S   S57       1.0  0.262934074326514  0.9314153308716383  0.06721011733609794  1.0000
  S   S58       1.0  0.2747726231364089  0.8411399092591092  0.15285769519118278  1.0000
  Fe  Fe30      1.0  0.34527991918527917  0.8288577280436541  0.03728480796907063  1.0000
  S   S59       1.0  0.32095897105112103  0.8961416202166198  0.0022741552559699674  1.0000
  S   S60       1.0  0.3922241334028291  0.7768472152382405  0.012168506873862839  1.0000
  Fe  Fe31      1.0  0.3245794690044389  0.9545048939699304  0.04871823900991501  1.0000
  S   S61       1.0  0.34940118008173654  0.04537152908971853  0.04088241055064934  1.0000
  Fe  Fe32      1.0  0.262152435238597  0.8666328451533482  0.023818100723001168  1.0000
  S   S62       1.0  0.21151356280142203  0.8567841521238868  0.9869606553839582  1.0000
  S   S63       1.0  0.3545927106397686  0.8897866937085758  0.08241130460836055  1.0000
  S   S64       1.0  0.285785241009538  0.7934982581691378  0.05533783336687326  1.0000
  Fe  Fe33      1.0  0.7892388593739599  0.1038979139447771  0.6969897347273343  1.0000
  S   S65       1.0  0.7706590072551205  0.19325123276395084  0.6822805034728083  1.0000
  S   S66       1.0  0.8440064594684994  0.06415769182913933  0.6757317012055174  1.0000
  Fe  Fe34      1.0  0.719227072785688  0.08194785705810159  0.745984785280007  1.0000
  S   S67       1.0  0.6942978032242114  0.1690615602139609  0.7356971877264346  1.0000
  S   S68       1.0  0.6931580158648175  0.013968557059684139  0.782296184331019  1.0000
  Fe  Fe35      1.0  0.7094823993315188  0.15118427457870998  0.6798953649057972  1.0000
  S   S69       1.0  0.6658197352338557  0.16029158684713174  0.6365103012702906  1.0000
  Fe  Fe36      1.0  0.7574817958907568  0.20288212762955782  0.7393562120203087  1.0000
  S   S70       1.0  0.7781188498121208  0.28093236045030645  0.7706563024950238  1.0000
  S   S71       1.0  0.7292267727115024  0.06069581944442115  0.6898252869314732  1.0000
  S   S72       1.0  0.7813504182914568  0.11672045802579323  0.7544258335030504  1.0000
  Fe  Fe37      1.0  0.7286111708340592  0.46630948894262014  0.5054354159150822  1.0000
  S   S73       1.0  0.7626256463272595  0.4142200348499785  0.467281662040979  1.0000
  S   S74       1.0  0.6715531302490229  0.5069827294151663  0.49166603545319876  1.0000
  Fe  Fe38      1.0  0.785240062432207  0.44387947890428175  0.5641479541248554  1.0000
  S   S75       1.0  0.8250874813513164  0.38956189636424304  0.5315602278527928  1.0000
  S   S76       1.0  0.7938967887367067  0.4666328027075886  0.6201892345283727  1.0000
  Fe  Fe39      1.0  0.8163813677115658  0.4582771920392355  0.4908288945461048  1.0000
  S   S77       1.0  0.8622283386031717  0.4985483895212638  0.4548130612077587  1.0000
  Fe  Fe40      1.0  0.767687583509691  0.3504263985436138  0.5111035498205626  1.0000
  S   S78       1.0  0.75367849117616  0.2556681469527884  0.5014771428799154  1.0000
  S   S79       1.0  0.7819097641076518  0.5165459469081451  0.5254749545694671  1.0000
  S   S80       1.0  0.7285864297301428  0.3987884688651749  0.5473619950540112  1.0000
  Fe  Fe41      1.0  0.3657090182839405  0.6315922292398736  0.25357227252717046  1.0000
  S   S81       1.0  0.40562423781211593  0.7062328379314781  0.27025534556340913  1.0000
  S   S82       1.0  0.3211007054621291  0.636673988922863  0.2107800075437208  1.0000
  Fe  Fe42      1.0  0.3993072830852381  0.5484360838102479  0.30571647116450107  1.0000
  S   S83       1.0  0.4427577730422369  0.6153383741888269  0.32756231058008545  1.0000
  S   S84       1.0  0.39388543435868956  0.45517624798085343  0.3233998022825021  1.0000
  Fe  Fe43      1.0  0.3915768764844579  0.6748236364931055  0.32463229187515596  1.0000
  S   S85       1.0  0.3765546549611409  0.7387820901451144  0.3665876960384434  1.0000
  Fe  Fe44      1.0  0.45315818564992977  0.6405911306107078  0.2714613223809187  1.0000
  S   S86       1.0  0.5108394192449306  0.6611982659854049  0.2436516970985227  1.0000
  S   S87       1.0  0.34711623579328643  0.6056978982508249  0.3075081574314531  1.0000
  S   S88       1.0  0.41438061308219487  0.5682593255399944  0.2498927992322819  1.0000
  Fe  Fe45      1.0  0.41871549394084556  0.22444980833867634  0.503746987586341  1.0000
  S   S89       1.0  0.39557407184415644  0.289202233124243  0.5420742549725404  1.0000
  S   S90       1.0  0.38366308750654154  0.14379439327035248  0.48721668798594686  1.0000
  Fe  Fe46      1.0  0.49441183640372827  0.2962126980667976  0.48928164681560965  1.0000
  S   S91       1.0  0.4769765194941566  0.3670922638798022  0.5253665975975136  1.0000
  S   S92       1.0  0.5509488400496926  0.2983319117518006  0.45826997675816267  1.0000
  Fe  Fe47      1.0  0.4584740290920708  0.29430477792075793  0.5615754465266733  1.0000
  S   S93       1.0  0.48167099849928535  0.30732469009101604  0.6160814060071373  1.0000
  Fe  Fe48      1.0  0.41663501630593486  0.35509172463351435  0.5020959690210427  1.0000
  S   S94       1.0  0.3848350169925865  0.4356262124047463  0.487013343080644  1.0000
  S   S95       1.0  0.47988218500650315  0.22350099295998782  0.5268423049516355  1.0000
  S   S96       1.0  0.4359348333909513  0.2901051724391559  0.46255530688727686  1.0000
  Fe  Fe49      1.0  0.7785569718097262  0.5875830419486208  0.23293357502647796  1.0000
  S   S97       1.0  0.781895742964846  0.49238979092145013  0.22010662154791455  1.0000
  S   S98       1.0  0.8217744893495958  0.6564330026504751  0.21180127004448407  1.0000
  Fe  Fe50      1.0  0.7106633959462328  0.5667431874074571  0.2840077580783861  1.0000
  S   S99       1.0  0.7087871614286255  0.4702708961817006  0.2757254486361021  1.0000
  S   S100      1.0  0.667055972645571  0.5988800891583355  0.32311746252237067  1.0000
  Fe  Fe51      1.0  0.775030903520401  0.4789600296984478  0.2775894882113192  1.0000
  S   S101      1.0  0.8102090460498524  0.4119554239059137  0.3049756742282344  1.0000
  Fe  Fe52      1.0  0.7154822566316029  0.4933013048929651  0.21930507155265008  1.0000
  S   S102      1.0  0.6759606067458342  0.4462892939985928  0.1807740330659125  1.0000
  S   S103      1.0  0.7766077474586359  0.5738802050023255  0.2909311540712208  1.0000
  S   S104      1.0  0.7123511151112562  0.5897353334395389  0.22713889004436771  1.0000
  Fe  Fe53      1.0  0.6484945053816117  0.2908513916175215  0.013841969550083544  1.0000
  S   S105      1.0  0.6540913011422196  0.3745730332005943  0.9836995931753294  1.0000
  S   S106      1.0  0.5955306441530547  0.25859228832567416  0.04481387183957024  1.0000
  Fe  Fe54      1.0  0.7299518992569741  0.25271093868825023  0.9912076431451083  1.0000
  S   S107      1.0  0.7427813648408419  0.3323319779714107  0.9585900474240674  1.0000
  S   S108      1.0  0.772369120467737  0.181671017186823  1.4302311628355822e-06  1.0000
  Fe  Fe55      1.0  0.7164082101168762  0.3797676588842114  0.0037074778504446733  1.0000
  S   S109      1.0  0.7449257864587803  0.4591373697502352  0.02844182354621658  1.0000
  Fe  Fe56      1.0  0.6792755882791408  0.3194314480165872  0.9416000000825712  1.0000
  S   S110      1.0  0.6523041209623747  0.32206030908172734  0.8884165188834251  1.0000
  S   S111      1.0  0.7084032596712472  0.3008271393302384  0.03773038716092777  1.0000
  S   S112      1.0  0.6689964876781569  0.23505180167123751  0.9701875709666163  1.0000
  Fe  Fe57      1.0  0.4479491920969853  0.22433308228568904  0.8378634882728502  1.0000
  S   S113      1.0  0.4518379277850472  0.1590967662862064  0.8809134999440659  1.0000
  S   S114      1.0  0.44544461302505456  0.3169443418695048  0.856087624759905  1.0000
  Fe  Fe58      1.0  0.4462984646193484  0.13203073278614896  0.7821889136894838  1.0000
  S   S115      1.0  0.44872626317515857  0.058689610790611635  0.8209450145135507  1.0000
  S   S116      1.0  0.44262068901499985  0.10684204819120424  0.7255019018617346  1.0000
  Fe  Fe59      1.0  0.40481542925452335  0.10868582756786038  0.8517340722448145  1.0000
  S   S117      1.0  0.351563880268281  0.06399064549890032  0.8775736562485801  1.0000
  Fe  Fe60      1.0  0.49523860940550307  0.11558234554867153  0.8468601601747554  1.0000
  S   S118      1.0  0.5460244883420027  0.07731672374289977  0.8752704569276551  1.0000
  S   S119      1.0  0.39776674250242927  0.17694619723834104  0.8105385405341761  1.0000
  S   S120      1.0  0.4965399289784051  0.1857124062835973  0.8060228747802077  1.0000
  Fe  Fe61      1.0  0.35058134468634594  0.497913030567798  0.05980217707224944  1.0000
  S   S121      1.0  0.3135296432961949  0.41529196655547695  0.0633927568887831  1.0000
  S   S122      1.0  0.32662701790115567  0.5831111739441412  0.043439014711249335  1.0000
  Fe  Fe62      1.0  0.4252653373460994  0.4409593451819058  0.0836336473529169  1.0000
  S   S123      1.0  0.39470056783297247  0.3528043532151915  0.08971689712104158  1.0000
  S   S124      1.0  0.48935110520875236  0.46304433555102203  0.0948800938197365  1.0000
  Fe  Fe63      1.0  0.3659256734977161  0.3742686185821284  0.03883077330148388  1.0000
  S   S125      1.0  0.3529056216901132  0.304093952765228  0.9994707214177802  1.0000
  Fe  Fe64      1.0  0.3454306960165819  0.4019181590473292  0.11340054311139003  1.0000
  S   S126      1.0  0.3123864190290682  0.3776553595331725  0.16215641641231382  1.0000
  S   S127      1.0  0.4004703599422136  0.45861202268564827  0.030614534482515277  1.0000
  S   S128      1.0  0.378541214772894  0.48851414047775066  0.11209005487783763  1.0000
  C   C1        1.0  0.41916050872818106  0.3150165192470955  0.8955994179332627  1.0000
  C   C2        1.0  0.3914714169261464  0.2694484166357918  0.9023799571762109  1.0000
  C   C3        1.0  0.3716059698468349  0.26627422303561543  0.9345021387424206  1.0000
  C   C4        1.0  0.3792635571067569  0.3087007364766039  0.9599925443855417  1.0000
  C   C5        1.0  0.40684186840264525  0.35453004312505  0.9531999322257314  1.0000
  C   C6        1.0  0.42664338311980377  0.35786861647808643  0.9209202148960213  1.0000
  H   H1        1.0  0.3848922388006236  0.23678800044185833  0.8827143901021951  1.0000
  H   H2        1.0  0.35017757705293057  0.23083065843912842  0.9395268080693833  1.0000
  H   H3        1.0  0.4131077216689173  0.3871959618889338  0.9727695413847501  1.0000
  H   H4        1.0  0.4482314693074831  0.3930165525571745  0.9158314294282124  1.0000
  C   C7        1.0  0.5665142139343483  0.3153256846380972  0.05957234055563227  1.0000
  C   C8        1.0  0.5802376887104145  0.3733096405811776  0.05643463515484648  1.0000
  C   C9        1.0  0.5567262003988429  0.4185994738045896  0.06776087321808708  1.0000
  C   C10       1.0  0.519011295711877  0.4059626547022379  0.08174232455259212  1.0000
  C   C11       1.0  0.5053370274683063  0.3478786074906295  0.08515942257805231  1.0000
  C   C12       1.0  0.5291358304230838  0.3025498878453978  0.07420240857829863  1.0000
  H   H5        1.0  0.6088844647368318  0.3833913210134428  0.045187782758776884  1.0000
  H   H6        1.0  0.5674095707605804  0.46339325126282765  0.06477144769780369  1.0000
  H   H7        1.0  0.47673915064581285  0.3377150908873555  0.09677028043258784  1.0000
  H   H8        1.0  0.5184509470924987  0.25766870028976463  0.07685500194781159  1.0000
  C   C13       1.0  0.6930542109772271  0.45752325252045306  0.13806806853937675  1.0000
  C   C14       1.0  0.7288631842698716  0.4885214802194477  0.13147346151849149  1.0000
  C   C15       1.0  0.7444691509702679  0.4912650184191011  0.09746485043816823  1.0000
  C   C16       1.0  0.7241755625215607  0.46271918498660336  0.07025345422255991  1.0000
  C   C17       1.0  0.68776431839886  0.4337591610320248  0.07680980686832481  1.0000
  C   C18       1.0  0.6719861927336902  0.43150318530472864  0.11055636355418258  1.0000
  H   H9        1.0  0.7447898997477156  0.5095778362235927  0.15260295209698937  1.0000
  H   H10       1.0  0.7726266171548225  0.5139499891529674  0.09254310309006117  1.0000
  H   H11       1.0  0.671933558906957  0.41267367657266824  0.05573288547436369  1.0000
  H   H12       1.0  0.6438216428683514  0.40862665438486195  0.11530562120658473  1.0000
  C   C19       1.0  0.46865771065342193  0.25226367835149066  0.6463028847401537  1.0000
  C   C20       1.0  0.45338029414455727  0.19788913966848587  0.6352585855324062  1.0000
  C   C21       1.0  0.4447723485105454  0.15370375162629069  0.6598554051513515  1.0000
  C   C22       1.0  0.4508377761554365  0.1640822413645462  0.695521185982474  1.0000
  C   C23       1.0  0.465721667526291  0.21866580908290634  0.7065495861063213  1.0000
  C   C24       1.0  0.47499640048939074  0.2624733225573648  0.6819233226047885  1.0000
  H   H13       1.0  0.44841590751095367  0.1898196048825369  0.6077864644572257  1.0000
  H   H14       1.0  0.43322971903253044  0.11149830349041445  0.6512622554863077  1.0000
  H   H15       1.0  0.4703237129567605  0.2270998333995442  0.7340067202888801  1.0000
  H   H16       1.0  0.48668272641868066  0.3046105270031343  0.6905313676393353  1.0000
  C   C25       1.0  0.3095693187305003  0.5637312502239648  0.2003229678842468  1.0000
  C   C26       1.0  0.2941635665509449  0.549452547648536  0.16756684483689835  1.0000
  C   C27       1.0  0.29186811894709147  0.49105972639788337  0.15675456219323494  1.0000
  C   C28       1.0  0.304507464489651  0.4470045835223285  0.17899948866403181  1.0000
  C   C29       1.0  0.31755982626550694  0.461062350091058  0.21253706943319156  1.0000
  C   C30       1.0  0.31982048784903067  0.519337077111661  0.22327701151561044  1.0000
  H   H17       1.0  0.286383005556948  0.5837656448731557  0.1499512128971437  1.0000
  H   H18       1.0  0.28240060578842263  0.48035399337282575  0.13053343228971379  1.0000
  H   H19       1.0  0.3289388709002807  0.4277068886164274  0.22917683821779658  1.0000
  H   H20       1.0  0.3312788158045067  0.5298568698135525  0.24880264319608825  1.0000
  C   C31       1.0  0.553687545498381  0.647111182454436  0.2675145386248247  1.0000
  C   C32       1.0  0.5515989706582908  0.6148662569395051  0.298521312566371  1.0000
  C   C33       1.0  0.5865216730222074  0.6014390797867336  0.3160866093137137  1.0000
  C   C34       1.0  0.623547957464119  0.6189252581745229  0.30217857760930344  1.0000
  C   C35       1.0  0.6256180593549795  0.6513645451084694  0.2712894273593372  1.0000
  C   C36       1.0  0.5907045221806331  0.6661361240372953  0.2542672484500745  1.0000
  H   H21       1.0  0.5232123586134938  0.5997506703813511  0.3087431282650642  1.0000
  H   H22       1.0  0.5849582812858156  0.5764958525371007  0.34000302139275246  1.0000
  H   H23       1.0  0.6541112015632269  0.6660243754375957  0.2608436771070313  1.0000
  H   H24       1.0  0.5924168415866521  0.6916844394552597  0.2305120331541243  1.0000
  C   C37       1.0  0.3815625710586902  0.44146184023648755  0.44152155634230117  1.0000
  C   C38       1.0  0.3790681300650972  0.3913162338899999  0.42085988271291636  1.0000
  C   C39       1.0  0.3822848595177337  0.3957103039585082  0.38450475856941696  1.0000
  C   C40       1.0  0.38689677109710685  0.4504640255799685  0.36864502498477647  1.0000
  C   C41       1.0  0.3876180263726219  0.5008422977125238  0.38914648396884793  1.0000
  C   C42       1.0  0.38481071043064846  0.4964125435918319  0.42559828710913616  1.0000
  H   H25       1.0  0.37456765975165157  0.3490322231634577  0.43289089553323545  1.0000
  H   H26       1.0  0.38169753085363  0.3565551493998742  0.3688136112249666  1.0000
  H   H27       1.0  0.39134559903486676  0.5431561404839893  0.3769919845817758  1.0000
  H   H28       1.0  0.3865246069036775  0.5354547649588083  0.4414105315736736  1.0000
  C   C43       1.0  0.8511682669421734  0.4735540256910093  0.4125766226102619  1.0000
  C   C44       1.0  0.8531330278597831  0.512289711717113  0.3843085528804812  1.0000
  C   C45       1.0  0.8405299541374175  0.49364077717558885  0.35112667976293005  1.0000
  C   C46       1.0  0.826846475521051  0.4358887718416015  0.34605205081161666  1.0000
  C   C47       1.0  0.8262574549226107  0.39672416864303717  0.3740851410870879  1.0000
  C   C48       1.0  0.8379646670668456  0.41569255669244914  0.407376481196115  1.0000
  H   H29       1.0  0.863610966941569  0.5569596451072494  0.388207716908064  1.0000
  H   H30       1.0  0.8420767437791186  0.5236312845121551  0.32936595520360124  1.0000
  H   H31       1.0  0.815902663252472  0.35199313770509866  0.3702056207766971  1.0000
  H   H32       1.0  0.8368708880405716  0.38542309883951964  0.4290560587603139  1.0000
  C   C49       1.0  0.637467564950328  0.4506706197919772  0.48075836151534246  1.0000
  C   C50       1.0  0.597095695145709  0.45619519420844806  0.4877542407869712  1.0000
  C   C51       1.0  0.5701845323785989  0.40951299396806173  0.48096080916275064  1.0000
  C   C52       1.0  0.5835531174622103  0.35778945544920626  0.46659208233790583  1.0000
  C   C53       1.0  0.6236910069521178  0.353199484742585  0.4584601762912721  1.0000
  C   C54       1.0  0.6506640703482596  0.3992407473147823  0.46597887527527154  1.0000
  H   H33       1.0  0.5867859556607704  0.4960240299093339  0.4991537711461615  1.0000
  H   H34       1.0  0.5391696948115801  0.4141181489082839  0.48649218773549985  1.0000
  H   H35       1.0  0.6341608186971932  0.31340966016552363  0.44711538404718104  1.0000
  H   H36       1.0  0.6816275799598142  0.39467984352695895  0.4601825475093514  1.0000
  C   C55       1.0  0.7427103238734878  0.29981022212214015  0.8017241143524277  1.0000
  C   C56       1.0  0.702350276056621  0.2887333630625677  0.7955208662101529  1.0000
  C   C57       1.0  0.674488200358874  0.29790249235285793  0.8219065397837488  1.0000
  C   C58       1.0  0.6870064054117253  0.31814156839641705  0.8545726174517223  1.0000
  C   C59       1.0  0.727166772243079  0.3323079258816033  0.8602210596915755  1.0000
  C   C60       1.0  0.7550383840165481  0.32355257270404514  0.833670813193964  1.0000
  H   H37       1.0  0.6924653314589706  0.2736907034021874  0.7703016770054956  1.0000
  H   H38       1.0  0.643312228952908  0.28808284805635287  0.8172286904007394  1.0000
  H   H39       1.0  0.7368070999996189  0.3495948863847227  0.8850595086194151  1.0000
  H   H40       1.0  0.7862346746123813  0.33302120862092965  0.8383822451815217  1.0000
  C   C61       1.0  0.6515663243983416  0.03261179644720258  0.8069679063332036  1.0000
  C   C62       1.0  0.6285673362283215  0.07982211398624273  0.7979317175788365  1.0000
  C   C63       1.0  0.5955640618474501  0.09347080646724581  0.81848008666334  1.0000
  C   C64       1.0  0.5861563538478083  0.06058038799131271  0.8484089002206643  1.0000
  C   C65       1.0  0.6095936641960346  0.014152921273954844  0.8576714620945408  1.0000
  C   C66       1.0  0.6417737480811172  0.9996074728819564  0.8366922883146775  1.0000
  H   H41       1.0  0.6358707147163314  0.10536841368852823  0.7750332705197363  1.0000
  H   H42       1.0  0.5778601765354882  0.13000616323367975  0.8116108642671318  1.0000
  H   H43       1.0  0.6024352615142983  0.9887031776861499  0.8808103823593166  1.0000
  H   H44       1.0  0.6593542811847658  0.9629393233654469  0.8437196205377134  1.0000
  C   C67       1.0  0.6922485571611051  0.18396345917128687  0.5993334991443819  1.0000
  C   C68       1.0  0.6842458709113021  0.15815527885145308  0.5669286813343036  1.0000
  C   C69       1.0  0.7046530446748908  0.1783382530693205  0.5370049336893775  1.0000
  C   C70       1.0  0.7321231882073064  0.2255039541521464  0.5393718211763948  1.0000
  C   C71       1.0  0.7402578700199759  0.2509549218256093  0.5718178035793291  1.0000
  C   C72       1.0  0.7205923199777853  0.2298649331743754  0.6018144808111783  1.0000
  H   H45       1.0  0.6623603033943579  0.12258941053066752  0.5649412663435033  1.0000
  H   H46       1.0  0.6981006319257878  0.15881511237627244  0.5119192434374212  1.0000
  H   H47       1.0  0.7617790200777181  0.28699162009738166  0.5738377560514659  1.0000
  H   H48       1.0  0.7265708515606967  0.2504364017615994  0.6266926792572498  1.0000
  C   C73       1.0  0.3462312017176163  0.06080280136180205  0.9962466873594189  1.0000
  C   C74       1.0  0.31532998071628016  0.03555762471849522  0.976551609451714  1.0000
  C   C75       1.0  0.3160155760054336  0.040303215049993346  0.9401274089598067  1.0000
  C   C76       1.0  0.34759572976100805  0.06992457800204899  0.9232199930227981  1.0000
  C   C77       1.0  0.3768449197118246  0.09895388995442334  0.9431589947891319  1.0000
  C   C78       1.0  0.3761800814832945  0.09449981163401011  0.979680956275474  1.0000
  H   H49       1.0  0.29119807005186943  0.011459298950401875  0.9893672861505078  1.0000
  H   H50       1.0  0.2925786487843433  0.01983530948633594  0.9249771601559618  1.0000
  H   H51       1.0  0.40051728829371386  0.12364392826097559  0.9306874202589691  1.0000
  H   H52       1.0  0.399733612294712  0.11514029083418542  0.9948979112885296  1.0000
  C   C79       1.0  0.23479203036761995  0.557481283435091  0.9574507928474537  1.0000
  C   C80       1.0  0.23496467826051998  0.5187201637427884  0.9856377117946633  1.0000
  C   C81       1.0  0.26357116381911305  0.5258734138823076  0.01187187383527899  1.0000
  C   C82       1.0  0.2916248300667089  0.5723414468603386  0.0102478052157573  1.0000
  C   C83       1.0  0.29111426965449966  0.6114778504203291  0.982360178809084  1.0000
  C   C84       1.0  0.2631382936327139  0.6035825769249835  0.9557334741362359  1.0000
  H   H53       1.0  0.2131933573169539  0.4828561085662626  0.9870007296355353  1.0000
  H   H54       1.0  0.26323554737753624  0.49614900177535426  0.03367486494400307  1.0000
  H   H55       1.0  0.312972561394283  0.6471554223411369  0.9809471886586433  1.0000
  H   H56       1.0  0.26412209150275034  0.6327607064929847  0.9337142920371208  1.0000
  C   C85       1.0  0.34777161520523947  0.746280042705754  0.9010729259781127  1.0000
  C   C86       1.0  0.32086291656785854  0.7533074933388101  0.9284042156279102  1.0000
  C   C87       1.0  0.3345353619619037  0.7617819623663455  0.9625643477754842  1.0000
  C   C88       1.0  0.37515510987078243  0.7613644728363235  0.9698032784854901  1.0000
  C   C89       1.0  0.4020904172294255  0.7522989159758711  0.9426685626437155  1.0000
  C   C90       1.0  0.38844581648592713  0.7457565217617822  0.9082629394653361  1.0000
  H   H57       1.0  0.2895320808097172  0.7534510523567451  0.9232990933490433  1.0000
  H   H58       1.0  0.3134065382734295  0.767782498355694  0.9833746910908824  1.0000
  H   H59       1.0  0.43350066808448817  0.7514965746862302  0.9481174562956858  1.0000
  H   H60       1.0  0.4093694355395977  0.7398402070900015  0.8872049215738093  1.0000
  C   C91       1.0  0.8907334895588856  0.5947255185111064  0.11687733454808574  1.0000
  C   C92       1.0  0.8559425671552984  0.5643723928224275  0.1274325024639261  1.0000
  C   C93       1.0  0.8343730097138121  0.5837842209530157  0.15622756697276297  1.0000
  C   C94       1.0  0.8477653014871197  0.6330479715743893  0.1748591791899936  1.0000
  C   C95       1.0  0.882438670843415  0.6636652592053116  0.16408143710149758  1.0000
  C   C96       1.0  0.9038920592091033  0.6445323826351322  0.1351026402741547  1.0000
  H   H61       1.0  0.8453869793014509  0.5263261926443323  0.11307864842811235  1.0000
  H   H62       1.0  0.8069180427343009  0.5614456404212029  0.16349950409158015  1.0000
  H   H63       1.0  0.8930716253588856  0.7017350787913826  0.1783307733353052  1.0000
  H   H64       1.0  0.9309398333762974  0.6678480954162515  0.12722068418301782  1.0000
  C   C97       1.0  0.1352666763008854  0.6947055147144429  0.012493844799544185  1.0000
  C   C98       1.0  0.13001157998726454  0.7464269248063301  0.030892615296498116  1.0000
  C   C99       1.0  0.15395625906408258  0.7961475547361033  0.023490751763642903  1.0000
  C   C100      1.0  0.1835822497843102  0.7938270768398434  0.9980288992437821  1.0000
  C   C101      1.0  0.19066702022596196  0.7411776510624785  0.9812950152856055  1.0000
  C   C102      1.0  0.1665137529010452  0.6915056043403659  0.9885144539058218  1.0000
  H   H65       1.0  0.10759466054253042  0.7481705546637895  0.051002756062243915  1.0000
  H   H66       1.0  0.14912084234669654  0.8365772185623077  0.03707522389093243  1.0000
  H   H67       1.0  0.214740597092013  0.7389154807369204  0.9627418456459095  1.0000
  H   H68       1.0  0.1721382400181208  0.6509365518336111  0.9753943108892345  1.0000
  C   C103      1.0  0.8214063279857318  0.22291371541315752  0.10824977715223337  1.0000
  C   C104      1.0  0.8170377008576531  0.16486820050285345  0.09719770385800171  1.0000
  C   C105      1.0  0.8037287993266855  0.1520323176845615  0.0632846874800196  1.0000
  C   C106      1.0  0.7944928481585858  0.19721615680989535  0.04050937470125312  1.0000
  C   C107      1.0  0.7999819616226241  0.2552137463500397  0.05129056308547945  1.0000
  C   C108      1.0  0.8131793705859307  0.2680557869424076  0.08513461665252783  1.0000
  H   H69       1.0  0.8225206575401999  0.12969738592678492  0.1151112160472505  1.0000
  H   H70       1.0  0.7991883194599444  0.10712682797325468  0.05518935639970404  1.0000
  H   H71       1.0  0.7938016099740326  0.2903505675146876  0.033524054988345764  1.0000
  H   H72       1.0  0.8166443898101713  0.3129965996107684  0.09337550314847567  1.0000
  C   C109      1.0  0.8972434493902615  0.9121955600520789  0.141719383224684  1.0000
  C   C110      1.0  0.8971096376314293  0.8528881805866747  0.13348586413693203  1.0000
  C   C111      1.0  0.9330626577506967  0.8256802446343398  0.12797885486610303  1.0000
  C   C112      1.0  0.969008643280478  0.85800405991378  0.12995689242615527  1.0000
  C   C113      1.0  0.9691786642499856  0.9168846748469018  0.13906458060143437  1.0000
  C   C114      1.0  0.9333237425335749  0.9439240857094722  0.14495743973709904  1.0000
  H   H73       1.0  0.8693115980068261  0.8279436937707115  0.13147994850205055  1.0000
  H   H74       1.0  0.9329496328936799  0.7795804407302312  0.12253786599530968  1.0000
  H   H75       1.0  0.9968977011791424  0.9421345054503432  0.14053566189385266  1.0000
  H   H76       1.0  0.9337763720415291  0.9898504571560227  0.15092760696949148  1.0000
  C   C115      1.0  0.2825333329532374  0.660621157587314  0.44086098961320314  1.0000
  C   C116      1.0  0.3030794199384207  0.6245029219320867  0.41834721586465246  1.0000
  C   C117      1.0  0.33271449092655647  0.6483172961337934  0.3962539053397192  1.0000
  C   C118      1.0  0.34157657276345743  0.7083256339556824  0.3961610711881051  1.0000
  C   C119      1.0  0.32156690103336427  0.7443887458113368  0.4191730131026109  1.0000
  C   C120      1.0  0.2921951954216153  0.7204455191053822  0.4415973462207318  1.0000
  H   H77       1.0  0.29609396981065494  0.5780581069618544  0.4179237088873733  1.0000
  H   H78       1.0  0.34874851968126397  0.620093855200144  0.3794009664425401  1.0000
  H   H79       1.0  0.32829377806785  0.7908755271929634  0.41928820701865505  1.0000
  H   H80       1.0  0.27646440903552016  0.7484315539920697  0.4588443136350984  1.0000
  C   C121      1.0  0.274837283280709  0.6609514001172753  0.6606141015155332  1.0000
  C   C122      1.0  0.24606555609917033  0.6163286400031889  0.6554020187417942  1.0000
  C   C123      1.0  0.22845950089601835  0.5875634718217402  0.6841159315425448  1.0000
  C   C124      1.0  0.2384728895957421  0.604881744941413  0.7180419496540669  1.0000
  C   C125      1.0  0.2673966116593769  0.6492703072250371  0.7232960968699043  1.0000
  C   C126      1.0  0.2860285488135348  0.676715757238162  0.6945361998694826  1.0000
  H   H81       1.0  0.2377679249012022  0.6033734704438166  0.6292960727675923  1.0000
  H   H82       1.0  0.20650527036817395  0.5526193674857026  0.6800915495089925  1.0000
  H   H83       1.0  0.27551419260361965  0.6623693583356661  0.7494730385708407  1.0000
  H   H84       1.0  0.3084056931485531  0.7111043062566416  0.6985919601415551  1.0000
  C   C127      1.0  0.2929910962753203  0.19275899977524635  0.4047998364603592  1.0000
  C   C128      1.0  0.31153708692664744  0.23593001963331361  0.42548205048776555  1.0000
  C   C129      1.0  0.33891550510563184  0.22078521360312608  0.45106977348223326  1.0000
  C   C130      1.0  0.3484108397482334  0.16249906538536973  0.4557447830551701  1.0000
  C   C131      1.0  0.3297328652940907  0.1191669789076133  0.43512110686811595  1.0000
  C   C132      1.0  0.3018767500310195  0.13423409310575307  0.40979361314777224  1.0000
  H   H85       1.0  0.3045135185383526  0.2811745389438636  0.42195954964163984  1.0000
  H   H86       1.0  0.35232327532737856  0.2543202160261355  0.46743155791069724  1.0000
  H   H87       1.0  0.3371579214728081  0.07410558348315388  0.4382989940133932  1.0000
  H   H88       1.0  0.287622124895321  0.10068355741780266  0.39391913755050884  1.0000
  C   C133      1.0  0.2455831162645476  0.014497158975494973  0.2029385870773099  1.0000
  C   C134      1.0  0.26646309690783937  0.013341512910330033  0.17141999469260755  1.0000
  C   C135      1.0  0.27685005430103893  0.9601155318189113  0.1569052497965826  1.0000
  C   C136      1.0  0.26526633704959296  0.9076084759020664  0.17321624221066387  1.0000
  C   C137      1.0  0.2449286853661849  0.9085742923534781  0.2051283105014577  1.0000
  C   C138      1.0  0.23538972959942334  0.9621035863646205  0.22016174695054466  1.0000
  H   H89       1.0  0.27488648133094395  0.05370474905261924  0.15831010728788003  1.0000
  H   H90       1.0  0.2940144018344265  0.9598985685203785  0.13309454334056578  1.0000
  H   H91       1.0  0.23598742384333413  0.8680285369387488  0.2178448889159915  1.0000
  H   H92       1.0  0.2195078325247761  0.962715093317123  0.24462450616992998  1.0000
  C   C139      1.0  0.060367060356790556  0.10188761938619328  0.29301533286522613  1.0000
  C   C140      1.0  0.019094329533223098  0.09955780595405939  0.28948726932284946  1.0000
  C   C141      1.0  0.0020480683755290693  0.10610469388137522  0.25656524923221047  1.0000
  C   C142      1.0  0.02620387158649984  0.11501662484466602  0.22715738574321104  1.0000
  C   C143      1.0  0.06742780998448072  0.11860086685863203  0.23075462366540636  1.0000
  C   C144      1.0  0.08453777668480915  0.1113364611466734  0.2636270976173691  1.0000
  H   H93       1.0  0.00017799759784242611  0.09199330652287196  0.31195714562541565  1.0000
  H   H94       1.0  0.9701924617976231  0.10412318664824549  0.2540209171261424  1.0000
  H   H95       1.0  0.08607714769983543  0.1267274403098766  0.20813128611019296  1.0000
  H   H96       1.0  0.11639917464658117  0.11333998727460859  0.26615535990177486  1.0000
  C   C145      1.0  0.2311470868394795  0.9163306368360112  0.40735288047694884  1.0000
  C   C146      1.0  0.23351486784438058  0.8625235990538255  0.42416736337540834  1.0000
  C   C147      1.0  0.2310860011804698  0.8594614664393964  0.460599862752137  1.0000
  C   C148      1.0  0.22563561133850846  0.9098102290898611  0.4801881920275963  1.0000
  C   C149      1.0  0.22395995510277744  0.9636936597891437  0.46347000465193827  1.0000
  C   C150      1.0  0.22776253016188933  0.9670407747758385  0.42714413417866576  1.0000
  H   H97       1.0  0.2367286090132612  0.8231140731800908  0.4090779655529635  1.0000
  H   H98       1.0  0.23294886122806596  0.8179693813719551  0.4734569055029256  1.0000
  H   H99       1.0  0.22025742608762783  0.0029634302706729176  0.478558934287121  1.0000
  H   H100      1.0  0.22854653470471514  0.008962713981975234  0.41463488367559115  1.0000
  C   C151      1.0  0.9200030166208106  0.5236343497970781  0.6480976226121711  1.0000
  C   C152      1.0  0.9118185515017532  0.4664316814569068  0.6368829031750307  1.0000
  C   C153      1.0  0.8732548489484343  0.44929244007836944  0.626477529001811  1.0000
  C   C154      1.0  0.8430759024863562  0.489401526392045  0.62751675645643  1.0000
  C   C155      1.0  0.8516833866412757  0.5470973435377459  0.6373229867589054  1.0000
  C   C156      1.0  0.8901100836651701  0.5641766226784666  0.6475413784295444  1.0000
  H   H101      1.0  0.93495573716133  0.43505328213939165  0.6372146856870918  1.0000
  H   H102      1.0  0.8665323968703134  0.4045727274571181  0.6188985524757212  1.0000
  H   H103      1.0  0.8284080396890813  0.5782977232380909  0.6379049581526555  1.0000
  H   H104      1.0  0.8964300677958871  0.6088392158995956  0.6552100824646635  1.0000
  C   C157      1.0  0.9373586484698009  0.6658676471542389  0.8616520534164305  1.0000
  C   C158      1.0  0.93555193193676  0.6407262555612666  0.8949485614064351  1.0000
  C   C159      1.0  0.9404383227999933  0.6756620089458731  0.9246598838507402  1.0000
  C   C160      1.0  0.9466524554709129  0.7358965707043638  0.9212702123082769  1.0000
  C   C161      1.0  0.9485733868960098  0.7611961545672541  0.8879857909933058  1.0000
  C   C162      1.0  0.9442890094448546  0.7260975726440794  0.8581276140163369  1.0000
  H   H105      1.0  0.9302732247294481  0.5941215968696706  0.8976748306493684  1.0000
  H   H106      1.0  0.9387343515462505  0.6561669769597861  0.9501870107868172  1.0000
  H   H107      1.0  0.9535932086990154  0.8078424048104843  0.8852301186552245  1.0000
  H   H108      1.0  0.9459450900910537  0.74569857651457  0.8324863203429318  1.0000
  C   C163      1.0  0.06340704665234176  0.8048035080590833  0.7563861586768442  1.0000
  C   C164      1.0  0.10447811271574547  0.8161428912028336  0.756256826391916  1.0000
  C   C165      1.0  0.12638673798497269  0.808088936198811  0.7867894647672141  1.0000
  C   C166      1.0  0.106842882419407  0.7919393347030186  0.8177907152500312  1.0000
  C   C167      1.0  0.06554701734416717  0.7837107851526358  0.8182974835786235  1.0000
  C   C168      1.0  0.04396676304154701  0.7885679897261364  0.7873958302026843  1.0000
  H   H109      1.0  0.11951531277107774  0.8295487619873549  0.7324398815735844  1.0000
  H   H110      1.0  0.15829483243819514  0.8150529540299711  0.7864859668740621  1.0000
  H   H111      1.0  0.050269483391782506  0.7721309962993672  0.8423490256854528  1.0000
  H   H112      1.0  0.012239964529312974  0.77996273394664  0.787694159664195  1.0000
  C   C169      1.0  0.8461419048628359  0.061915566394996846  0.5571177831931559  1.0000
  C   C170      1.0  0.8137584946368767  0.08511478545167073  0.5744914995212951  1.0000
  C   C171      1.0  0.8137260117290391  0.08902125747385359  0.6110679744810815  1.0000
  C   C172      1.0  0.8459837197163222  0.0693910670567377  0.6301132425064062  1.0000
  C   C173      1.0  0.8791449429855828  0.049352308089194  0.6125329893520081  1.0000
  C   C174      1.0  0.8793466030423194  0.04605606253338723  0.5761001599842399  1.0000
  H   H113      1.0  0.7882025717285107  0.09828227022139946  0.5598637645673146  1.0000
  H   H114      1.0  0.7881329587479523  0.10525428269433212  0.6244547718835658  1.0000
  H   H115      1.0  0.904512098546862  0.03580313990050277  0.627075864418609  1.0000
  H   H116      1.0  0.9052079752522729  0.03097757783807964  0.5626606875491781  1.0000
  C   C175      1.0  0.882450706018154  0.0384876048290923  0.32607973133168233  1.0000
  C   C176      1.0  0.9170045909473918  0.014568134848405245  0.3129942084410105  1.0000
  C   C177      1.0  0.9381005737649024  0.9754205602710116  0.3332712276033377  1.0000
  C   C178      1.0  0.9252971840453567  0.961254238797761  0.36712841408398794  1.0000
  C   C179      1.0  0.8913336849602104  0.9863347880696285  0.38057465945352353  1.0000
  C   C180      1.0  0.8697395849468277  0.024277912578726912  0.35994487345414206  1.0000
  H   H117      1.0  0.928141232769411  0.027115744585070267  0.2876523752856554  1.0000
  H   H118      1.0  0.9649594032763908  0.9574130316391968  0.323050664882462  1.0000
  H   H119      1.0  0.8815715215929162  0.9764549101925744  0.40680455160241835  1.0000
  H   H120      1.0  0.8429508791655048  0.042263454891828145  0.3700895756581769  1.0000
  C   C181      1.0  0.035611117116655544  0.8661856534963952  0.564988250623752  1.0000
  C   C182      1.0  0.013897159512362478  0.81306675830469  0.5626296489482416  1.0000
  C   C183      1.0  0.032978625592651634  0.760337866566504  0.5675275960641858  1.0000
  C   C184      1.0  0.07386004809619856  0.7608907459235404  0.5738703783656306  1.0000
  C   C185      1.0  0.09510324280637938  0.8141569248524525  0.576856668296735  1.0000
  C   C186      1.0  0.07590291333981795  0.8666624917187213  0.573124982019806  1.0000
  H   H121      1.0  0.9825833387127495  0.8125259231641678  0.5567496305084608  1.0000
  H   H122      1.0  0.016387043714856553  0.719186811113763  0.5654380009384946  1.0000
  H   H123      1.0  0.12644536771203121  0.8152226699635116  0.5819388273713525  1.0000
  H   H124      1.0  0.0927349979068579  0.9076413261695938  0.5752956937117462  1.0000
  C   C187      1.0  0.8526735463678222  0.753976390154186  0.5667731441424378  1.0000
  C   C188      1.0  0.8840445473731736  0.7772168395972401  0.5868126614251848  1.0000
  C   C189      1.0  0.8822169008453823  0.7742340372937534  0.6233199639522788  1.0000
  C   C190      1.0  0.8489322657510651  0.7483318619020555  0.6398681768350886  1.0000
  C   C191      1.0  0.8178960377183632  0.7241541179605697  0.6198228687002738  1.0000
  C   C192      1.0  0.8199801223931977  0.7263559640223622  0.5832863248074512  1.0000
  H   H125      1.0  0.9098825894706009  0.7970140442211249  0.574147913682532  1.0000
  H   H126      1.0  0.9060845131124957  0.7932823941824514  0.6386909258039827  1.0000
  H   H127      1.0  0.7922356799811817  0.7036448936208707  0.6325321102544974  1.0000
  H   H128      1.0  0.7958358744223009  0.7078013901103744  0.5678565491142089  1.0000
  N   N1        1.0  0.7272261038485489  0.138560662534569  0.8780950272095748  1.0000
  C   C193      1.0  0.7278790506991812  0.12078236863248337  0.9151816334734884  1.0000
  C   C194      1.0  0.7571186882493551  0.1863603067950108  0.8721408879563862  1.0000
  C   C195      1.0  0.687406648778449  0.15875666766482333  0.8691577754854006  1.0000
  C   C196      1.0  0.736606581834052  0.088407273428049  0.8558102236687448  1.0000
  H   H129      1.0  0.7220415915127305  0.15804521108825353  0.9327534380038707  1.0000
  H   H130      1.0  0.757313379432051  0.10455072830970469  0.9227604732228336  1.0000
  H   H131      1.0  0.7050587057734181  0.08565702651494278  0.9208702176655459  1.0000
  H   H132      1.0  0.787459755749742  0.17299506441036017  0.8790414041327569  1.0000
  H   H133      1.0  0.7578307606386144  0.2001964442365869  0.8442645439807023  1.0000
  H   H134      1.0  0.7506670565111003  0.2252433122610018  0.8882323821071851  1.0000
  H   H135      1.0  0.6859382136070772  0.17264327715489913  0.8413386716484998  1.0000
  H   H136      1.0  0.6793279104288145  0.19672919915339881  0.8854108109223096  1.0000
  H   H137      1.0  0.6640605761830576  0.12369074635345312  0.8731662138446026  1.0000
  H   H138      1.0  0.7355101892270522  0.1000695127884843  0.8276128914224726  1.0000
  H   H139      1.0  0.7150860373263226  0.05104362511514893  0.859982351725353  1.0000
  H   H140      1.0  0.7667640136790697  0.07272070242505291  0.8611818783070136  1.0000
  N   N2        1.0  0.09703164035624856  0.879855865019039  0.46307907381581864  1.0000
  C   C197      1.0  0.0735198128315302  0.8295873232336476  0.47746933683877557  1.0000
  C   C198      1.0  0.07055779524056471  0.918219645864559  0.4437153366018189  1.0000
  C   C199      1.0  0.12788437916385864  0.8587207479296204  0.4392515368753787  1.0000
  C   C200      1.0  0.11614607355946038  0.9129198234687168  0.4919551517453057  1.0000
  H   H141      1.0  0.04920746593607528  0.8442368221795936  0.4946420462250096  1.0000
  H   H142      1.0  0.09221202142796336  0.8007595039728301  0.49340720204050026  1.0000
  H   H143      1.0  0.0596182755413448  0.8025567463305587  0.45641097626088967  1.0000
  H   H144      1.0  0.08742823608945272  0.9563045908644945  0.4321863360200239  1.0000
  H   H145      1.0  0.055199053670379694  0.8944753341451094  0.4219715411514359  1.0000
  H   H146      1.0  0.04710017571246383  0.9352347624152202  0.4610844347412882  1.0000
  H   H147      1.0  0.14645770876331077  0.8955212622970874  0.4281505881726869  1.0000
  H   H148      1.0  0.11468174366886652  0.8338235303324709  0.4169866627448479  1.0000
  H   H149      1.0  0.1482378363683503  0.8294842988022791  0.45304654101015346  1.0000
  H   H150      1.0  0.13544496104171944  0.9498861676569637  0.4820981070232005  1.0000
  H   H151      1.0  0.13530496773243317  0.884738812759934  0.5078738179279744  1.0000
  H   H152      1.0  0.09373150178033973  0.9311772716850055  0.5098639423839307  1.0000
  N   N3        1.0  0.10949606008568447  0.9689141823947626  0.18198211201648767  1.0000
  C   C201      1.0  0.10206182805512953  0.9503801493236294  0.1455694146381501  1.0000
  C   C202      1.0  0.13407973079001945  0.023735249164571037  0.18217435593079592  1.0000
  C   C203      1.0  0.13067463298291515  0.9231095016597942  0.2005998506801847  1.0000
  C   C204      1.0  0.07117652175349742  0.9783730268501423  0.19956915725693564  1.0000
  H   H153      1.0  0.08598012574556124  0.9839412970977635  0.13082845095748197  1.0000
  H   H154      1.0  0.08353412513057568  0.909062050235616  0.14446816308489555  1.0000
  H   H155      1.0  0.13030196962398577  0.9428365379000057  0.13141282103728494  1.0000
  H   H156      1.0  0.11923578000222479  0.05929379729136586  0.16812875353163673  1.0000
  H   H157      1.0  0.14005901657169928  0.03923128119223129  0.2092772785939435  1.0000
  H   H158      1.0  0.16347813631092856  0.018075311308762165  0.1695193352622346  1.0000
  H   H159      1.0  0.13720767175920456  0.93611657064278  0.22804158821551904  1.0000
  H   H160      1.0  0.15954857109586484  0.9145928308525529  0.18771464369619392  1.0000
  H   H161      1.0  0.11289107092138084  0.8812091842171541  0.20126802915780942  1.0000
  H   H162      1.0  0.05450136342506329  0.012919665260116231  0.18621564948010566  1.0000
  H   H163      1.0  0.07548969592992494  0.992366694953739  0.22716134634975865  1.0000
  H   H164      1.0  0.05173398615811431  0.9380259576721967  0.1996798404090041  1.0000
  N   N4        1.0  0.9294624994772772  0.9206283416348894  0.023783206205823415  1.0000
  C   C205      1.0  0.9217570266779864  0.9708073769784515  0.04665334615127669  1.0000
  C   C206      1.0  0.9697106829969336  0.9000330827599866  0.030523547254515202  1.0000
  C   C207      1.0  0.9265184712803384  0.9385801191962654  0.98684966149256  1.0000
  C   C208      1.0  0.8998624773276509  0.8729108090427182  0.03108733112285888  1.0000
  H   H165      1.0  0.8915201045293583  0.9873071600914787  0.04249457164634808  1.0000
  H   H166      1.0  0.943577399922542  0.0076812034926090345  0.042029048514263825  1.0000
  H   H167      1.0  0.9237295164866155  0.9585742191886973  0.07463898133593307  1.0000
  H   H168      1.0  0.9728493847537608  0.8850164783771813  0.05795396314573626  1.0000
  H   H169      1.0  0.9766257346297684  0.8627263528873343  0.01330189636141643  1.0000
  H   H170      1.0  0.9928858549656434  0.9350180521965082  0.025817617825374218  1.0000
  H   H171      1.0  0.9321419574253962  0.9015366310329487  0.9689226691446521  1.0000
  H   H172      1.0  0.948615855638126  0.9742886704180946  0.9803608765570435  1.0000
  H   H173      1.0  0.8965074339220858  0.9542556493655132  0.9807804271242955  1.0000
  H   H174      1.0  0.9045816876771803  0.8345571049804034  0.01399097919515202  1.0000
  H   H175      1.0  0.8690868904889819  0.8870316889655581  0.02673811248198262  1.0000
  H   H176      1.0  0.9016689661504784  0.8577780387544517  0.05861930198173372  1.0000
  N   N5        1.0  0.8841733599588657  0.4005458358594504  0.1872814121181662  1.0000
  C   C209      1.0  0.8786663641813962  0.4306980650353605  0.22093123976762313  1.0000
  C   C210      1.0  0.8460155806457098  0.3964098594279513  0.1684242563598823  1.0000
  C   C211      1.0  0.8980987593347273  0.3412079347192267  0.19385130998839573  1.0000
  C   C212      1.0  0.9138609259848136  0.4337764663675625  0.16588978027407805  1.0000
  H   H177      1.0  0.8557383535045147  0.4075263904778588  0.2374511575302419  1.0000
  H   H178      1.0  0.8691008139217506  0.4761354031682909  0.21698512367796968  1.0000
  H   H179      1.0  0.9065882882262785  0.433271776331981  0.23630231952012953  1.0000
  H   H180      1.0  0.8490562535389237  0.3729609952765991  0.14319019292532048  1.0000
  H   H181      1.0  0.8228747479127857  0.3718622955062477  0.18394522693839932  1.0000
  H   H182      1.0  0.8347795844187462  0.4403592382053178  0.1626344669621923  1.0000
  H   H183      1.0  0.902889706414471  0.31725168301094087  0.16901231524061527  1.0000
  H   H184      1.0  0.8759864948168057  0.3145984480884389  0.20938517142406876  1.0000
  H   H185      1.0  0.9265623221562964  0.3422805448826232  0.20844183914826583  1.0000
  H   H186      1.0  0.9431496608677149  0.4373099583165929  0.17913705502346186  1.0000
  H   H187      1.0  0.9044478528719018  0.4789749428929704  0.1606733063676912  1.0000
  H   H188      1.0  0.9183891796222874  0.4125985623045664  0.14012274893527074  1.0000
  N   N6        1.0  0.5654728080959674  0.09930821829313641  0.6955096076120957  1.0000
  C   C213      1.0  0.6049611146671482  0.07365154982488664  0.6966534511214629  1.0000
  C   C214      1.0  0.5548571327160997  0.1201614526077035  0.7306777597416466  1.0000
  C   C215      1.0  0.535705546376288  0.054529704326740314  0.6839502467141998  1.0000
  C   C216      1.0  0.5664010553747949  0.1488699067786221  0.670759152580471  1.0000
  H   H189      1.0  0.6139178629322842  0.05720363503251891  0.6705781233772438  1.0000
  H   H190      1.0  0.6056479107375418  0.036868179650930255  0.71562561044399  1.0000
  H   H191      1.0  0.6281671002705088  0.1066078383974911  0.7045252970262915  1.0000
  H   H192      1.0  0.5255470759044439  0.1406867221598045  0.730630676767289  1.0000
  H   H193      1.0  0.5528283808090667  0.08372391778692467  0.7499055972127611  1.0000
  H   H194      1.0  0.5770265674488118  0.15334046023154602  0.7404669426183588  1.0000
  H   H195      1.0  0.5331621363353062  0.01741742938803581  0.7026756549307764  1.0000
  H   H196      1.0  0.5432613151348725  0.03690860942593255  0.6578413488459937  1.0000
  H   H197      1.0  0.5057432388195415  0.07276171595126057  0.6819141760698831  1.0000
  H   H198      1.0  0.5369722084045245  0.16912958888342478  0.6691761614592034  1.0000
  H   H199      1.0  0.5746490946353536  0.13480439261614552  0.6439995048022338  1.0000
  H   H200      1.0  0.5885767990744196  0.18350236745253246  0.6787232271200122  1.0000
  N   N7        1.0  0.29444129072530356  0.3292426246139959  0.2957980689152103  1.0000
  C   C217      1.0  0.33375648371174677  0.3292363359713668  0.2786271590595427  1.0000
  C   C218      1.0  0.2735426980836789  0.2721817387707903  0.29027740068830765  1.0000
  C   C219      1.0  0.2709146087157281  0.376012322295908  0.2806972707454581  1.0000
  C   C220      1.0  0.29959052796809993  0.3396219241558267  0.33360536411113034  1.0000
  H   H201      1.0  0.3502678445147339  0.37175417521349097  0.2821899599575076  1.0000
  H   H202      1.0  0.3310178593500903  0.32151390858542106  0.2500261460886688  1.0000
  H   H203      1.0  0.3524091300578845  0.2948418616481132  0.2896930749449207  1.0000
  H   H204      1.0  0.24395305437659323  0.27036301628504167  0.30332549608896114  1.0000
  H   H205      1.0  0.26889267686602636  0.26294455737654787  0.26205540992427195  1.0000
  H   H206      1.0  0.29053349908214965  0.23592292471021148  0.30143048803657624  1.0000
  H   H207      1.0  0.24103460663409806  0.37707686168858  0.29305140974580096  1.0000
  H   H208      1.0  0.26666197581496914  0.3698594421471606  0.25209867346164233  1.0000
  H   H209      1.0  0.2858775410601761  0.4196939325670084  0.28460570693330234  1.0000
  H   H210      1.0  0.3147581170854197  0.3827210101547962  0.338712464524509  1.0000
  H   H211      1.0  0.31753295511604657  0.3054637664681732  0.34590465055815034  1.0000
  H   H212      1.0  0.27056694792949765  0.33870276161304  0.34759281996763236  1.0000
  N   N8        1.0  0.7829384785513104  0.9019794841007831  0.6524272417455285  1.0000
  C   C221      1.0  0.8254838023602908  0.9006362212086786  0.6432199039103192  1.0000
  C   C222      1.0  0.763664082347541  0.8440170510309912  0.6461375137407936  1.0000
  C   C223      1.0  0.763854859981921  0.9460024714061929  0.6306605034955703  1.0000
  C   C224      1.0  0.7788724010552784  0.9173441927522091  0.6897051240585625  1.0000
  H   H213      1.0  0.8410150840481843  0.8692514779375748  0.6599755512588087  1.0000
  H   H214      1.0  0.8405160794120213  0.9442287518765479  0.6467679595566259  1.0000
  H   H215      1.0  0.8298251193542125  0.887419181187884  0.6155439309115563  1.0000
  H   H216      1.0  0.7313243531835185  0.8438643789891406  0.6519480931572966  1.0000
  H   H217      1.0  0.7674454991926675  0.8300364091115481  0.6185399819524134  1.0000
  H   H218      1.0  0.7765556222959733  0.8101022875248565  0.6629876884805354  1.0000
  H   H219      1.0  0.7677819387588164  0.937096851285755  0.6023187272359606  1.0000
  H   H220      1.0  0.7768777381454608  0.9903720718410584  0.635748366850531  1.0000
  H   H221      1.0  0.7315050169916321  0.9474087536045034  0.6361912473494141  1.0000
  H   H222      1.0  0.7471737480534018  0.9196930077607659  0.6975903915170777  1.0000
  H   H223      1.0  0.7936281365829759  0.9605469172619623  0.6954657677354174  1.0000
  H   H224      1.0  0.7926925624560813  0.884554526939931  0.7068290571162128  1.0000
  N   N9        1.0  0.5635346110037518  0.5215775800777748  0.17587936337488488  1.0000
  C   C225      1.0  0.5831149893901533  0.5339694150700013  0.1419510657841685  1.0000
  C   C226      1.0  0.5895172409173738  0.5431881331684644  0.2043826364965526  1.0000
  C   C227      1.0  0.5561384794024599  0.4579663880057719  0.1796549870261814  1.0000
  C   C228      1.0  0.5254449589411789  0.5512811042166895  0.17747803462298203  1.0000
  H   H225      1.0  0.5892685704401676  0.5815393856546835  0.1381636607715398  1.0000
  H   H226      1.0  0.5642072908466865  0.5183545091512965  0.11988185998167708  1.0000
  H   H227      1.0  0.6119079625974693  0.5120342777621327  0.13991455467659766  1.0000
  H   H228      1.0  0.6178305819968  0.5200776320721635  0.20511581581216243  1.0000
  H   H229      1.0  0.5973616786873395  0.5903468552451285  0.20107135189069225  1.0000
  H   H230      1.0  0.574963116775892  0.5374062445737734  0.23034814265282516  1.0000
  H   H231      1.0  0.541493951983372  0.44697740885880993  0.2050042419910069  1.0000
  H   H232      1.0  0.5843590574049737  0.43436611360934724  0.1783338267085877  1.0000
  H   H233      1.0  0.5365455537170184  0.4404022488170434  0.15848144508955236  1.0000
  H   H234      1.0  0.5098504815115544  0.5428821177832029  0.20277405898407527  1.0000
  H   H235      1.0  0.5050879816584195  0.5362415158743177  0.1562390014768024  1.0000
  H   H236      1.0  0.5300414080244713  0.5994437695625376  0.17506171905906578  1.0000
  N   N10       1.0  0.7992598893539881  0.14311751800330352  0.431077660747816  1.0000
  C   C229      1.0  0.7965655059062633  0.07885959247019869  0.4342103698743495  1.0000
  C   C230      1.0  0.7588683227873775  0.1657781936375573  0.4298190085020947  1.0000
  C   C231      1.0  0.8210091788979145  0.1599067165495951  0.39877894369048644  1.0000
  C   C232      1.0  0.8204915109654489  0.16794822249806707  0.46164092031376486  1.0000
  H   H237      1.0  0.8265255429548527  0.06027070641919985  0.4356402262661318  1.0000
  H   H238      1.0  0.7807139742588717  0.058408452790562615  0.4116793442164384  1.0000
  H   H239      1.0  0.7804962793736177  0.06497964762539721  0.45850027221436246  1.0000
  H   H240      1.0  0.7597684031186305  0.21429040143099298  0.4279497907200626  1.0000
  H   H241      1.0  0.7418809074772581  0.1481836351704804  0.4070976478886233  1.0000
  H   H242      1.0  0.7417555906472959  0.15409479450955765  0.45393264045571  1.0000
  H   H243      1.0  0.851644082334748  0.14364694618542062  0.3988683020892301  1.0000
  H   H244      1.0  0.8232952063412907  0.20818609274090605  0.3955819202754144  1.0000
  H   H245      1.0  0.8059474888356396  0.14163245950385828  0.37514071835893475  1.0000
  H   H246      1.0  0.8228258315549141  0.21645214705629434  0.4604747846945584  1.0000
  H   H247      1.0  0.8509084645754346  0.15135327975038027  0.46383893464138504  1.0000
  H   H248      1.0  0.8047218563613048  0.15616980280089043  0.4864720197386472  1.0000
  N   N11       1.0  0.3922993234244363  0.6826222728895287  0.11543501223135288  1.0000
  C   C233      1.0  0.40112000649911966  0.746207561233302  0.11455458642222821  1.0000
  C   C234      1.0  0.34890557013370005  0.6715506740878955  0.1149722216280083  1.0000
  C   C235      1.0  0.40866280651351106  0.6574935505396581  0.1476337296400513  1.0000
  C   C236      1.0  0.41016123349219297  0.6553115795969802  0.08449334438781582  1.0000
  H   H249      1.0  0.43361569859476695  0.7563813951081394  0.11537784806321189  1.0000
  H   H250      1.0  0.3871641622877051  0.7685014013804304  0.137015476134696  1.0000
  H   H251      1.0  0.3896833008214678  0.7659701379679841  0.09019134797213074  1.0000
  H   H252      1.0  0.34132750056849837  0.6239199342543363  0.11547175526386755  1.0000
  H   H253      1.0  0.3344205583955744  0.6914147599170807  0.13802661074848996  1.0000
  H   H254      1.0  0.33562232013430787  0.6895902202358177  0.09088165908485053  1.0000
  H   H255      1.0  0.4017823203073063  0.6096724498735305  0.14932956286558624  1.0000
  H   H256      1.0  0.39571743159550404  0.6773832589544095  0.17140547618645313  1.0000
  H   H257      1.0  0.44144134179582767  0.6644891468273841  0.14892212115095896  1.0000
  H   H258      1.0  0.4041329598404158  0.6073000221273451  0.08423674265021167  1.0000
  H   H259      1.0  0.4428557369507699  0.6633999289122902  0.08354355815362097  1.0000
  H   H260      1.0  0.39770572838951446  0.6725921266334005  0.059778452220702584  1.0000
  N   N12       1.0  0.3283725689772842  0.4551862057249817  0.8876827255292271  1.0000
  C   C237      1.0  0.3054297957025732  0.4958750096402464  0.9088511969943323  1.0000
  C   C238      1.0  0.317070456533289  0.4602780007323347  0.8505956799626586  1.0000
  C   C239      1.0  0.31974345288399125  0.39483873467674974  0.8998856710235179  1.0000
  C   C240      1.0  0.3711999203277643  0.4697782518214652  0.8914339837637631  1.0000
  H   H261      1.0  0.31279092386268004  0.49283403814314514  0.9370973906985186  1.0000
  H   H262      1.0  0.2729409097834725  0.4864403917254972  0.9062925892612241  1.0000
  H   H263      1.0  0.31135770995214557  0.5420142856075846  0.9007118156370268  1.0000
  H   H264      1.0  0.33339333047187775  0.4293996573452003  0.8339449784833083  1.0000
  H   H265      1.0  0.28472242961328037  0.45074839449517706  0.8468689465879765  1.0000
  H   H266      1.0  0.3237417186953205  0.5050959629385289  0.8403987192851256  1.0000
  H   H267      1.0  0.33703968814526636  0.3628878516501221  0.8848751566348031  1.0000
  H   H268      1.0  0.2877244510111902  0.38218867891863684  0.8970658460515945  1.0000
  H   H269      1.0  0.32735679792083777  0.38968712226334845  0.9279492761514009  1.0000
  H   H270      1.0  0.3807268020677132  0.4660787236651733  0.9191102221062317  1.0000
  H   H271      1.0  0.3786545431220022  0.515223598473007  0.8826994434251423  1.0000
  H   H272      1.0  0.3894060690877945  0.4400139650683531  0.8755901254455422  1.0000
  N   N13       1.0  0.513062386474703  0.44670581854829977  0.3871018301424126  1.0000
  C   C241      1.0  0.5313743620856991  0.4976731524916828  0.405293032962697  1.0000
  C   C242      1.0  0.49183820312174237  0.4668653245785514  0.3559420441304673  1.0000
  C   C243      1.0  0.48474809410295655  0.41558097547527156  0.4108241230336097  1.0000
  C   C244      1.0  0.5442045311267214  0.4068115096508669  0.37632759381405323  1.0000
  H   H273      1.0  0.5476414234876389  0.4842497525189382  0.4289362234499822  1.0000
  H   H274      1.0  0.5085678910270726  0.5285631939687855  0.4137871789271105  1.0000
  H   H275      1.0  0.55294613164998  0.522138472244525  0.38819317558017874  1.0000
  H   H276      1.0  0.5122486270741599  0.49015844182125307  0.3372574613063157  1.0000
  H   H277      1.0  0.47693086688008535  0.4297649389684552  0.3418185389397607  1.0000
  H   H278      1.0  0.4683549870075563  0.4974417931655516  0.363167304152143  1.0000
  H   H279      1.0  0.461915007448193  0.44503362711197825  0.4208110108991859  1.0000
  H   H280      1.0  0.4999398643595517  0.39726708980946485  0.43383312208715713  1.0000
  H   H281      1.0  0.46889811522922265  0.37845415657804254  0.3975116208623775  1.0000
  H   H282      1.0  0.5660286479364083  0.4286193174154848  0.35823735064734663  1.0000
  H   H283      1.0  0.5311949926358188  0.367489702533908  0.36300346263714195  1.0000
  H   H284      1.0  0.560945274514771  0.3910494137189702  0.39923157261323733  1.0000
  N   N14       1.0  0.12382430109666442  0.683001714728007  0.682738340604042  1.0000
  C   C245      1.0  0.09213545172558057  0.6626975263349252  0.7070982650570998  1.0000
  C   C246      1.0  0.13232246152274518  0.6356312173786028  0.6580516548629438  1.0000
  C   C247      1.0  0.16001661290428681  0.6991931594824307  0.7026400211512018  1.0000
  C   C248      1.0  0.11070283453340157  0.7342675403348461  0.6631837015706488  1.0000
  H   H285      1.0  0.10106374028421428  0.6239977846575037  0.7223344437330548  1.0000
  H   H286      1.0  0.06440058639527124  0.6501031013831177  0.6928550301608253  1.0000
  H   H287      1.0  0.08488340089193103  0.697280961899007  0.7261175255842571  1.0000
  H   H288      1.0  0.15641200036228176  0.6490713217674723  0.6394238300090039  1.0000
  H   H289      1.0  0.14170177419286523  0.5959645510295923  0.6720326632386211  1.0000
  H   H290      1.0  0.10569523826558602  0.6230923621583365  0.6422326120131246  1.0000
  H   H291      1.0  0.18537327013530014  0.7115103797130121  0.6850563359212891  1.0000
  H   H292      1.0  0.1691788334356994  0.6624248050246714  0.719239073911215  1.0000
  H   H293      1.0  0.15519891658089668  0.73643187782493  0.7204559569129715  1.0000
  H   H294      1.0  0.10572538121724806  0.7717325903300856  0.6807118105619282  1.0000
  H   H295      1.0  0.08226414102290369  0.7243869711719654  0.6493706836171904  1.0000
  H   H296      1.0  0.13303456503592592  0.7488559729786863  0.6432876619714517  1.0000
  N   N15       1.0  0.81798542865782  0.43946168475204894  0.7330046798023863  1.0000
  C   C249      1.0  0.7757182594414159  0.44075829964179225  0.7432204294486291  1.0000
  C   C250      1.0  0.8421969087526079  0.4251055914130346  0.7636717651797694  1.0000
  C   C251      1.0  0.8310961766869113  0.49731321527524863  0.7193372100327128  1.0000
  C   C252      1.0  0.8229219876400968  0.39485693517078846  0.7056841760101005  1.0000
  H   H297      1.0  0.7708999686237313  0.47377694799402326  0.763872534990405  1.0000
  H   H298      1.0  0.7646429956823699  0.3977902021092381  0.7534872816542967  1.0000
  H   H299      1.0  0.756785054411329  0.4514228078149207  0.7205140360197755  1.0000
  H   H300      1.0  0.8330395891874972  0.381633620504201  0.7746523106519771  1.0000
  H   H301      1.0  0.8742323751521678  0.4238754544214556  0.7566670284305912  1.0000
  H   H302      1.0  0.8392659360184278  0.45788001138536716  0.7848091681370702  1.0000
  H   H303      1.0  0.812490677587868  0.5102158702051522  0.696906532191609  1.0000
  H   H304      1.0  0.8624812538039333  0.49756085147104323  0.7101427655817886  1.0000
  H   H305      1.0  0.829016083932589  0.5318442870790807  0.7395439179395683  1.0000
  H   H306      1.0  0.8542217478464385  0.39401381096477306  0.6964468984417646  1.0000
  H   H307      1.0  0.8041759459124115  0.4033125858368489  0.6825596868059268  1.0000
  H   H308      1.0  0.8142449313319466  0.35039003847356986  0.7153657631179372  1.0000
  N   N16       1.0  0.5406537183442867  0.27346370127044595  0.9366530166399757  1.0000
  C   C253      1.0  0.5665868692402565  0.22301796684776076  0.9367661367612432  1.0000
  C   C254      1.0  0.5609893886846437  0.32360258428460065  0.9539834424715999  1.0000
  C   C255      1.0  0.5034413595452323  0.2580236544099779  0.955605984486227  1.0000
  C   C256      1.0  0.531814312630053  0.28954644104023153  0.9002493640585394  1.0000
  H   H309      1.0  0.5743336010032937  0.21015914468125874  0.963874476462045  1.0000
  H   H310      1.0  0.5948011681020396  0.2332007932964046  0.9224331920500515  1.0000
  H   H311      1.0  0.551977185318291  0.18437381711586218  0.9238769416180659  1.0000
  H   H312      1.0  0.5693403811141343  0.3127460261044066  0.9811954178462695  1.0000
  H   H313      1.0  0.5884578724057461  0.33755592078322916  0.9395988528255935  1.0000
  H   H314      1.0  0.5417706148382618  0.36189243545783156  0.9552216807503667  1.0000
  H   H315      1.0  0.5094094909946592  0.2457388849719295  0.983182289288183  1.0000
  H   H316      1.0  0.4869589008827204  0.2207603970883627  0.9430907523003698  1.0000
  H   H317      1.0  0.4832914216997121  0.2951948181278563  0.9562156121568904  1.0000
  H   H318      1.0  0.5132929357046168  0.3285477975643567  0.8991452774576487  1.0000
  H   H319      1.0  0.515509047617656  0.253568842624319  0.8863631719373223  1.0000
  H   H320      1.0  0.5594653153621878  0.3001950426330058  0.8851295250090182  1.0000
  N   N17       1.0  0.7370170471913593  0.5819338334921532  0.4094675507902255  1.0000
  C   C257      1.0  0.7600496984593128  0.6129746317518163  0.3818126838466361  1.0000
  C   C258      1.0  0.7253229810349091  0.5225501204227248  0.39738751061064426  1.0000
  C   C259      1.0  0.7011303443652874  0.6143471792770864  0.41772462954280154  1.0000
  C   C260      1.0  0.7616358316393373  0.5778688591996933  0.44107083330328256  1.0000
  H   H321      1.0  0.7701378377228096  0.6574020848591708  0.39035847075429214  1.0000
  H   H322      1.0  0.741918592959971  0.6180592716248599  0.35789741693562604  1.0000
  H   H323      1.0  0.7867813656443037  0.5888579909255617  0.37436627669957767  1.0000
  H   H324      1.0  0.7517611771426126  0.4967198855536129  0.3911895107257834  1.0000
  H   H325      1.0  0.7076497571146553  0.4981078503533876  0.4176559456371744  1.0000
  H   H326      1.0  0.7068764189407913  0.5239575600679353  0.37339710943742227  1.0000
  H   H327      1.0  0.6829492690045632  0.5919629664458002  0.4383995312374333  1.0000
  H   H328      1.0  0.6817840874376188  0.6183164514814565  0.39448796765154226  1.0000
  H   H329      1.0  0.7088843920379616  0.6591740565916143  0.4271081921889771  1.0000
  H   H330      1.0  0.7447242989812055  0.5556061823876125  0.4625043120561633  1.0000
  H   H331      1.0  0.7715750394343083  0.6216904034666234  0.4507935128668758  1.0000
  H   H332      1.0  0.7885793580575313  0.5526756674748822  0.4360385409502464  1.0000
  N   N18       1.0  0.32569158333946147  0.5587441068111717  0.5423397392365049  1.0000
  C   C261      1.0  0.3077168090839113  0.5230033733091064  0.5140138529393145  1.0000
  C   C262      1.0  0.3039971085229832  0.5467196876199182  0.5753395920403301  1.0000
  C   C263      1.0  0.3233019247878329  0.6211143026738838  0.5333860374063263  1.0000
  C   C264      1.0  0.36770882679728056  0.5443638331699402  0.546598067684048  1.0000
  H   H333      1.0  0.3094297703002112  0.4755219921662206  0.5195540460496039  1.0000
  H   H334      1.0  0.32317940338994133  0.5314545360661815  0.48865009963109446  1.0000
  H   H335      1.0  0.2759535978814997  0.5327223954061858  0.5100784607484546  1.0000
  H   H336      1.0  0.31610172026955163  0.5742477597216391  0.5970740225779214  1.0000
  H   H337      1.0  0.27204133068193137  0.5561243378766221  0.5728157266525532  1.0000
  H   H338      1.0  0.3058632346907153  0.5002207132704628  0.5832634065278186  1.0000
  H   H339      1.0  0.33613885248633146  0.6496928549348122  0.5542844248575045  1.0000
  H   H340      1.0  0.29198570298226406  0.6328867370432376  0.5298814044871191  1.0000
  H   H341      1.0  0.3390418017701782  0.6317923078948731  0.5084398092738246  1.0000
  H   H342      1.0  0.3821942464783523  0.5707454705716073  0.5676503801204416  1.0000
  H   H343      1.0  0.3848126012532615  0.5523892124509803  0.5220180892117566  1.0000
  H   H344      1.0  0.3705967235103664  0.4974542282460584  0.5533041751015793  1.0000
  N   N19       1.0  0.9972633556376966  0.1307398193361673  0.40591778605758827  1.0000
  C   C265      1.0  0.9659152242328092  0.1450780749261642  0.43121348589015435  1.0000
  C   C266      1.0  0.0356714849736024  0.12751943579683966  0.42412824851914493  1.0000
  C   C267      1.0  0.0002774118857451428  0.17637977600513488  0.3786240947647612  1.0000
  C   C268      1.0  0.9870400367859907  0.07383011357946034  0.38964930074405635  1.0000
  H   H345      1.0  0.9365171245814394  0.14706496173156935  0.4182565422972059  1.0000
  H   H346      1.0  0.9724388532095624  0.18799912422158993  0.4438889448033798  1.0000
  H   H347      1.0  0.9629778035169131  0.11165699771502391  0.45228062988594747  1.0000
  H   H348      1.0  0.05993055425570933  0.11683740073836546  0.40563266367039785  1.0000
  H   H349      1.0  0.044423225641426305  0.16976031468579  0.4366892792896001  1.0000
  H   H350      1.0  0.034494790481016224  0.09321464202977525  0.4447126158860232  1.0000
  H   H351      1.0  0.007512276163361029  0.22011019820937494  0.38994431828767295  1.0000
  H   H352      1.0  0.9721243214749277  0.17904639140054113  0.3637295831410033  1.0000
  H   H353      1.0  0.024035601657435013  0.16734171095830885  0.3593632473976547  1.0000
  H   H354      1.0  0.010711668120446884  0.06005459977064387  0.3714755993752962  1.0000
  H   H355      1.0  0.9591958498293873  0.07558695129654236  0.37431952219748926  1.0000
  H   H356      1.0  0.9828255825835048  0.038590582784924  0.40946652820343804  1.0000
  N   N20       1.0  0.43252406420463196  0.9347979691507187  0.9242534825812173  1.0000
  C   C269      1.0  0.446511642159031  0.996288362259135  0.9199028645989799  1.0000
  C   C270      1.0  0.38929197752111894  0.9321330157178825  0.9307171955375684  1.0000
  C   C271      1.0  0.45286877914161294  0.9088029082662161  0.9542595404370382  1.0000
  C   C272      1.0  0.4412356238430269  0.9020032146316246  0.8921362926515458  1.0000
  H   H357      1.0  0.47884208295290065  3.017604522770334e-05  0.9137793602010624  1.0000
  H   H358      1.0  0.4413444049420713  0.022042240761316112  0.9439615285762789  1.0000
  H   H359      1.0  0.4306442993403113  0.01776766084762227  0.8982611833034878  1.0000
  H   H360      1.0  0.37785420040757944  0.8863593874497379  0.934726707939232  1.0000
  H   H361      1.0  0.3816030168137556  0.9574993160970728  0.9543782276693741  1.0000
  H   H362      1.0  0.37294951345713406  0.9506750856068497  0.9083865625155348  1.0000
  H   H363      1.0  0.48559712440547653  0.9099293613549674  0.9503675026177003  1.0000
  H   H364      1.0  0.4427616814358151  0.8625084260735965  0.9584573542044883  1.0000
  H   H365      1.0  0.44656754573383317  0.9325084637153589  0.9788952566762634  1.0000
  H   H366      1.0  0.43077262032689734  0.855513822582857  0.8943629121945629  1.0000
  H   H367      1.0  0.4736425604689775  0.9029132135713824  0.8864318919782952  1.0000
  H   H368      1.0  0.4262767356532535  0.9208495429880115  0.869068379124728  1.0000
  N   N21       1.0  0.2460868613553433  0.89804845925215  0.8850004047195034  1.0000
  C   C273      1.0  0.2708700615886068  0.8962296886384721  0.9166377858562956  1.0000
  C   C274      1.0  0.20475530179265689  0.880046583222242  0.8941000279318964  1.0000
  C   C275      1.0  0.26151021059074697  0.8578169702814412  0.8585998092879571  1.0000
  C   C276      1.0  0.24722458942952574  0.957977833092337  0.8707102534027236  1.0000
  H   H369      1.0  0.2602155638097736  0.9263445931183244  0.9370734471385591  1.0000
  H   H370      1.0  0.30239164256691287  0.9083698304733956  0.9107852775964465  1.0000
  H   H371      1.0  0.2698035882434735  0.8519284302429964  0.9285095531976515  1.0000
  H   H372      1.0  0.20267898847797183  0.8346482009772475  0.9045136802595077  1.0000
  H   H373      1.0  0.19249980659739685  0.9084638635103092  0.9147009790371732  1.0000
  H   H374      1.0  0.18489058442130535  0.88166283478763  0.8710418940726374  1.0000
  H   H375      1.0  0.24284786718563978  0.856571432518138  0.8347127735914954  1.0000
  H   H376      1.0  0.2621081499530624  0.8126238975757983  0.8689016732940784  1.0000
  H   H377      1.0  0.29247267146403777  0.8704652250589812  0.8506800332788977  1.0000
  H   H378      1.0  0.2295259972753081  0.9604771794391413  0.8463454173894541  1.0000
  H   H379      1.0  0.27817062980189267  0.9735674015616975  0.8643802145655723  1.0000
  H   H380      1.0  0.2348994462601035  0.9892948338753624  0.8896527050838048  1.0000
  N   N22       1.0  0.2136863182744717  0.6367823621803071  0.08994088216054519  1.0000
  C   C277      1.0  0.22770736420362916  0.577003771051231  0.09429745348365004  1.0000
  C   C278      1.0  0.16996626566196055  0.6355278340192928  0.09273058056303118  1.0000
  C   C279      1.0  0.22596903368528812  0.659260389483578  0.05524915584080681  1.0000
  C   C280      1.0  0.23101295450060833  0.6752220178626008  0.11729912611830451  1.0000
  H   H381      1.0  0.26049280942527814  0.5759473144641074  0.09128669042950088  1.0000
  H   H382      1.0  0.21452255531640635  0.5469697686255882  0.07430835025130822  1.0000
  H   H383      1.0  0.2197140918581823  0.5587943209769698  0.12043340624922672  1.0000
  H   H384      1.0  0.1560552766281076  0.606595157959491  0.07252873683988725  1.0000
  H   H385      1.0  0.15958507341384479  0.6191404017914377  0.11865356652123826  1.0000
  H   H386      1.0  0.15816502503366286  0.6796993234537773  0.08893541059590016  1.0000
  H   H387      1.0  0.25882962378077057  0.6618463304555917  0.052389224104516297  1.0000
  H   H388      1.0  0.2151600636849378  0.7037866971775876  0.050641238341818884  1.0000
  H   H389      1.0  0.21420200683201499  0.630575724759741  0.033953690538816916  1.0000
  H   H390      1.0  0.2209462109212821  0.7207182417358603  0.11467978830379888  1.0000
  H   H391      1.0  0.2639048647883367  0.6775081736709436  0.1157027888158646  1.0000
  H   H392      1.0  0.22277737083974497  0.6594169834518692  0.1439362029285618  1.0000
  N   N23       1.0  0.3160905993064256  0.19676108313263718  0.08501981583895661  1.0000
  C   C281      1.0  0.3591331190769548  0.19870089535484614  0.07740027656408133  1.0000
  C   C282      1.0  0.29374151905004375  0.1858004662148598  0.052416024962415535  1.0000
  C   C283      1.0  0.3049474787697577  0.2532238218771028  0.0999108015683824  1.0000
  C   C284      1.0  0.3065688104014161  0.14949618033725764  0.1103157875694908  1.0000
  H   H393      1.0  0.36727247954688447  0.2332239600718995  0.057988882120518795  1.0000
  H   H394      1.0  0.36871531523751266  0.15681922891085387  0.06624750322587426  1.0000
  H   H395      1.0  0.3769276371556821  0.2076121224319598  0.10130001279372632  1.0000
  H   H396      1.0  0.26117986999645604  0.1841887516636298  0.05713435514542774  1.0000
  H   H397      1.0  0.3004507772938476  0.22043249900776685  0.03264897718914516  1.0000
  H   H398      1.0  0.3014912496884152  0.1437169869442212  0.04032118863271171  1.0000
  H   H399      1.0  0.27282387405475006  0.2533116136861251  0.10660038467221371  1.0000
  H   H400      1.0  0.3111386767546557  0.289452693555442  0.08110819219758111  1.0000
  H   H401      1.0  0.32178769652106504  0.2637478187747002  0.12418578304606721  1.0000
  H   H402      1.0  0.32293262706475484  0.15639082290472373  0.13522175408493048  1.0000
  H   H403      1.0  0.31467965380232016  0.10626924871943788  0.09980877049787606  1.0000
  H   H404      1.0  0.2743247106933904  0.146703793816086  0.11667254599231153  1.0000
  N   N24       1.0  0.918645452057546  0.5969968902184971  0.5415242733088191  1.0000
  C   C285      1.0  0.9209737827220599  0.6337849124272638  0.5731440231618826  1.0000
  C   C286      1.0  0.9591157718835273  0.5878992302767675  0.5282018085106398  1.0000
  C   C287      1.0  0.8953827024689079  0.6262495449785517  0.514537427198561  1.0000
  C   C288      1.0  0.8990846930984291  0.5399979183594459  0.550135322748481  1.0000
  H   H405      1.0  0.8909832295739496  0.6402395001710862  0.5844504839294328  1.0000
  H   H406      1.0  0.9344813016406546  0.6777595890581256  0.5673096552486536  1.0000
  H   H407      1.0  0.9393126415085081  0.6137773613164341  0.5937396197339379  1.0000
  H   H408      1.0  0.9583720110722453  0.5602409379786962  0.5043261260044937  1.0000
  H   H409      1.0  0.9747314260171891  0.6300854016580418  0.5214410386614466  1.0000
  H   H410      1.0  0.9774475912313487  0.5658537567905203  0.5480233435739502  1.0000
  H   H411      1.0  0.8645398605433362  0.633294295689119  0.5236666150879996  1.0000
  H   H412      1.0  0.8932442514371104  0.6000179548099885  0.4901934484157757  1.0000
  H   H413      1.0  0.908996716928978  0.669666990355506  0.5075089533337738  1.0000
  H   H414      1.0  0.9161538491886334  0.5162583786052193  0.5700152444047943  1.0000
  H   H415      1.0  0.8962445517639688  0.5115281110466791  0.5266946713747661  1.0000
  H   H416      1.0  0.8686518601993116  0.5452660192104997  0.5607406855828613  1.0000
  N   N25       1.0  0.30641534442483986  0.833916301486037  0.29545869496028226  1.0000
  C   C289      1.0  0.34988822415530435  0.8417479760739701  0.2990010826127035  1.0000
  C   C290      1.0  0.29709117407903296  0.795639146198003  0.26531798475465845  1.0000
  C   C291      1.0  0.28916606435429926  0.8914232500787508  0.28992621100069904  1.0000
  C   C292      1.0  0.289667425256068  0.8069845854031942  0.3276667602289513  1.0000
  H   H417      1.0  0.3579566151678338  0.8696438522541461  0.32184374377512304  1.0000
  H   H418      1.0  0.3636416277428626  0.8620733788440147  0.2752807587346081  1.0000
  H   H419      1.0  0.36384358956672913  0.7993106417513915  0.30327533883634467  1.0000
  H   H420      1.0  0.3101997166304518  0.7520725175503641  0.2684121377032016  1.0000
  H   H421      1.0  0.26451469708451053  0.7881965725779487  0.2622011695143232  1.0000
  H   H422      1.0  0.30881769568572404  0.8148786304471403  0.24043831268707333  1.0000
  H   H423      1.0  0.25625630407017314  0.8875141425096407  0.28797174165594386  1.0000
  H   H424      1.0  0.30072055354615385  0.9127377150140451  0.2656264151596842  1.0000
  H   H425      1.0  0.2961260377668189  0.9215169500784586  0.3120403323266769  1.0000
  H   H426      1.0  0.2567295901623289  0.8024903089378974  0.3266265408290847  1.0000
  H   H427      1.0  0.2972892627963615  0.8337372501615645  0.3511152837956595  1.0000
  H   H428      1.0  0.30124964155371786  0.7628197877585655  0.33217969310378487  1.0000
  N   N26       1.0  0.9699451514735674  0.9253050109088735  0.6615261094996124  1.0000
  C   C293      1.0  0.96400334254604  0.9841634079299081  0.675804334821055  1.0000
  C   C294      1.0  0.9478905300985224  0.9181941572997478  0.6284714345323804  1.0000
  C   C295      1.0  0.9552579007934678  0.8809348575784357  0.6869406185207977  1.0000
  C   C296      1.0  0.012679757304046023  0.9178314783043774  0.6548694110898683  1.0000
  H   H429      1.0  0.9746769067642261  0.018788152364957567  0.6572374610326236  1.0000
  H   H430      1.0  0.9804393642328545  0.991025243891022  0.7006906873249192  1.0000
  H   H431      1.0  0.9320498873015121  0.9912025136858162  0.6812639540626105  1.0000
  H   H432      1.0  0.9153870337140084  0.920985397282634  0.6325636419506422  1.0000
  H   H433      1.0  0.9570830247856538  0.9526740324394787  0.609280278767131  1.0000
  H   H434      1.0  0.9534253137349695  0.8754174657215856  0.6160362533638082  1.0000
  H   H435      1.0  0.922894918347935  0.8839359788486746  0.6920184056560942  1.0000
  H   H436      1.0  0.9708592556045433  0.8856997951870297  0.7124086723584814  1.0000
  H   H437      1.0  0.9605331587687997  0.8361710706917812  0.677435867538037  1.0000
  H   H438      1.0  0.01824781214320703  0.8734755277012654  0.6445625448078194  1.0000
  H   H439      1.0  0.030387675410147308  0.9230659607143057  0.6792097077559601  1.0000
  H   H440      1.0  0.02469061217440993  0.9498980543083791  0.6352863058073658  1.0000
  N   N27       1.0  0.06950756446013619  0.6441903124510046  0.9119133484910811  1.0000
  C   C297      1.0  0.05989751536159548  0.6482587275355716  0.8744091949794323  1.0000
  C   C298      1.0  0.06473201407797173  0.7015679679591089  0.9286183254840639  1.0000
  C   C299      1.0  0.11090026623840371  0.6266107374668336  0.9160197683242699  1.0000
  C   C300      1.0  0.04260997493389861  0.6001398492581368  0.9287253444992496  1.0000
  H   H441      1.0  0.062026060989567956  0.6053902824059518  0.8611430608851419  1.0000
  H   H442      1.0  0.08075859382215723  0.6794017592419506  0.8607464236137903  1.0000
  H   H443      1.0  0.029273136102133224  0.6634432396977842  0.8703348025320535  1.0000
  H   H444      1.0  0.07245742112251972  0.7002567740166781  0.9568090097001118  1.0000
  H   H445      1.0  0.08444247891206981  0.7358843271108416  0.9162361912620878  1.0000
  H   H446      1.0  0.03370833761957415  0.7160090049187048  0.9264862429377146  1.0000
  H   H447      1.0  0.11790982094291774  0.6179484209672154  0.9437967266583873  1.0000
  H   H448      1.0  0.13241434209499334  0.6612163196265558  0.9066137347390556  1.0000
  H   H449      1.0  0.11661994040742574  0.5857521050351503  0.9015552879546467  1.0000
  H   H450      1.0  0.04933402435948153  0.5959412651387763  0.957040700045421  1.0000
  H   H451      1.0  0.045702247072529456  0.5563771086502034  0.9167717457684863  1.0000
  H   H452      1.0  0.011119052430613063  0.6119130046411042  0.9262272266428998  1.0000
  N   N28       1.0  0.3407284087331715  0.9818965206492425  0.5196528194474791  1.0000
  C   C301      1.0  0.32483340950795553  0.9227203626902419  0.5285396697725391  1.0000
  C   C302      1.0  0.359034362881614  0.009316959553911097  0.5508565210725654  1.0000
  C   C303      1.0  0.3080974680380937  0.017820377209691873  0.5074177905355878  1.0000
  C   C304      1.0  0.37087448941576784  0.9778017830811141  0.4917307233947469  1.0000
  H   H453      1.0  0.30974603648960886  0.9015813772511067  0.5057641955880807  1.0000
  H   H454      1.0  0.30247015325515103  0.9239669077571901  0.5499775248837052  1.0000
  H   H455      1.0  0.34865797929992925  0.8938789873057598  0.53719837211706  1.0000
  H   H456      1.0  0.3717929281223631  0.05380061907432876  0.5447426518067926  1.0000
  H   H457      1.0  0.3368149067764536  0.014131096332128612  0.5721265308629395  1.0000
  H   H458      1.0  0.38344387556397397  0.9831199165904331  0.5611944203175623  1.0000
  H   H459      1.0  0.2827144192287481  0.016541973827674417  0.5261253805884746  1.0000
  H   H460      1.0  0.2967212071927078  0.002435802043604607  0.48175956366971506  1.0000
  H   H461      1.0  0.31801254379126587  0.06432998190014994  0.5040546498743366  1.0000
  H   H462      1.0  0.38318623989627365  0.02170734437781241  0.48407838642238343  1.0000
  H   H463      1.0  0.358024608317996  0.9571486341860128  0.46782704797806485  1.0000
  H   H464      1.0  0.39616760767324843  0.9515739891343975  0.5001797221864454  1.0000
  N   N29       1.0  0.605230078889591  0.3108382058745667  0.5747288866614703  1.0000
  C   C305      1.0  0.6301695825046666  0.2999356570390721  0.5438181275139425  1.0000
  C   C306      1.0  0.5757674543009048  0.3543086959206296  0.5657590524092249  1.0000
  C   C307      1.0  0.6304978947160285  0.3332594970375622  0.603522609274187  1.0000
  C   C308      1.0  0.5843999426928755  0.25589090846466434  0.5856787068907532  1.0000
  H   H465      1.0  0.6536751432837772  0.26908706357241824  0.549909271622088  1.0000
  H   H466      1.0  0.6452420137784265  0.3408528641006498  0.534106831097704  1.0000
  H   H467      1.0  0.6122836316126165  0.2809793876495097  0.5219427860544945  1.0000
  H   H468      1.0  0.5557378621880321  0.36294726697852436  0.5881987786777609  1.0000
  H   H469      1.0  0.5903584429083004  0.3965923419471526  0.5576951990835562  1.0000
  H   H470      1.0  0.556802322843525  0.33868571384062174  0.5437679558950251  1.0000
  H   H471      1.0  0.65259718520301  0.3009182403201262  0.6113375971195616  1.0000
  H   H472      1.0  0.612440106874724  0.34305112617780065  0.6270197228966639  1.0000
  H   H473      1.0  0.6473093627653037  0.3740472933757086  0.5957995496784811  1.0000
  H   H474      1.0  0.5650573864270532  0.2627875181439725  0.6088314751374403  1.0000
  H   H475      1.0  0.6057910169453847  0.22198464690594275  0.5925299736454704  1.0000
  H   H476      1.0  0.564951139906451  0.23802464934887332  0.5645210663685633  1.0000
  N   N30       1.0  0.7045557597248767  0.2653585440827986  0.14525501020613596  1.0000
  C   C309      1.0  0.66476340946747  0.2820612497811352  0.13375694988668926  1.0000
  C   C310      1.0  0.7165785007144652  0.21337348757500618  0.12570999168681277  1.0000
  C   C311      1.0  0.7034840677134235  0.2518976381417428  0.18299509608714995  1.0000
  C   C312      1.0  0.7335340856770124  0.31421725565790437  0.1388296104753407  1.0000
  H   H477      1.0  0.654607655739332  0.3204652114901363  0.14857148453006216  1.0000
  H   H478      1.0  0.6421954740306436  0.2458928256895152  0.13752282913110334  1.0000
  H   H479      1.0  0.6645794818104241  0.2937316188767596  0.10554170682168668  1.0000
  H   H480      1.0  0.6943848427720994  0.17650151431099403  0.12852249236267305  1.0000
  H   H481      1.0  0.7200592870969523  0.2227667804271145  0.09734518527557025  1.0000
  H   H482      1.0  0.7455118394068205  0.19788153887093718  0.13512603555249864  1.0000
  H   H483      1.0  0.6945061204926869  0.29030205162920764  0.19851873039064363  1.0000
  H   H484      1.0  0.7332159597030813  0.23957401749610785  0.19251518241054025  1.0000
  H   H485      1.0  0.682087835888699  0.2150302918245739  0.18891456295721437  1.0000
  H   H486      1.0  0.7639553890234885  0.3024998568456616  0.14637038228442958  1.0000
  H   H487      1.0  0.726166015315399  0.353322267413565  0.1542479559095927  1.0000
  H   H488      1.0  0.7344530839657353  0.32716065192890587  0.11083218393141916  1.0000
  N   N31       1.0  0.8591704002858843  0.8298667956645054  0.24013066051260784  1.0000
  C   C313      1.0  0.8666523629778262  0.7763673387003621  0.26020784036437794  1.0000
  C   C314      1.0  0.8335496030916297  0.8147449065538241  0.2099983463552505  1.0000
  C   C315      1.0  0.8972872518248822  0.8563028081485897  0.22759595664394047  1.0000
  C   C316      1.0  0.8392032309121784  0.8721030869278392  0.26266366938328645  1.0000
  H   H489      1.0  0.8855095669348898  0.7859432275107483  0.2834172374353408  1.0000
  H   H490      1.0  0.881870592734327  0.7438396600502962  0.24385242026482182  1.0000
  H   H491      1.0  0.838413595382632  0.7546087000746093  0.26945034790601013  1.0000
  H   H492      1.0  0.8265896142591875  0.8540624544071574  0.19450306141639642  1.0000
  H   H493      1.0  0.8479813266558469  0.7837675734667563  0.19209554032034695  1.0000
  H   H494      1.0  0.8049190408053241  0.7932782650398481  0.21845413182285722  1.0000
  H   H495      1.0  0.8926417629929624  0.8975342585965482  0.21314108203934834  1.0000
  H   H496      1.0  0.9127305451182162  0.82653201485186  0.209590155706485  1.0000
  H   H497      1.0  0.9176627309616524  0.8671860088220942  0.24961549662661173  1.0000
  H   H498      1.0  0.8578435256376388  0.8849191938132742  0.2855530205306439  1.0000
  H   H499      1.0  0.8103347835624869  0.8536868048703812  0.2726905074415896  1.0000
  H   H500      1.0  0.8330902041956576  0.9128874410727125  0.24809409582494468  1.0000
  N   N32       1.0  0.8405712171254515  0.5580003156549389  0.9978759745624511  1.0000
  C   C317      1.0  0.8129593443087255  0.5518635278883254  0.9681278616731334  1.0000
  C   C318      1.0  0.8207180867189432  0.5872071047508363  0.027138945202469067  1.0000
  C   C319      1.0  0.8760797584121114  0.593359318557853  0.9870721378786421  1.0000
  C   C320      1.0  0.85264151283679  0.49963164099460833  0.009122368615482435  1.0000
  H   H501      1.0  0.7858317909146887  0.5252619457530322  0.9753912068933358  1.0000
  H   H502      1.0  0.8269736441410376  0.5299916473273167  0.9455790816606636  1.0000
  H   H503      1.0  0.8031375021016708  0.595040756883282  0.9590343506018986  1.0000
  H   H504      1.0  0.8405363477220704  0.5918478178626584  0.05018743627211242  1.0000
  H   H505      1.0  0.8116064151234721  0.6315781672322284  0.01971654290027236  1.0000
  H   H506      1.0  0.7935833008797959  0.5620116186513336  0.035770898374727356  1.0000
  H   H507      1.0  0.8973641299296279  0.5991337288068338  0.009033948396911073  1.0000
  H   H508      1.0  0.8681821900154827  0.6376475381081906  0.9781994746185985  1.0000
  H   H509      1.0  0.892016464477125  0.5723323764728165  0.9652550556240607  1.0000
  H   H510      1.0  0.8266811902653696  0.47181288328045856  0.017720742151116076  1.0000
  H   H511      1.0  0.8735181520660941  0.5025913941738674  0.031490698285221885  1.0000
  H   H512      1.0  0.8675769114759521  0.4762484582878026  0.9876722713098582  1.0000
