data_image0
_chemical_formula_structural       FeS2FeS2FeSFeS3FeS2FeS2FeSFeS3FeS2FeS2FeSFeS3FeS2FeS2FeSFeS3FeS2FeS2FeSFeS3FeS2FeS2FeSFeS3FeS2FeS2FeSFeS3FeS2FeS2FeSFeS3FeS2FeS2FeSFeS3FeS2FeS2FeSFeS3FeS2FeS2FeSFeS3FeS2FeS2FeSFeS3FeS2FeS2FeSFeS3FeS2FeS2FeSFeS3FeS2FeS2FeSFeS3FeS2FeS2FeSFeS3FeS2FeS2FeSFeS3FeS2FeS2FeSFeS3FeS2FeS2FeSFeS3FeS2FeS2FeSFeS3FeS2FeS2FeSFeS3FeS2FeS2FeSFeS3FeS2FeS2FeSFeS3FeS2FeS2FeSFeS3FeS2FeS2FeSFeS3FeS2FeS2FeSFeS3FeS2FeS2FeSFeS3FeS2FeS2FeSFeS3FeS2FeS2FeSFeS3FeS2FeS2FeSFeS3FeS2FeS2FeSFeS3FeS2FeS2FeSFeS3C6H4C6H4C6H4C6H4C6H4C6H4C6H4C6H4C6H4C6H4C6H4C6H4C6H4C6H4C6H4C6H4C6H4C6H4C6H4C6H4C6H4C6H4C6H4C6H4C6H4C6H4C6H4C6H4C6H4C6H4C6H4C6H4C6H4C6H4C6H4C6H4C6H4C6H4C6H4C6H4C6H4C6H4C6H4C6H4C6H4C6H4C6H4C6H4C6H4C6H4C6H4C6H4C6H4C6H4C6H4C6H4C6H4C6H4C6H4C6H4C6H4C6H4C6H4C6H4NC4H12NC4H12NC4H12NC4H12NC4H12NC4H12NC4H12NC4H12NC4H12NC4H12NC4H12NC4H12NC4H12NC4H12NC4H12NC4H12NC4H12NC4H12NC4H12NC4H12NC4H12NC4H12NC4H12NC4H12NC4H12NC4H12NC4H12NC4H12NC4H12NC4H12NC4H12NC4H12NC4H12NC4H12NC4H12NC4H12NC4H12NC4H12NC4H12NC4H12NC4H12NC4H12NC4H12NC4H12NC4H12NC4H12NC4H12NC4H12NC4H12NC4H12NC4H12NC4H12NC4H12NC4H12NC4H12NC4H12NC4H12NC4H12NC4H12NC4H12NC4H12NC4H12NC4H12NC4H12
_chemical_formula_sum              "Fe128 S256 C640 H1024 N64"
_cell_length_a       45.87213380125965
_cell_length_b       51.80195308439477
_cell_length_c       36.85559094512165
_cell_angle_alpha    89.26236555332176
_cell_angle_beta     88.61677574480309
_cell_angle_gamma    89.08310002153671

_space_group_name_H-M_alt    "P 1"
_space_group_IT_number       1

loop_
  _space_group_symop_operation_xyz
  'x, y, z'

loop_
  _atom_site_type_symbol
  _atom_site_label
  _atom_site_symmetry_multiplicity
  _atom_site_fract_x
  _atom_site_fract_y
  _atom_site_fract_z
  _atom_site_occupancy
  Fe  Fe1       1.0  0.27628904697204654  0.47001973912021233  0.28655724526540177  1.0000
  S   S1        1.0  0.24177810536673283  0.4856306448610885  0.32433421037665755  1.0000
  S   S2        1.0  0.27583771523877526  0.4282406801783878  0.2715079046525616  1.0000
  Fe  Fe2       1.0  0.3076551366111894  0.5204087974966393  0.2808043877474928  1.0000
  S   S3        1.0  0.2763137519192166  0.5407655421184914  0.31864546364505525  1.0000
  S   S4        1.0  0.34391669850772716  0.5438311022108043  0.25652592811078934  1.0000
  Fe  Fe3       1.0  0.2785000026067381  0.5045245186569635  0.3520618460579152  1.0000
  S   S5        1.0  0.27470947863031214  0.5077025379933637  0.4125957190460189  1.0000
  Fe  Fe4       1.0  0.24222114803802886  0.5206109714284431  0.28798858845492203  1.0000
  S   S6        1.0  0.1996904882308289  0.5407643806820014  0.27696424036650424  1.0000
  S   S7        1.0  0.3135447817353976  0.4858481922000283  0.31741153411666795  1.0000
  S   S8        1.0  0.2732631772275234  0.5031284618452752  0.2469183088240115  1.0000
  Fe  Fe5       1.0  0.0830587374922922  0.49847584427681013  0.4098157514308294  1.0000
  S   S9        1.0  0.051720454482044875  0.5217531782393219  0.3767619902456812  1.0000
  S   S10       1.0  0.12945360733237687  0.5091256399948411  0.4182760994339394  1.0000
  Fe  Fe6       1.0  0.03733713412626205  0.4603818832020688  0.43461698158298634  1.0000
  S   S11       1.0  0.001446708782686601  0.48021829301392627  0.40405097447778043  1.0000
  S   S12       1.0  0.03160818938317522  0.4245857747270817  0.46854858978955366  1.0000
  Fe  Fe7       1.0  0.035467768751748174  0.48329555558005904  0.3593084991084652  1.0000
  S   S13       1.0  0.025912387906321  0.47789883811952893  0.3003665545179318  1.0000
  Fe  Fe8       1.0  0.020938136410953767  0.5166794867262984  0.4242518711019777  1.0000
  S   S14       1.0  0.9978526145335168  0.5510754828293744  0.4485834701893843  1.0000
  S   S15       1.0  0.06990382979525434  0.46039661984302704  0.3882408318426671  1.0000
  S   S16       1.0  0.05372696171794322  0.49647001361808085  0.45897716315362985  1.0000
  Fe  Fe9       1.0  0.2978376446575772  0.672605739688707  0.27976455095555347  1.0000
  S   S17       1.0  0.2848653842204483  0.6642369310743302  0.33763330921054585  1.0000
  S   S18       1.0  0.2795376947974396  0.6498650694690966  0.23448976996301724  1.0000
  Fe  Fe10      1.0  0.3357449535099704  0.717039832967136  0.2986480738390069  1.0000
  S   S19       1.0  0.32700920024218694  0.7133334502155846  0.3584422266135167  1.0000
  S   S20       1.0  0.3633733060882622  0.7468839630591606  0.2711037712494244  1.0000
  Fe  Fe11      1.0  0.33185794190494206  0.6708368850243923  0.3489361793201572  1.0000
  S   S21       1.0  0.3548926308443719  0.6469099643844276  0.3905339342834336  1.0000
  Fe  Fe12      1.0  0.2808847023673092  0.7071523202490558  0.34295963753678016  1.0000
  S   S22       1.0  0.24418774897997286  0.7253633641547883  0.3747481533210498  1.0000
  S   S23       1.0  0.34558062878278867  0.6750463370006486  0.2904501397373956  1.0000
  S   S24       1.0  0.2887570078781678  0.7149824031390403  0.2837427809731571  1.0000
  Fe  Fe13      1.0  0.03779283628123875  0.6708738328993509  0.3563275419311572  1.0000
  S   S25       1.0  0.06014902978756065  0.6659341322765399  0.4093655415537198  1.0000
  S   S26       1.0  0.00339966690422977  0.6444833146042821  0.33742506786492943  1.0000
  Fe  Fe14      1.0  0.07548205639416117  0.7148103192852105  0.33112525765094775  1.0000
  S   S27       1.0  0.10102760167974445  0.7142365509166615  0.3819011524807289  1.0000
  S   S28       1.0  0.08877374417551809  0.7396563859275581  0.28349296215532643  1.0000
  Fe  Fe15      1.0  0.10113133220208903  0.6712958303695329  0.3765286509587076  1.0000
  S   S29       1.0  0.14087286839572633  0.6474912649971856  0.3891911658786124  1.0000
  Fe  Fe16      1.0  0.058130253739075766  0.70906640563934  0.41072819643560077  1.0000
  S   S30       1.0  0.05277298628722438  0.728257970874149  0.4646629595901074  1.0000
  S   S31       1.0  0.0792649694303289  0.6720979649790614  0.3231632448990745  1.0000
  S   S32       1.0  0.03186936028791498  0.7138100691441123  0.36021801527290753  1.0000
  Fe  Fe17      1.0  0.47423191680162746  0.18596727166157306  0.3480828864212056  1.0000
  S   S33       1.0  0.45946189777214674  0.16163415106530332  0.39558695062849214  1.0000
  S   S34       1.0  0.4448338932275342  0.2153424951012138  0.3218375859412514  1.0000
  Fe  Fe18      1.0  0.5344150053684529  0.16202998809153277  0.34503861693188026  1.0000
  S   S35       1.0  0.5257814892349063  0.135750838882622  0.39252419621764795  1.0000
  S   S36       1.0  0.5777286494276176  0.1596217558168123  0.3157085396374519  1.0000
  Fe  Fe19      1.0  0.48283662698898056  0.12934986815506608  0.3667217690468228  1.0000
  S   S37       1.0  0.4662312581473575  0.08904171270019334  0.3626196969234392  1.0000
  Fe  Fe20      1.0  0.503369954064575  0.1700386651460972  0.41778310413155695  1.0000
  S   S38       1.0  0.5064627359391869  0.17937061506359384  0.47700119150850734  1.0000
  S   S39       1.0  0.49342721589510785  0.15275992574203145  0.316654685493597  1.0000
  S   S40       1.0  0.5161555293615931  0.1973571139104201  0.37263370033921345  1.0000
  Fe  Fe21      1.0  0.6207003119102591  0.9938190198780388  0.358508062753622  1.0000
  S   S41       1.0  0.6219010006426042  0.9900669827187314  0.41897159501238856  1.0000
  S   S42       1.0  0.6581214816337744  0.014589871351113226  0.3320891152116802  1.0000
  Fe  Fe22      1.0  0.5652161882728005  0.963907469575371  0.3538257628920666  1.0000
  S   S43       1.0  0.5615946185428004  0.9572355031879128  0.4140051530539709  1.0000
  S   S44       1.0  0.5298865719753797  0.9479763247512967  0.32024520046295535  1.0000
  Fe  Fe23      1.0  0.5740612037220766  0.9984901070456009  0.4174246661895636  1.0000
  S   S45       1.0  0.5526945333483063  0.024443536765751395  0.4584661329546352  1.0000
  Fe  Fe24      1.0  0.609653842647055  0.9491727493869029  0.4099083221118119  1.0000
  S   S46       1.0  0.6334549897768569  0.9187264706849457  0.44164471937500405  1.0000
  S   S47       1.0  0.5737594163385894  0.006322380394623517  0.3573640816475731  1.0000
  S   S48       1.0  0.6123248504710874  0.951826641210069  0.3494022187464982  1.0000
  Fe  Fe25      1.0  0.7091659614227691  0.14203998564093265  0.426171137867792  1.0000
  S   S49       1.0  0.731633421789806  0.12002711199451653  0.47024313116373107  1.0000
  S   S50       1.0  0.6684222074233986  0.16418740975400894  0.4405471044267247  1.0000
  Fe  Fe26      1.0  0.7568983412327419  0.13048679687302064  0.3702025287613066  1.0000
  S   S51       1.0  0.7843141300093526  0.10854740800958004  0.40987893232406997  1.0000
  S   S52       1.0  0.7681060549902436  0.13697913707122705  0.31130922882937584  1.0000
  Fe  Fe27      1.0  0.7417857520708278  0.09067539007263883  0.427615567385279  1.0000
  S   S53       1.0  0.7331174136938309  0.04832060016828255  0.4354749722394838  1.0000
  Fe  Fe28      1.0  0.7714812252789933  0.1402766301385109  0.4486371907803766  1.0000
  S   S54       1.0  0.8011906498239624  0.16426569819619105  0.4818475429471625  1.0000
  S   S55       1.0  0.7152064711917491  0.11075423679888985  0.38522235292351426  1.0000
  S   S56       1.0  0.7481029978082955  0.1638723900410239  0.4069505072407205  1.0000
  Fe  Fe29      1.0  0.8296957478865048  0.9528005081180595  0.3378985326524762  1.0000
  S   S57       1.0  0.8116773337892859  0.9554746159098585  0.28190715234470914  1.0000
  S   S58       1.0  0.8414369857553347  0.9864172691639083  0.37192168416399735  1.0000
  Fe  Fe30      1.0  0.8321780071102283  0.8945244775489303  0.33847757269378353  1.0000
  S   S59       1.0  0.814943712501055  0.8914215732648396  0.2825408693262978  1.0000
  S   S60       1.0  0.8427392521607915  0.8612049946989898  0.3751673024758712  1.0000
  Fe  Fe31      1.0  0.8447473464413771  0.9242118495856674  0.2690622149955509  1.0000
  S   S61       1.0  0.8732146972914601  0.9249252789466744  0.2187611029832418  1.0000
  Fe  Fe32      1.0  0.7835821252751927  0.9226361171877436  0.3003932990661425  1.0000
  S   S62       1.0  0.7365660271251441  0.9192780396686173  0.2868460048413253  1.0000
  S   S63       1.0  0.8651958846368348  0.924330275224728  0.3235383836532221  1.0000
  S   S64       1.0  0.7982799740533645  0.9231047786631101  0.3578191760920495  1.0000
  Fe  Fe33      1.0  0.5647768156727498  0.2992042860764501  0.5325076166939428  1.0000
  S   S65       1.0  0.5600441484464497  0.34148049948211096  0.5195466728592035  1.0000
  S   S66       1.0  0.5908856350042256  0.271836115843417  0.4975825147983249  1.0000
  Fe  Fe34      1.0  0.5255902206717576  0.30192810819711235  0.5987311294016173  1.0000
  S   S67       1.0  0.51737262608895  0.3442502841900757  0.592518636458697  1.0000
  S   S68       1.0  0.5058046002424128  0.2781934060188795  0.6434972642217114  1.0000
  Fe  Fe35      1.0  0.5127415920088892  0.3358012557012167  0.5334967807873019  1.0000
  S   S69       1.0  0.47695076930710806  0.3543586239373866  0.5013134802226352  1.0000
  Fe  Fe36      1.0  0.5650749798903919  0.3462344269640659  0.5794460544854536  1.0000
  S   S70       1.0  0.5872990605653087  0.38009499135664965  0.6028774409746973  1.0000
  S   S71       1.0  0.5167804054364485  0.29307467463759485  0.5408575603479936  1.0000
  S   S72       1.0  0.5740680312154034  0.30433677194881154  0.5913127099224451  1.0000
  Fe  Fe37      1.0  0.7463681848251995  0.27451975866726147  0.5996384169135747  1.0000
  S   S73       1.0  0.7642723098097916  0.30862596372340617  0.5685948586654401  1.0000
  S   S74       1.0  0.7233408040343022  0.24057226000912327  0.5772388981618376  1.0000
  Fe  Fe38      1.0  0.762117917354963  0.29484784437716716  0.672586960909286  1.0000
  S   S75       1.0  0.7819767914462671  0.33043554952659204  0.649071005223022  1.0000
  S   S76       1.0  0.755966114950451  0.28809946738695774  0.7323047471131068  1.0000
  Fe  Fe39      1.0  0.743351815049432  0.3319589810459164  0.6132903242072001  1.0000
  S   S77       1.0  0.7243843259589392  0.37178630262826107  0.6076683277448794  1.0000
  Fe  Fe40      1.0  0.801534304261934  0.3045441569621264  0.6067138055005141  1.0000
  S   S78       1.0  0.8481628747253683  0.3120218522406393  0.5913373839335417  1.0000
  S   S79       1.0  0.7215128090309053  0.2984152593185409  0.6406100498562902  1.0000
  S   S80       1.0  0.7855432510536459  0.2682363882307529  0.6339196412657144  1.0000
  Fe  Fe41      1.0  0.33954531858261805  0.6920239059420288  0.5791351568257639  1.0000
  S   S81       1.0  0.3850891137146183  0.6980415221418397  0.5582719000942  1.0000
  S   S82       1.0  0.303437908036979  0.6845059673822387  0.5408919019599528  1.0000
  Fe  Fe42      1.0  0.3562864847413127  0.6994454459381877  0.6568532543040017  1.0000
  S   S83       1.0  0.403555680870417  0.7064583910974749  0.6425663674763414  1.0000
  S   S84       1.0  0.34182449177232643  0.6961215277112289  0.7152843583971455  1.0000
  Fe  Fe43      1.0  0.3854797514547733  0.7306778414546345  0.5971432318034355  1.0000
  S   S85       1.0  0.4037565726260255  0.7666823667392929  0.5719067069900173  1.0000
  Fe  Fe44      1.0  0.3985107344032854  0.6732034290429811  0.6051133462005268  1.0000
  S   S86       1.0  0.4315587918768437  0.6416835633707123  0.5946774215474311  1.0000
  S   S87       1.0  0.3386197561994211  0.7268014091815166  0.6146778043442973  1.0000
  S   S88       1.0  0.35271631708161405  0.6641733801043629  0.6227074330982575  1.0000
  Fe  Fe45      1.0  0.3830163743278551  0.49633423595600307  0.5560274095276816  1.0000
  S   S89       1.0  0.41770071086511984  0.49182639884798135  0.5977838321018185  1.0000
  S   S90       1.0  0.39153682778111343  0.5099688317298631  0.498813212707211  1.0000
  Fe  Fe46      1.0  0.3345631406775542  0.47804598628677575  0.6066891950742936  1.0000
  S   S91       1.0  0.36445730802899584  0.4724098630075971  0.6532692255996111  1.0000
  S   S92       1.0  0.2861376548531637  0.4725955542988144  0.6097107779245748  1.0000
  Fe  Fe47      1.0  0.3841413577476675  0.5097724898168494  0.6354189181964379  1.0000
  S   S93       1.0  0.38984650441098845  0.5408702690475098  0.6762720750707725  1.0000
  Fe  Fe48      1.0  0.3949083839127957  0.4548144656482181  0.611674613477098  1.0000
  S   S94       1.0  0.41685671584885625  0.4174797262193284  0.6265843428528313  1.0000
  S   S95       1.0  0.35128839652300525  0.5172536105450644  0.5926214517125711  1.0000
  S   S96       1.0  0.36339886471796196  0.45753702827522935  0.5663263874090789  1.0000
  Fe  Fe49      1.0  0.7531108741952487  0.8668940953098049  0.5349331935196703  1.0000
  S   S97       1.0  0.771280102924455  0.8342792540843991  0.5685761497239401  1.0000
  S   S98       1.0  0.7334551724131784  0.8635108894795255  0.48026978322610764  1.0000
  Fe  Fe50      1.0  0.7731459500870754  0.9081927617784614  0.5846015088376947  1.0000
  S   S99       1.0  0.7932392569377541  0.8797103836355219  0.6228789892845116  1.0000
  S   S100      1.0  0.7742211081661223  0.9508222577428918  0.5924520791943475  1.0000
  Fe  Fe51      1.0  0.8100624955857979  0.8596803845893195  0.5732657340548339  1.0000
  S   S101      1.0  0.8564301867666153  0.8452554057094949  0.570476030185103  1.0000
  Fe  Fe52      1.0  0.7528259476095955  0.8569963819614921  0.6155651825336677  1.0000
  S   S102      1.0  0.7356700100809428  0.8386389694326835  0.6670208808597159  1.0000
  S   S103      1.0  0.7936147268981589  0.8904213645408344  0.5354200068823564  1.0000
  S   S104      1.0  0.7309013163876584  0.8874267392889339  0.5814481498384495  1.0000
  Fe  Fe53      1.0  0.5532622076665901  0.8925883146266482  0.6478812533405534  1.0000
  S   S105      1.0  0.5473151294369603  0.8607002915229085  0.6888592592325833  1.0000
  S   S106      1.0  0.5675117318427959  0.9323397511077179  0.6618654418282205  1.0000
  Fe  Fe54      1.0  0.5414138090065238  0.8586828079048395  0.5843872911359979  1.0000
  S   S107      1.0  0.5342370358284867  0.8236142129292782  0.6191989465542879  1.0000
  S   S108      1.0  0.5348707172453872  0.8580721877649857  0.5242826579884473  1.0000
  Fe  Fe55      1.0  0.5089497021147763  0.8501906967155144  0.6559538207602803  1.0000
  S   S109      1.0  0.4683101169013616  0.8353669151412396  0.6833887589600914  1.0000
  Fe  Fe56      1.0  0.5729915125006443  0.836648624761153  0.6491637270186565  1.0000
  S   S110      1.0  0.6034685892584342  0.8069776370530372  0.672265156048769  1.0000
  S   S111      1.0  0.5123403838704788  0.884458428687529  0.6183965135133068  1.0000
  S   S112      1.0  0.5827825428462285  0.8695903352029809  0.6110612641769311  1.0000
  Fe  Fe57      1.0  0.9358820666117798  0.4622771208686801  0.6214783375561433  1.0000
  S   S113      1.0  0.9189289599099777  0.4774078994641084  0.568659066611863  1.0000
  S   S114      1.0  0.9816281335947151  0.4472135540633783  0.6261312313932369  1.0000
  Fe  Fe58      1.0  0.8777561323839905  0.46916558751141035  0.6611320015779805  1.0000
  S   S115      1.0  0.8562810664595258  0.4849034057692058  0.6116862408340374  1.0000
  S   S116      1.0  0.8485236563065148  0.46445442996831615  0.7101467570703367  1.0000
  Fe  Fe59      1.0  0.8802373883292284  0.4530782415401194  0.582675347562538  1.0000
  S   S117      1.0  0.8564674967067957  0.4291076012145442  0.5429541103309902  1.0000
  Fe  Fe60      1.0  0.8970096812797296  0.5075955185621159  0.6034004387398549  1.0000
  S   S118      1.0  0.8927418258145381  0.5492807192895772  0.586345372764327  1.0000
  S   S119      1.0  0.8987856916700782  0.43556179532541306  0.6330316129718406  1.0000
  S   S120      1.0  0.916963605198696  0.4942199808379854  0.6555192087724578  1.0000
  Fe  Fe61      1.0  0.9406400022935675  0.6944341351659715  0.6098059608093993  1.0000
  S   S121      1.0  0.8972673549513169  0.6889999906113469  0.6380898751075403  1.0000
  S   S122      1.0  0.9418504939543894  0.686112412126047  0.5499332406786891  1.0000
  Fe  Fe62      1.0  0.970897687518001  0.7072311758391981  0.6793002370576053  1.0000
  S   S123      1.0  0.9298510088169913  0.7033580203719649  0.712600785189604  1.0000
  S   S124      1.0  0.011261573036801975  0.7130129573698025  0.7115394264991536  1.0000
  Fe  Fe63      1.0  0.9227854837689433  0.6679444491035431  0.6804670817007057  1.0000
  S   S125      1.0  0.9115204011184591  0.63063383043147  0.7088331978340618  1.0000
  Fe  Fe64      1.0  0.9084301553315672  0.7250351108387386  0.6675518611851432  1.0000
  S   S126      1.0  0.8727158790063569  0.7534980854281583  0.6823103147403191  1.0000
  S   S127      1.0  0.965319259279866  0.6701120122207035  0.6497476758588369  1.0000
  S   S128      1.0  0.9502016174515414  0.7322619927702428  0.636248667367667  1.0000
  Fe  Fe65      1.0  0.5732070721986094  0.20040382872871668  0.788484203462787  1.0000
  S   S129      1.0  0.6082302425357207  0.1852194413320306  0.8246474479223819  1.0000
  S   S130      1.0  0.5432288679436672  0.17363560197781366  0.761024013327624  1.0000
  Fe  Fe66      1.0  0.5865054542078294  0.25591451896073275  0.8032582225191383  1.0000
  S   S131      1.0  0.6223544851343015  0.24605421179951448  0.8414594930858809  1.0000
  S   S132      1.0  0.5775897801815538  0.2962250070875846  0.7836931508231053  1.0000
  Fe  Fe67      1.0  0.6354200827520065  0.21659956289319465  0.7998814910335155  1.0000
  S   S133      1.0  0.6822667510734425  0.2119141853204841  0.7820753507339644  1.0000
  Fe  Fe68      1.0  0.5918791352834161  0.21571584979413982  0.8629895105315563  1.0000
  S   S134      1.0  0.5866307407385776  0.2027260817883682  0.9210765830016183  1.0000
  S   S135      1.0  0.601996248238819  0.22884512498299445  0.7597154537746856  1.0000
  S   S136      1.0  0.5544525015682265  0.22842258534131235  0.828713183129782  1.0000
  Fe  Fe69      1.0  0.5290926202641145  0.9960669336479853  0.8391259479268217  1.0000
  S   S137      1.0  0.5289314863640182  0.9971334935010211  0.9001204009782954  1.0000
  S   S138      1.0  0.5036340900881603  0.9683197797721531  0.8066876309915105  1.0000
  Fe  Fe70      1.0  0.5701104026395214  0.040549102564300776  0.8300598991141466  1.0000
  S   S139      1.0  0.5742506337428867  0.04588475875761411  0.8897923093225352  1.0000
  S   S140      1.0  0.5968975934153924  0.06306781998794064  0.7895055245602557  1.0000
  Fe  Fe71      1.0  0.576965750374087  0.0027346936555652235  0.8930018491544862  1.0000
  S   S141      1.0  0.6100828767387426  0.9838751415010454  0.9287582832374077  1.0000
  Fe  Fe72      1.0  0.5259826460279374  0.04014328445132698  0.8920303396473958  1.0000
  S   S142      1.0  0.4995597072500323  0.06705078065709191  0.9272929940719399  1.0000
  S   S143      1.0  0.5775844999323323  0.9979322291802435  0.8328101095975136  1.0000
  S   S144      1.0  0.5213774638813284  0.03856088923329959  0.8317997669519497  1.0000
  Fe  Fe73      1.0  0.8497744342629985  0.16581298412643122  0.8946645992961608  1.0000
  S   S145      1.0  0.8330375391537677  0.18483227158105303  0.9453771872203804  1.0000
  S   S146      1.0  0.8570637726043809  0.12281609236075765  0.8984726674607046  1.0000
  Fe  Fe74      1.0  0.8544068985101191  0.2170131901607242  0.8540448210704457  1.0000
  S   S147      1.0  0.8384395686713059  0.24039709533084916  0.9015899938663702  1.0000
  S   S148      1.0  0.8670428746449442  0.23591771935015882  0.8009546403901369  1.0000
  Fe  Fe75      1.0  0.867513217633213  0.21402227519857014  0.9337960962130267  1.0000
  S   S149      1.0  0.8994413250912422  0.22516924187741738  0.9757556255316404  1.0000
  Fe  Fe76      1.0  0.8055148102583534  0.20896494904041177  0.9083354454971551  1.0000
  S   S150      1.0  0.7580014336282388  0.21458226021264684  0.9225886128922582  1.0000
  S   S151      1.0  0.8864722789247549  0.19325582435887045  0.8855595839587327  1.0000
  S   S152      1.0  0.8192539748572318  0.18737354162468217  0.8582909614401174  1.0000
  Fe  Fe77      1.0  0.805317011064821  0.971615650961791  0.7863672351100129  1.0000
  S   S153      1.0  0.7888355186512391  0.943489357892734  0.8285314134254357  1.0000
  S   S154      1.0  0.8362480922886892  0.9574773705504763  0.7423681356621225  1.0000
  Fe  Fe78      1.0  0.7733061445103999  0.016973229693226788  0.8207953739871778  1.0000
  S   S155      1.0  0.7538163682472377  0.9931914543440712  0.8659503410765953  1.0000
  S   S156      1.0  0.7635365889001674  0.05947566155030559  0.8156767974854372  1.0000
  Fe  Fe79      1.0  0.7982236349881119  0.9747042780053831  0.8680057960878425  1.0000
  S   S157      1.0  0.8209990845221229  0.9652280190365722  0.9196572239543626  1.0000
  Fe  Fe80      1.0  0.7457999971529573  0.9639936696800756  0.8228686612373892  1.0000
  S   S158      1.0  0.7036804478633124  0.9429334542683814  0.8157600976065769  1.0000
  S   S159      1.0  0.8187204347048012  0.0010981006811872085  0.8264515337380547  1.0000
  S   S160      1.0  0.7613533662263532  0.9895942756577959  0.7772016851158754  1.0000
  Fe  Fe81      1.0  0.22302852956861774  0.5286529623672216  0.8053691950184476  1.0000
  S   S161      1.0  0.2070375255765556  0.5033483174155239  0.7616071846560553  1.0000
  S   S162      1.0  0.24363857397996613  0.5659725002697168  0.7885493609839048  1.0000
  Fe  Fe82      1.0  0.20434134485317443  0.49176959574868434  0.8657819013215309  1.0000
  S   S163      1.0  0.187151892206214  0.4630535600862759  0.8273370781603135  1.0000
  S   S164      1.0  0.19728516092057527  0.48233973068847197  0.9249957799987154  1.0000
  Fe  Fe83      1.0  0.22738498684165628  0.47118729413157295  0.7939831548562946  1.0000
  S   S165      1.0  0.25499447952383747  0.43916903525608975  0.7702043397874344  1.0000
  Fe  Fe84      1.0  0.16829275679259553  0.4975777109879152  0.7985645382714341  1.0000
  S   S166      1.0  0.12234578857850818  0.5001607852882209  0.779572034775606  1.0000
  S   S167      1.0  0.24674954823869244  0.4970969027431346  0.8349664776145783  1.0000
  S   S168      1.0  0.1822389284362172  0.525915953657421  0.8397736299574016  1.0000
  Fe  Fe85      1.0  0.9394961978494571  0.4205359141591814  0.8563051545455412  1.0000
  S   S169      1.0  0.926289705398828  0.45881163609140113  0.87996653378694  1.0000
  S   S170      1.0  0.9050512418541518  0.39588739286530034  0.8330495574383577  1.0000
  Fe  Fe86      1.0  0.0037275693677767396  0.4282807177867474  0.8686433263651439  1.0000
  S   S171      1.0  0.9961067250724348  0.4670448754401771  0.8934802973970566  1.0000
  S   S172      1.0  0.049299444666761394  0.4133034692931319  0.858684025935524  1.0000
  Fe  Fe87      1.0  0.9586087537600538  0.4483031029501396  0.9226294304240954  1.0000
  S   S173      1.0  0.9507631330327986  0.4548828337265345  0.9820777172733224  1.0000
  Fe  Fe88      1.0  0.9649865308818211  0.47365020280982706  0.8484405034357098  1.0000
  S   S174      1.0  0.9675566070870886  0.510174762240488  0.8154208136836774  1.0000
  S   S175      1.0  0.968714457686701  0.40858815393626313  0.90168019351057  1.0000
  S   S176      1.0  0.9755275943322467  0.4363423884880353  0.8211255147155521  1.0000
  Fe  Fe89      1.0  0.2109836683364742  0.6858078709882053  0.8893210092532696  1.0000
  S   S177      1.0  0.17529079304835848  0.6929017408869362  0.8498085168953806  1.0000
  S   S178      1.0  0.21856663692707437  0.6462890076194436  0.9128032539510985  1.0000
  Fe  Fe90      1.0  0.22955787549784695  0.7413408122618333  0.8886631201204123  1.0000
  S   S179      1.0  0.19559210725342732  0.7535398584595234  0.8490506774363161  1.0000
  S   S180      1.0  0.2599346648365915  0.7716366749695657  0.9074508307060419  1.0000
  Fe  Fe91      1.0  0.16600453413765487  0.728413828938607  0.8823656837096625  1.0000
  S   S181      1.0  0.1199195369890962  0.7403741112052329  0.8951218664510366  1.0000
  Fe  Fe92      1.0  0.20815174473874207  0.7171797976525445  0.8200086462853826  1.0000
  S   S182      1.0  0.21078248973367067  0.7187236108425769  0.7591629284715644  1.0000
  S   S183      1.0  0.19857950059814597  0.7192596857320395  0.924915188737473  1.0000
  S   S184      1.0  0.24506764624551705  0.7071109103423796  0.8567743487760271  1.0000
  Fe  Fe93      1.0  0.9584664784350083  0.666438763060104  0.9829146140561286  1.0000
  S   S185      1.0  0.9946352239325219  0.6859102596750598  0.9525440162994948  1.0000
  S   S186      1.0  0.9487519334155062  0.679343497327667  0.039613596651881355  1.0000
  Fe  Fe94      1.0  0.9443262379934803  0.6325225807094393  0.9200278011524112  1.0000
  S   S187      1.0  0.9792729018296891  0.6489147782358702  0.8832985340178788  1.0000
  S   S188      1.0  0.9122265693994924  0.6025328953903232  0.9043057072678963  1.0000
  Fe  Fe95      1.0  0.006772398584933725  0.6465517621896947  0.932607359112189  1.0000
  S   S189      1.0  0.05433822193522442  0.6364276933760983  0.9285676497077509  1.0000
  Fe  Fe96      1.0  0.9647254301321269  0.687054709701729  0.9057599091514467  1.0000
  S   S190      1.0  0.9610154991910407  0.7231334301852003  0.8717720324294753  1.0000
  S   S191      1.0  0.9733402079108759  0.6265094798304113  0.9677518193344563  1.0000
  S   S192      1.0  0.9268409941615317  0.6710626821399559  0.938020488866056  1.0000
  Fe  Fe97      1.0  0.42579284803678735  0.041024379058116844  0.15149291385805566  1.0000
  S   S193      1.0  0.46215246172630914  0.03318162033473726  0.1111686006311757  1.0000
  S   S194      1.0  0.41262148456124664  0.08109814217041533  0.16815389155600033  1.0000
  Fe  Fe98      1.0  0.4128884931977855  0.9843103751966709  0.1630245854759125  1.0000
  S   S195      1.0  0.4486041704832062  0.9714214236581902  0.12450077435143674  1.0000
  S   S196      1.0  0.3811780560636727  0.957206833217209  0.1900211132638393  1.0000
  Fe  Fe99      1.0  0.47493489996445476  0.001897194342020292  0.1503485797253286  1.0000
  S   S197      1.0  0.5222335160341424  0.9979583662932939  0.16372637397252962  1.0000
  Fe  Fe100     1.0  0.43229112498374567  0.003742231026650389  0.08904557825375536  1.0000
  S   S198      1.0  0.4256957408455802  0.994786264852295  0.0304369931152082  1.0000
  S   S199      1.0  0.44072361416758454  0.011917615538755477  0.1925957212037101  1.0000
  S   S200      1.0  0.3945433922474126  0.014469996596942813  0.12562134904741518  1.0000
  Fe  Fe101     1.0  0.4920398732339283  0.25316911386199326  0.14792261340107393  1.0000
  S   S201      1.0  0.4662469011891529  0.21825432474443549  0.16335720492570358  1.0000
  S   S202      1.0  0.5117506217533278  0.2729997877011096  0.1947081250535453  1.0000
  Fe  Fe102     1.0  0.48301502159481374  0.2459731407764537  0.0674983464016945  1.0000
  S   S203      1.0  0.4566919727069987  0.2102649684739549  0.07636354354192987  1.0000
  S   S204      1.0  0.48853272225657157  0.2625982728649689  0.0112304521105695  1.0000
  Fe  Fe103     1.0  0.43511080379212014  0.2325712384382086  0.12166678289069277  1.0000
  S   S205      1.0  0.38642859412342884  0.23235496153924579  0.1303248732669647  1.0000
  Fe  Fe104     1.0  0.4905596981186096  0.19970783943029002  0.11714644286591311  1.0000
  S   S206      1.0  0.5108723531683348  0.1606856208609306  0.1273243339270451  1.0000
  S   S207      1.0  0.45893803442383213  0.269232787445343  0.10984059434603441  1.0000
  S   S208      1.0  0.5189339335472712  0.23363516787410799  0.10449420464050996  1.0000
  Fe  Fe105     1.0  0.07826767040561533  0.3802206207393284  0.17169878167757247  1.0000
  S   S209      1.0  0.054365774904427955  0.34303429842448807  0.16831820531298558  1.0000
  S   S210      1.0  0.09955345818272465  0.3890870301098092  0.2243317184853273  1.0000
  Fe  Fe106     1.0  0.06502772797597767  0.39576028372350275  0.0946961782429383  1.0000
  S   S211      1.0  0.03990990095804503  0.35996175140834075  0.0841738833176402  1.0000
  S   S212      1.0  0.07133771650717646  0.42668027789560925  0.05219033185082078  1.0000
  Fe  Fe107     1.0  0.02047282282425611  0.3663672602447899  0.13966281432873875  1.0000
  S   S213      1.0  0.9725084528657733  0.3606083894246185  0.1484580951923668  1.0000
  Fe  Fe108     1.0  0.07575413109768414  0.3394614631216813  0.11343960930253626  1.0000
  S   S214      1.0  0.0895074053011673  0.2991369269260698  0.09858724605158642  1.0000
  S   S215      1.0  0.042202120570822066  0.40420271443639516  0.14780253309627958  1.0000
  S   S216      1.0  0.10307347416847601  0.3747153385979254  0.1192126469256463  1.0000
  Fe  Fe109     1.0  0.2983778721838975  0.3519974768056234  0.09198194048990205  1.0000
  S   S217      1.0  0.2848054216917687  0.3921227496286697  0.07557861534675148  1.0000
  S   S218      1.0  0.3398713442087967  0.34747348318245774  0.12272242459455528  1.0000
  Fe  Fe110     1.0  0.24553181029551757  0.3281470924395204  0.05907457151015593  1.0000
  S   S219      1.0  0.2274795382018696  0.3661450779227665  0.03954195709485919  1.0000
  S   S220      1.0  0.22260846940091047  0.2906134499310836  0.05273658895094813  1.0000
  Fe  Fe111     1.0  0.27362946940103217  0.3743769926041875  0.02284559275933673  1.0000
  S   S221      1.0  0.2857938296919939  0.3937191565475424  0.9699892244861134  1.0000
  Fe  Fe112     1.0  0.240152766330985  0.38028648580668023  0.09401687813801662  1.0000
  S   S222      1.0  0.21202419397779268  0.4080227342029149  0.125958417370211  1.0000
  S   S223      1.0  0.29104193869839984  0.33494219421715515  0.037460277549000054  1.0000
  S   S224      1.0  0.25454688513742174  0.3415369096369852  0.11521721101373285  1.0000
  Fe  Fe113     1.0  0.9790679612239227  0.8122741502632281  0.07767758881896869  1.0000
  S   S225      1.0  0.018346814745476836  0.8358094094723797  0.06256469825602817  1.0000
  S   S226      1.0  0.9477926660404243  0.8008526257807959  0.03535523511053018  1.0000
  Fe  Fe114     1.0  0.9947204477115114  0.8075394165231806  0.15639851502199806  1.0000
  S   S227      1.0  0.035981122616983496  0.8294253071374188  0.1483301903332835  1.0000
  S   S228      1.0  0.9814829919588178  0.7963218388972819  0.21310610151872814  1.0000
  Fe  Fe115     1.0  0.008475476065005205  0.8561346534284676  0.11495963821128297  1.0000
  S   S229      1.0  0.011726526018110972  0.8976557003641277  0.12973726025581112  1.0000
  Fe  Fe116     1.0  0.041982160080268116  0.8068485718717323  0.0972305794589643  1.0000
  S   S230      1.0  0.08454137580598631  0.7883224407871806  0.07997733456928158  1.0000
  S   S231      1.0  0.9665987642258366  0.8356746138416101  0.12631632397440296  1.0000
  S   S232      1.0  0.0035791549952244317  0.7818263704129443  0.1088672750161348  1.0000
  Fe  Fe117     1.0  0.28939598230744445  0.863156649962209  0.09688296206134694  1.0000
  S   S233      1.0  0.30321993681616116  0.8269075379515731  0.12604478483614323  1.0000
  S   S234      1.0  0.324451292975956  0.8880049805270046  0.07202784267631679  1.0000
  Fe  Fe118     1.0  0.22534878526126464  0.8542847755462967  0.11209384945996348  1.0000
  S   S235      1.0  0.23332918594634167  0.817545035564648  0.14312927527191355  1.0000
  S   S236      1.0  0.18070136029842127  0.8710574053304475  0.10402942709118568  1.0000
  Fe  Fe119     1.0  0.2697468672566893  0.8388300036413742  0.16799985850007687  1.0000
  S   S237      1.0  0.27585037672854057  0.8362477350975452  0.22807988650152894  1.0000
  Fe  Fe120     1.0  0.2658640030127268  0.8089451319066636  0.09839260460871091  1.0000
  S   S238      1.0  0.26841456250838  0.7684499462860297  0.0775152026623489  1.0000
  S   S239      1.0  0.2587988210925801  0.8766103559433872  0.14125483601325972  1.0000
  S   S240      1.0  0.25479607874594346  0.8441195937536223  0.0649782084286028  1.0000
  Fe  Fe121     1.0  0.9068974663141322  0.04329290052785195  0.12229227971634485  1.0000
  S   S241      1.0  0.9506205353091565  0.03206746041216002  0.09877507490969983  1.0000
  S   S242      1.0  0.8988673814072455  0.04116119517994865  0.18235181332885134  1.0000
  Fe  Fe122     1.0  0.8810744316652908  0.05403022410387548  0.04861781748074079  1.0000
  S   S243      1.0  0.9228229916231  0.0441957535401587  0.019098988554610452  1.0000
  S   S244      1.0  0.8427099057018842  0.06342734016202356  0.01400998265795339  1.0000
  Fe  Fe123     1.0  0.9250124464012877  0.01069850003776085  0.057943641953621894  1.0000
  S   S245      1.0  0.9318522108528304  0.9709689119571879  0.035167929965379985  1.0000
  Fe  Fe124     1.0  0.9439166933467006  0.06657708975891508  0.06259450943905409  1.0000
  S   S246      1.0  0.981979989083493  0.09181738307093967  0.04887653459021224  1.0000
  S   S247      1.0  0.8816577949187338  0.019058845778866962  0.08479980619442329  1.0000
  S   S248      1.0  0.9017292714963807  0.0796191494656655  0.08914569146170037  1.0000
  Fe  Fe125     1.0  0.9085670044250355  0.18316990660214194  0.23812296114173306  1.0000
  S   S249      1.0  0.9514369680167908  0.20318542276865711  0.23698695675536707  1.0000
  S   S250      1.0  0.9021642279779134  0.14977470116931604  0.27681903106343625  1.0000
  Fe  Fe126     1.0  0.8850597826756599  0.21601601475227394  0.17665829851256554  1.0000
  S   S251      1.0  0.9256690242082661  0.23934878357100073  0.1710194796446287  1.0000
  S   S252      1.0  0.8490274440680926  0.2200496438038952  0.13686106847798207  1.0000
  Fe  Fe127     1.0  0.9487891782781454  0.20125001194922748  0.17658777142470727  1.0000
  S   S253      1.0  0.9890089312311896  0.19249704507083928  0.14270671929183365  1.0000
  Fe  Fe128     1.0  0.9243435100361876  0.2392920327898907  0.23170692191721254  1.0000
  S   S254      1.0  0.9383486269461903  0.27373670163278385  0.26255770947575385  1.0000
  S   S255      1.0  0.9082630776637298  0.1778094091080146  0.17812702891595356  1.0000
  S   S256      1.0  0.8812324527557565  0.21950870895215713  0.23747116988645467  1.0000
  C   C1        1.0  0.98338221225581  0.12044630675354084  0.07362485763436499  1.0000
  C   C2        1.0  0.010226794892581825  0.13222039904200988  0.07837658708056572  1.0000
  C   C3        1.0  0.011770993796475171  0.15467602784889295  0.09905760895899718  1.0000
  C   C4        1.0  0.9863927570812133  0.16569041463792622  0.11441602324860578  1.0000
  C   C5        1.0  0.9594212486606754  0.1546165987227144  0.1080971290343673  1.0000
  C   C6        1.0  0.9579757586991126  0.13175646070351243  0.08839351598911782  1.0000
  H   H1        1.0  0.02993657189008969  0.12367370284810053  0.06672242950044405  1.0000
  H   H2        1.0  0.03269405762362232  0.1632948059203526  0.103539469715769  1.0000
  H   H3        1.0  0.9396593863275778  0.16372006444353812  0.11810886880627658  1.0000
  H   H4        1.0  0.9371898477602592  0.12309819446730663  0.08441987113855354  1.0000
  C   C7        1.0  0.9897202391567106  0.9178138925612969  0.10306028390297506  1.0000
  C   C8        1.0  0.9851563597849646  0.9435246671432436  0.11311320844831552  1.0000
  C   C9        1.0  0.9673363009759455  0.9598817123208417  0.09238945126298503  1.0000
  C   C10       1.0  0.9545071396260503  0.9507513664778139  0.061143325099870305  1.0000
  C   C11       1.0  0.9588647134108377  0.9249277301453807  0.0512369742124843  1.0000
  C   C12       1.0  0.9762595358281503  0.9083727117948396  0.07238640636157045  1.0000
  H   H5        1.0  0.9954336289843483  0.9508424794415646  0.13693102386286982  1.0000
  H   H6        1.0  0.9638163689456263  0.9795792096518253  0.10051919548483434  1.0000
  H   H7        1.0  0.9488452883730305  0.9177262036448869  0.027168854777519513  1.0000
  H   H8        1.0  0.9796297225063625  0.888465808965924  0.06459530891111398  1.0000
  C   C13       1.0  0.11166006506827242  0.8113549587548827  0.08359655831180124  1.0000
  C   C14       1.0  0.10394570697356453  0.8374391020492533  0.08669352942406117  1.0000
  C   C15       1.0  0.1254908234644725  0.8557988983820417  0.09160121280387856  1.0000
  C   C16       1.0  0.15472591576425307  0.8480707987218098  0.09401125174408476  1.0000
  C   C17       1.0  0.1625463099347981  0.8219854285648492  0.09046227181601951  1.0000
  C   C18       1.0  0.1409697208117935  0.8036145068744609  0.08500992561267284  1.0000
  H   H9        1.0  0.08134157912010509  0.8435694423161358  0.08550733215596185  1.0000
  H   H10       1.0  0.11939873484580499  0.875979932473472  0.0943920334072803  1.0000
  H   H11       1.0  0.18513492590157862  0.81596900168307  0.09224169549482442  1.0000
  H   H12       1.0  0.1468438746070999  0.7833536388288154  0.0831290842434309  1.0000
  C   C19       1.0  0.9633720497340552  0.33648710888334243  0.1803983507027694  1.0000
  C   C20       1.0  0.9819373691616342  0.33011942820790324  0.20884685183770205  1.0000
  C   C21       1.0  0.9737958489936649  0.31132379895393  0.23469750260884617  1.0000
  C   C22       1.0  0.9474912618312262  0.2983276990513674  0.2315431609940315  1.0000
  C   C23       1.0  0.9290534254808228  0.30451014054890985  0.20293092925078415  1.0000
  C   C24       1.0  0.9367912874612937  0.32385881199779826  0.17771151861738077  1.0000
  H   H13       1.0  0.002380395738731833  0.33979530350530057  0.21141098143523473  1.0000
  H   H14       1.0  0.9881349145850941  0.3064318373090272  0.2567294528451555  1.0000
  H   H15       1.0  0.9086309815117941  0.29456135388222254  0.20049761002090416  1.0000
  H   H16       1.0  0.9222922778967316  0.3287787369813993  0.1558414471116445  1.0000
  C   C25       1.0  0.1256093306742052  0.29670057455522286  0.08221000424850677  1.0000
  C   C26       1.0  0.14090821200620463  0.3188350486695956  0.072064074333416  1.0000
  C   C27       1.0  0.17057665015305173  0.3169884965202706  0.06231502442802617  1.0000
  C   C28       1.0  0.18495302052514193  0.29296841388204053  0.06207119257150562  1.0000
  C   C29       1.0  0.16931197033521228  0.2706789774084616  0.07086789630464185  1.0000
  C   C30       1.0  0.13969036256881062  0.2725529833611682  0.08108694005411832  1.0000
  H   H17       1.0  0.12993349489429074  0.3374157582640312  0.07173900783557374  1.0000
  H   H18       1.0  0.18218418194176988  0.33418921439425237  0.054958216066895105  1.0000
  H   H19       1.0  0.18027104511042372  0.2520220121608534  0.07056675559868064  1.0000
  H   H20       1.0  0.12786051168765877  0.2553323506870819  0.08871149696478442  1.0000
  C   C31       1.0  0.3719582345090637  0.26393938495938946  0.13228564136777746  1.0000
  C   C32       1.0  0.3889218304802001  0.2840838773057316  0.144563628413795  1.0000
  C   C33       1.0  0.37855298562824125  0.30964735557212963  0.14248249155387627  1.0000
  C   C34       1.0  0.3511195654728535  0.31516712214482895  0.12823183553208065  1.0000
  C   C35       1.0  0.33362629584003206  0.29497071317352297  0.11713314082939984  1.0000
  C   C36       1.0  0.34405046144104995  0.26934659793124177  0.11922828521828589  1.0000
  H   H21       1.0  0.4100118928629538  0.2799805190863596  0.15591009977443893  1.0000
  H   H22       1.0  0.39201047211805723  0.32517440679691806  0.15149086560941427  1.0000
  H   H23       1.0  0.3123154089001979  0.2990968920068279  0.10628526096024205  1.0000
  H   H24       1.0  0.3307992187601166  0.2538066482450502  0.1097918827112557  1.0000
  C   C37       1.0  0.3654252477864271  0.9383987507183037  0.1568431400453566  1.0000
  C   C38       1.0  0.33521472710001926  0.9349653692008005  0.1572844042008116  1.0000
  C   C39       1.0  0.32258973437394145  0.919247958164833  0.13146985265211147  1.0000
  C   C40       1.0  0.34014252574855125  0.9069043507488865  0.10520304342229192  1.0000
  C   C41       1.0  0.3703325365858933  0.91050011066966  0.10460662435949852  1.0000
  C   C42       1.0  0.3829587342878884  0.9262821467559409  0.1303568276578404  1.0000
  H   H25       1.0  0.32151512248564595  0.9447191111643682  0.17730236292028906  1.0000
  H   H26       1.0  0.2992048557685617  0.9172710217291733  0.13135563946759535  1.0000
  H   H27       1.0  0.3840029719097168  0.900948694751583  0.08436187575525  1.0000
  H   H28       1.0  0.40633003231805975  0.9286678709909455  0.1301062467461045  1.0000
  C   C43       1.0  0.4400400790833495  0.1028950932754813  0.15610488109183018  1.0000
  C   C44       1.0  0.46937505423915454  0.09509981194176587  0.15607667293872  1.0000
  C   C45       1.0  0.49121605120257816  0.11290136036702175  0.14719018319934335  1.0000
  C   C46       1.0  0.4836472643777732  0.13842583381304174  0.13812615400307515  1.0000
  C   C47       1.0  0.454316353370375  0.14616725606386807  0.13806559244396555  1.0000
  C   C48       1.0  0.4325326299633555  0.12839183872805693  0.14700361913897342  1.0000
  H   H29       1.0  0.4751889555391171  0.07539688937684264  0.16297211427758046  1.0000
  H   H30       1.0  0.5139045267431673  0.10686917736286669  0.14700691757302733  1.0000
  H   H31       1.0  0.4483611196404591  0.1657416582874561  0.13055031659896854  1.0000
  H   H32       1.0  0.4098086194223897  0.13423202063825346  0.14606792298572846  1.0000
  C   C49       1.0  0.9447629296446711  0.7130711331774989  0.03886805085858325  1.0000
  C   C50       1.0  0.9457893587652105  0.7268270649937085  0.07120583020474935  1.0000
  C   C51       1.0  0.9453350334223465  0.7539089370656141  0.07034597174414992  1.0000
  C   C52       1.0  0.9437826965076254  0.7672630494963965  0.03718817010420117  1.0000
  C   C53       1.0  0.9413909649088897  0.7535313659801051  0.005016581473783033  1.0000
  C   C54       1.0  0.9421299093483749  0.7264605962947569  0.0058181401595323035  1.0000
  H   H33       1.0  0.9475179424927407  0.7165552520723095  0.09681584412575472  1.0000
  H   H34       1.0  0.9460937865290775  0.7644686474628005  0.09538416356758361  1.0000
  H   H35       1.0  0.939866259643384  0.7637981193704095  0.9793511994514977  1.0000
  H   H36       1.0  0.9409615144098687  0.7160373691580778  0.980759709212298  1.0000
  C   C55       1.0  0.10157819315064696  0.7117095018985593  0.9050138066941491  1.0000
  C   C56       1.0  0.11674665416768469  0.6904164472981467  0.9193535866295226  1.0000
  C   C57       1.0  0.10225280103921763  0.6672056774864948  0.9263926528867648  1.0000
  C   C58       1.0  0.0727854659896352  0.6650804705687997  0.918321650169079  1.0000
  C   C59       1.0  0.05794902435825233  0.6861347913749163  0.9027874116481106  1.0000
  C   C60       1.0  0.07215706559784983  0.7095848391241801  0.8967342732974578  1.0000
  H   H37       1.0  0.13954422264129815  0.6919175450821853  0.9257155966902737  1.0000
  H   H38       1.0  0.11368383972995266  0.6511272193883221  0.9388381254889331  1.0000
  H   H39       1.0  0.03554445251830218  0.6842942049594608  0.8950944983352442  1.0000
  H   H40       1.0  0.0604819332305031  0.7258033407839591  0.8848873594403545  1.0000
  C   C61       1.0  0.26598631638022724  0.7693207588748213  0.9541473000654117  1.0000
  C   C62       1.0  0.2763179297657673  0.7907388352341703  0.9723260874914716  1.0000
  C   C63       1.0  0.2783937591050455  0.7901125068098814  0.010209294871591945  1.0000
  C   C64       1.0  0.2700290049795516  0.768114237139106  0.029965593499475363  1.0000
  C   C65       1.0  0.2612067082983951  0.7461920820666231  0.011608390223292853  1.0000
  C   C66       1.0  0.2591399075151119  0.7468123694897988  0.9736872754626074  1.0000
  H   H41       1.0  0.28212243487753785  0.8080446097420355  0.9572402772899176  1.0000
  H   H42       1.0  0.2863874907065352  0.8067057048591987  0.024083997760143472  1.0000
  H   H43       1.0  0.25514887541071674  0.7289789781855053  0.026745578391941693  1.0000
  H   H44       1.0  0.2521538475823549  0.7298894939825595  0.959690426797937  1.0000
  C   C67       1.0  0.9275295367664205  0.5772017674550156  0.8788819355115015  1.0000
  C   C68       1.0  0.9536824316250075  0.5803635678483726  0.8592095719594826  1.0000
  C   C69       1.0  0.9656567718608974  0.5598278646546724  0.8391120910840372  1.0000
  C   C70       1.0  0.9520946689345874  0.5358394093604607  0.839853335501603  1.0000
  C   C71       1.0  0.9260656461142915  0.5325708360483341  0.8597988767295005  1.0000
  C   C72       1.0  0.9134492792245514  0.5534344258527403  0.8786281474480884  1.0000
  H   H45       1.0  0.9646007363044634  0.5986471351703975  0.8591031955675307  1.0000
  H   H46       1.0  0.9857882524243802  0.5623731068709733  0.8236343117866951  1.0000
  H   H47       1.0  0.9154071650933225  0.5141089861514333  0.8602055020801957  1.0000
  H   H48       1.0  0.8930420166217172  0.5510334661900899  0.8935532458151187  1.0000
  C   C73       1.0  0.9838055926869089  0.4487281186528833  0.0037916699262401377  1.0000
  C   C74       1.0  0.009517375702100983  0.4598347704444859  0.9902319562181506  1.0000
  C   C75       1.0  0.036215149005278  0.45380566234823894  0.006145093482513353  1.0000
  C   C76       1.0  0.03739933523870276  0.4362262804633119  0.035207241637140285  1.0000
  C   C77       1.0  0.011574415340675825  0.4258136991157788  0.04965185071178624  1.0000
  C   C78       1.0  0.9847284093797882  0.4322678496522477  0.03414327226308633  1.0000
  H   H49       1.0  0.008922728336114849  0.4731117235473908  0.9675204870135197  1.0000
  H   H50       1.0  0.05597556507818813  0.46238794100138786  0.99546923808014  1.0000
  H   H51       1.0  0.012253246488520109  0.412428033519403  0.0723401062939244  1.0000
  H   H52       1.0  0.9648766308386654  0.4236914865529726  0.04477845342755593  1.0000
  C   C79       1.0  0.2392712260994841  0.5884961788371568  0.8233283840852179  1.0000
  C   C80       1.0  0.23559767623530556  0.6147115800173427  0.8146744013368177  1.0000
  C   C81       1.0  0.22971065757994874  0.6326103663532949  0.8422131980265148  1.0000
  C   C82       1.0  0.22820548171329907  0.6243960334486983  0.8785005352786733  1.0000
  C   C83       1.0  0.23296637642794357  0.5982964716034181  0.8872540566730781  1.0000
  C   C84       1.0  0.2381147377525209  0.5802797323764219  0.8596401402828369  1.0000
  H   H53       1.0  0.23652668059349286  0.621097997822821  0.7865937957993131  1.0000
  H   H54       1.0  0.2261058176479189  0.652706414355625  0.8352501478899114  1.0000
  H   H55       1.0  0.23218265913589498  0.5919268466471648  0.9153344355749561  1.0000
  H   H56       1.0  0.2411800713840772  0.560047007813035  0.8664374120689113  1.0000
  C   C85       1.0  0.06929106113182715  0.4369600934084889  0.8352157326732127  1.0000
  C   C86       1.0  0.09793983858679911  0.4316810275472761  0.823457081044844  1.0000
  C   C87       1.0  0.11419399223215175  0.45092735813289025  0.8056054260980048  1.0000
  C   C88       1.0  0.10191661888736814  0.4755099021481812  0.7999469649555947  1.0000
  C   C89       1.0  0.07306200283699747  0.4805379461129482  0.810847050814167  1.0000
  C   C90       1.0  0.05670795484133451  0.46121562745767847  0.8281376841567619  1.0000
  H   H57       1.0  0.10747852537482361  0.4127072047715231  0.8279434428421317  1.0000
  H   H58       1.0  0.135987176266106  0.4465852240530956  0.7955666873988946  1.0000
  H   H59       1.0  0.06347885635344186  0.49951657467891863  0.8064467888165472  1.0000
  H   H60       1.0  0.03437632436169036  0.46523294171283625  0.8358840310876197  1.0000
  C   C91       1.0  0.22300194852219252  0.4591632977622933  0.9393955611993029  1.0000
  C   C92       1.0  0.21861181235376112  0.44566562437242474  0.9721706669664825  1.0000
  C   C93       1.0  0.23831244627902104  0.4259970525042779  0.9824244750146476  1.0000
  C   C94       1.0  0.26243000083955426  0.41988116900953926  0.9599544737542214  1.0000
  C   C95       1.0  0.2673707810279746  0.4341232926488492  0.9280214353971853  1.0000
  C   C96       1.0  0.24757882500479353  0.45352171272242514  0.9176452701997806  1.0000
  H   H61       1.0  0.1999479832701  0.45026482429310277  0.9895374242942988  1.0000
  H   H62       1.0  0.23481893273742835  0.4156947677244757  0.007728887026203113  1.0000
  H   H63       1.0  0.28649053807517183  0.43012464631097425  0.9111784421190254  1.0000
  H   H64       1.0  0.2515200832938011  0.4641458293173304  0.8928555928798045  1.0000
  C   C97       1.0  0.8245188697421844  0.9919211248969113  0.9477212795385916  1.0000
  C   C98       1.0  0.8465491796212704  0.9914544444515963  0.9731721070980163  1.0000
  C   C99       1.0  0.8517277852162944  0.013303332271284107  0.9937864352959904  1.0000
  C   C100      1.0  0.8346394919996865  0.035676398464345116  0.9895292992261113  1.0000
  C   C101      1.0  0.8121161715964585  0.036044598059365995  0.9645346867472983  1.0000
  C   C102      1.0  0.8071097948374738  0.014162511588123206  0.9435109821704365  1.0000
  H   H65       1.0  0.8604752205810187  0.9745125368258519  0.9758354139107109  1.0000
  H   H66       1.0  0.8695949990787013  0.012914528544834214  0.012150706674985079  1.0000
  H   H67       1.0  0.7988909528812672  0.053330716983874815  0.9610051057640603  1.0000
  H   H68       1.0  0.7899671797550973  0.014542548374401054  0.9239481768976675  1.0000
  C   C103      1.0  0.8320466806710469  0.1050403650923655  0.8740947283078617  1.0000
  C   C104      1.0  0.8254511578661713  0.07988413541403297  0.8854591334087689  1.0000
  C   C105      1.0  0.8049869078063913  0.06558391462238644  0.8668750620567423  1.0000
  C   C106      1.0  0.7906138272492239  0.07661661420964827  0.8373216912231265  1.0000
  C   C107      1.0  0.7972414838692571  0.10173680881004432  0.8258500907736606  1.0000
  C   C108      1.0  0.818141857607408  0.11586538398611732  0.8440475316091515  1.0000
  H   H69       1.0  0.8356944180483757  0.07162265547697344  0.9091186301870805  1.0000
  H   H70       1.0  0.7997618811212879  0.046262969217625516  0.8759855228247039  1.0000
  H   H71       1.0  0.7864142891149292  0.11019894158348231  0.8026941094277821  1.0000
  H   H72       1.0  0.82366782995782  0.13501169714566938  0.8345516154627919  1.0000
  C   C109      1.0  0.8850295599445223  0.22399084815809103  0.020237345331464596  1.0000
  C   C110      1.0  0.9040770553435674  0.22168329361459094  0.04923225269142839  1.0000
  C   C111      1.0  0.8930339283101176  0.21969616524539276  0.08492763525615543  1.0000
  C   C112      1.0  0.8629224540408931  0.22096283237253814  0.09195521562704623  1.0000
  C   C113      1.0  0.8438558925703912  0.223100732954264  0.06288729762300749  1.0000
  C   C114      1.0  0.8548822441589823  0.22436733066130846  0.027007946777216185  1.0000
  H   H73       1.0  0.9273922257481736  0.22100331444254925  0.04405279100961246  1.0000
  H   H74       1.0  0.9078781637882052  0.21721236302639949  0.10692584739906907  1.0000
  H   H75       1.0  0.8205543074033971  0.22398229135633266  0.06816182271263638  1.0000
  H   H76       1.0  0.8400539098889651  0.22622399448332364  0.004720009250839707  1.0000
  C   C115      1.0  0.6358532834591487  0.9677284651001917  0.9010241905780412  1.0000
  C   C116      1.0  0.6655059436928206  0.9689986719830848  0.9086443473731923  1.0000
  C   C117      1.0  0.6864881957121836  0.9600267799733975  0.8833058303176051  1.0000
  C   C118      1.0  0.6778662729043721  0.9499480347795201  0.8502818444978274  1.0000
  C   C119      1.0  0.6481778328345192  0.947053431318705  0.8437837306071856  1.0000
  C   C120      1.0  0.6271948173727048  0.9558270054695044  0.8692449926493117  1.0000
  H   H77       1.0  0.6722976342634994  0.9776971629774843  0.9335402825446568  1.0000
  H   H78       1.0  0.709313310359536  0.9609672568173272  0.8893573801290692  1.0000
  H   H79       1.0  0.6413498402518032  0.938873774497401  0.8185857311474288  1.0000
  H   H80       1.0  0.6042834287937281  0.9537254700745935  0.8640475458816262  1.0000
  C   C121      1.0  0.4751330864316967  0.04892408439348528  0.9539883587953838  1.0000
  C   C122      1.0  0.4664905233095415  0.057440870549466894  0.9885502164971537  1.0000
  C   C123      1.0  0.45023320671467354  0.04125176577447065  0.011877197014024565  1.0000
  C   C124      1.0  0.44241284556845917  0.016735579828143  0.0004135802477052142  1.0000
  C   C125      1.0  0.4495339600410382  0.008918756264987282  0.9650917208839416  1.0000
  C   C126      1.0  0.466024108163357  0.024951736085092158  0.9419632576316381  1.0000
  H   H81       1.0  0.473245528194798  0.0761156853482472  0.9978069882020673  1.0000
  H   H82       1.0  0.44402510612844176  0.04768088236990442  0.03878226803106166  1.0000
  H   H83       1.0  0.44319875986566476  0.9900840402000762  0.9559812132428578  1.0000
  H   H84       1.0  0.47179644588673914  0.018674443087984383  0.9148462729461437  1.0000
  C   C127      1.0  0.7031382560868712  0.21349702712016153  0.821201455848839  1.0000
  C   C128      1.0  0.7330931604875868  0.21785578051931073  0.8181868365770184  1.0000
  C   C129      1.0  0.7497508658030865  0.21905029450073096  0.849446317268109  1.0000
  C   C130      1.0  0.7366070925480129  0.2160535755626088  0.8837847892014944  1.0000
  C   C131      1.0  0.7065787456285012  0.21196612466841316  0.8868682534148484  1.0000
  C   C132      1.0  0.6898895680898591  0.2105224619564824  0.8555894725333324  1.0000
  H   H85       1.0  0.7434736728400212  0.2206720527091423  0.7918864010344868  1.0000
  H   H86       1.0  0.7727653754494449  0.2224715041929809  0.8470179404315039  1.0000
  H   H87       1.0  0.6962562907498213  0.2095763950914399  0.9133898939099885  1.0000
  H   H88       1.0  0.6668174046847172  0.2068378466488718  0.8582247738919943  1.0000
  C   C133      1.0  0.5578337176961926  0.14257243704012248  0.7661811494546182  1.0000
  C   C134      1.0  0.5395932456313501  0.12222732341363717  0.7762435236762444  1.0000
  C   C135      1.0  0.5516203834752641  0.09781346129082569  0.783920387306839  1.0000
  C   C136      1.0  0.5816850837015374  0.09349596826455486  0.7800740462102427  1.0000
  C   C137      1.0  0.5997854049610573  0.11362225904125545  0.7686163118627588  1.0000
  C   C138      1.0  0.5879067044375197  0.1382979461014946  0.7622461466280105  1.0000
  H   H89       1.0  0.5163396624163424  0.12563482006760893  0.7794437172767194  1.0000
  H   H90       1.0  0.5376305522369649  0.0824312115058281  0.7928365939123732  1.0000
  H   H91       1.0  0.6230682785243552  0.11034461535398088  0.7655775089262983  1.0000
  H   H92       1.0  0.6020354871209344  0.1540373786625195  0.7543524539823624  1.0000
  C   C139      1.0  0.5595835460837101  0.21976824929747166  0.9458947184224917  1.0000
  C   C140      1.0  0.5517420838904407  0.2112462443804964  0.9809454439533326  1.0000
  C   C141      1.0  0.5297197132134783  0.2241899215183707  0.0009261711695616182  1.0000
  C   C142      1.0  0.5156806265513716  0.24589729975681623  0.9860815896104397  1.0000
  C   C143      1.0  0.5234040707140826  0.2543503736553959  0.9509380030520844  1.0000
  C   C144      1.0  0.5453238959528693  0.2412860426544557  0.930835311130951  1.0000
  H   H93       1.0  0.5627832868245417  0.19468424552805488  0.9927857617332165  1.0000
  H   H94       1.0  0.5237232258622831  0.21740281987182053  0.027871553679832406  1.0000
  H   H95       1.0  0.5126796330439877  0.2711835120059396  0.9393905036353319  1.0000
  H   H96       1.0  0.5514842223554411  0.2481734685106593  0.9039831525108813  1.0000
  C   C145      1.0  0.9995575310335646  0.7171606053789185  0.7568196272260722  1.0000
  C   C146      1.0  0.9787325699997423  0.7362467992577897  0.7654365842921956  1.0000
  C   C147      1.0  0.9679202036386965  0.7385876140067665  0.8011715855662486  1.0000
  C   C148      1.0  0.9774369441984359  0.7215230439038421  0.8283097677648008  1.0000
  C   C149      1.0  0.998717511450424  0.7027173747307284  0.8198879175695868  1.0000
  C   C150      1.0  0.00980046278536939  0.7005546045593483  0.7841614373394866  1.0000
  H   H97       1.0  0.9706714428690663  0.749069778338476  0.7443917072207414  1.0000
  H   H98       1.0  0.9514725354981127  0.7531642434148752  0.8075249507642295  1.0000
  H   H99       1.0  0.0063849068101617945  0.6896613173123566  0.8407342228296514  1.0000
  H   H100      1.0  0.025503793891696436  0.6854591359704125  0.777492183171007  1.0000
  C   C151      1.0  0.8643816606459603  0.4444079569577225  0.7430345982155916  1.0000
  C   C152      1.0  0.8945020539852553  0.4397151170407791  0.7425199900849483  1.0000
  C   C153      1.0  0.9070406372411667  0.42461362802783176  0.7700961406175854  1.0000
  C   C154      1.0  0.8893934072259915  0.4137192295332582  0.7976047865270814  1.0000
  C   C155      1.0  0.8592095007457283  0.41791772466058774  0.7975242707057996  1.0000
  C   C156      1.0  0.8467566870716001  0.43354810078148953  0.7705217959321303  1.0000
  H   H101      1.0  0.9081816780488452  0.4479475300288977  0.721190450671981  1.0000
  H   H102      1.0  0.9303153779009282  0.4210941932492062  0.7698510699059183  1.0000
  H   H103      1.0  0.8455668137173485  0.4097404353708289  0.8189533061357499  1.0000
  H   H104      1.0  0.8234648758964854  0.43721342463853463  0.7709889276868527  1.0000
  C   C157      1.0  0.8961907179365161  0.5709747290921947  0.6220653357073878  1.0000
  C   C158      1.0  0.8830209484129257  0.5954695175344052  0.6196505640203287  1.0000
  C   C159      1.0  0.887715130814849  0.6138636296931224  0.6463336474102968  1.0000
  C   C160      1.0  0.9051274813908363  0.6076042832871212  0.6758635149569202  1.0000
  C   C161      1.0  0.918163502309517  0.5830907494241194  0.6785001539506932  1.0000
  C   C162      1.0  0.9139141797938773  0.5648803501643618  0.6514257569634688  1.0000
  H   H105      1.0  0.8692641912588932  0.6002896617493003  0.5970218117799537  1.0000
  H   H106      1.0  0.8775511351816598  0.6327922329165189  0.6442826394337007  1.0000
  H   H107      1.0  0.9325061303842073  0.5785672146449969  0.7006533110570405  1.0000
  H   H108      1.0  0.9254547970159362  0.5466471342149224  0.6524487711304771  1.0000
  C   C163      1.0  0.5496246546845814  0.9423068821216292  0.7019087649994433  1.0000
  C   C164      1.0  0.559982670478869  0.9634854298897759  0.7205814212811174  1.0000
  C   C165      1.0  0.5462295216414428  0.9712287218486306  0.7531158784071363  1.0000
  C   C166      1.0  0.5218740428414522  0.9580567343571555  0.7668550236011109  1.0000
  C   C167      1.0  0.5113095222272835  0.9370921405288712  0.747839543499536  1.0000
  C   C168      1.0  0.5252937723650613  0.9290892792484591  0.715531087953874  1.0000
  H   H109      1.0  0.5788214385629247  0.9737224744458908  0.7100910183673675  1.0000
  H   H110      1.0  0.5540525525286207  0.987768193710045  0.767019804204049  1.0000
  H   H111      1.0  0.4923604385623486  0.9269208186777731  0.7582065290814429  1.0000
  H   H112      1.0  0.5169975145607281  0.9128229642535735  0.7010818409657276  1.0000
  C   C169      1.0  0.7940242830592542  0.9557070915445661  0.6318162466595449  1.0000
  C   C170      1.0  0.8188771249955332  0.9405677132369908  0.6386735701107742  1.0000
  C   C171      1.0  0.8327821388415814  0.9423535475090697  0.6719959969496399  1.0000
  C   C172      1.0  0.8214303943034297  0.9587592967299542  0.6988583568980774  1.0000
  C   C173      1.0  0.7976046907426437  0.9749359680149917  0.6911714996040496  1.0000
  C   C174      1.0  0.7839570941376558  0.9735008559758741  0.6576090751428945  1.0000
  H   H113      1.0  0.8273205465354436  0.9273953064113506  0.6183283235958233  1.0000
  H   H114      1.0  0.8518981427076632  0.9305585025564812  0.6773218148237493  1.0000
  H   H115      1.0  0.7897384528213244  0.9886481464414092  0.7109226406515157  1.0000
  H   H116      1.0  0.7650307619900318  0.9855334319435114  0.6521800308358455  1.0000
  C   C175      1.0  0.8619306835529704  0.8220273542139368  0.6047928721983632  1.0000
  C   C176      1.0  0.889589562371167  0.810739193639774  0.6092393004122829  1.0000
  C   C177      1.0  0.8933993129267498  0.7902890737756598  0.634148070977962  1.0000
  C   C178      1.0  0.8695168665537832  0.7810461181437967  0.654433474675142  1.0000
  C   C179      1.0  0.842210097475738  0.7931968204513132  0.6512541007490211  1.0000
  C   C180      1.0  0.8383911642309974  0.813606367515863  0.6264092214944231  1.0000
  H   H117      1.0  0.9079391281567414  0.8174852182444123  0.592947334402064  1.0000
  H   H118      1.0  0.9147004692132243  0.7814484466618479  0.6373054000325965  1.0000
  H   H119      1.0  0.8237042015123  0.786192605739571  0.6670655404824398  1.0000
  H   H120      1.0  0.8169971934192917  0.8222764806249206  0.6233372602789136  1.0000
  C   C181      1.0  0.699110280723744  0.8294790482240213  0.6666210479756858  1.0000
  C   C182      1.0  0.6798705386460535  0.8398991975607167  0.641215777486119  1.0000
  C   C183      1.0  0.6503600925832582  0.8330205053062815  0.6426220191569402  1.0000
  C   C184      1.0  0.6402993211886802  0.815358192340049  0.6689564552699021  1.0000
  C   C185      1.0  0.6597127758447328  0.8046195004591501  0.6938373558734631  1.0000
  C   C186      1.0  0.6889686311109873  0.8119323616942877  0.692978075222691  1.0000
  H   H121      1.0  0.687663050998549  0.8533099562031513  0.6206356773802991  1.0000
  H   H122      1.0  0.6356342145593973  0.8408881192016169  0.622803765311669  1.0000
  H   H123      1.0  0.6520331269535735  0.7909156133138664  0.714170018282096  1.0000
  H   H124      1.0  0.7038319190606787  0.8037791000873677  0.7125661892186457  1.0000
  C   C187      1.0  0.2757962857198887  0.4596006357442778  0.6521467630021599  1.0000
  C   C188      1.0  0.29570600273927156  0.4450294372722595  0.6723699661502552  1.0000
  C   C189      1.0  0.2886858122489542  0.4376242283173307  0.7081999948975716  1.0000
  C   C190      1.0  0.26169711136148  0.4447443079524904  0.7237774436022993  1.0000
  C   C191      1.0  0.24110138489490732  0.45790404101489723  0.7027860539799285  1.0000
  C   C192      1.0  0.24816514424186334  0.46539866221203546  0.6669965865021044  1.0000
  H   H125      1.0  0.31658067301685494  0.43948212279376314  0.6604886066238551  1.0000
  H   H126      1.0  0.3045381619231196  0.42709081634957796  0.7241377893961726  1.0000
  H   H127      1.0  0.21976978343845058  0.46246372295082155  0.7141738697017775  1.0000
  H   H128      1.0  0.23253633699074516  0.47638513380048036  0.6513034765458516  1.0000
  C   C193      1.0  0.3039911968135689  0.6986723714728257  0.7229878607651108  1.0000
  C   C194      1.0  0.29161728293022077  0.6867696603270796  0.7538678379420076  1.0000
  C   C195      1.0  0.2625123138332316  0.6919378103873166  0.7640459347000988  1.0000
  C   C196      1.0  0.24566974797904964  0.7091071855268937  0.7434517453065361  1.0000
  C   C197      1.0  0.2574953324617484  0.7198981650076498  0.7114118377611631  1.0000
  C   C198      1.0  0.2866882973607385  0.7146955577182785  0.7011693076845641  1.0000
  H   H129      1.0  0.30469324328535335  0.6738138869080427  0.7702926292540945  1.0000
  H   H130      1.0  0.253154987323259  0.6826565383176547  0.7879007749686276  1.0000
  H   H131      1.0  0.24446774233285437  0.7330867023345357  0.6952950698141409  1.0000
  H   H132      1.0  0.2961134328185036  0.7240369732726092  0.6773838566645957  1.0000
  C   C199      1.0  0.4195873332957633  0.7870612229364586  0.6030838053636548  1.0000
  C   C200      1.0  0.43937097667738445  0.805608328153915  0.5905084993560609  1.0000
  C   C201      1.0  0.45394776684119514  0.8208463816785188  0.6151747899684804  1.0000
  C   C202      1.0  0.4482891934258367  0.8179400898312953  0.6524231956379659  1.0000
  C   C203      1.0  0.42780853137966157  0.7999392031979571  0.6649919990332385  1.0000
  C   C204      1.0  0.4137429077937512  0.7842062199294108  0.6403380470435638  1.0000
  H   H133      1.0  0.4439515225734252  0.807816862390067  0.5616990580954017  1.0000
  H   H134      1.0  0.4695442256411172  0.8348760672836919  0.6052959141896174  1.0000
  H   H135      1.0  0.42337534234463975  0.7977462702594362  0.6938219747704387  1.0000
  H   H136      1.0  0.39837170646566794  0.7699368162453275  0.6501022894373873  1.0000
  C   C205      1.0  0.40454344807089276  0.5687368264918486  0.6561452570143143  1.0000
  C   C206      1.0  0.4225367214282356  0.5670319129784827  0.6250436742734368  1.0000
  C   C207      1.0  0.4320825265254756  0.5895894720110745  0.6072947597366913  1.0000
  C   C208      1.0  0.42290531063277526  0.61382848856165  0.6199568445498439  1.0000
  C   C209      1.0  0.40534558685708216  0.615521174535198  0.6514139578087459  1.0000
  C   C210      1.0  0.39644664574537497  0.5929852720312219  0.6697375433977754  1.0000
  H   H137      1.0  0.4289771291428337  0.5483482365556085  0.614550384463296  1.0000
  H   H138      1.0  0.4458236228390381  0.5882402422618463  0.5830857564009307  1.0000
  H   H139      1.0  0.3986394601927841  0.6342080333979592  0.6617079691333514  1.0000
  H   H140      1.0  0.3826011368167033  0.5943821529293742  0.693845889140274  1.0000
  C   C211      1.0  0.7873810607093125  0.2747034467622859  0.7514210618361133  1.0000
  C   C212      1.0  0.786591601350471  0.2666606929994096  0.787765557090279  1.0000
  C   C213      1.0  0.8111591271250281  0.2547798013955284  0.8029405207485941  1.0000
  C   C214      1.0  0.8364411452441107  0.25073848653086794  0.7817919242491643  1.0000
  C   C215      1.0  0.837456009419751  0.2592159952936723  0.7455846899982321  1.0000
  C   C216      1.0  0.8129617308870564  0.27135214278370784  0.7304480775079651  1.0000
  H   H141      1.0  0.7669278066242041  0.26943821783779437  0.8041871503964073  1.0000
  H   H142      1.0  0.8106210803567044  0.24888930955930222  0.8311192337236063  1.0000
  H   H143      1.0  0.8571670015734746  0.2564095332486138  0.7292683231358308  1.0000
  H   H144      1.0  0.8139419499720941  0.27805371151944885  0.7025696553663912  1.0000
  C   C217      1.0  0.8512734718770437  0.34414450682607245  0.5764237479560064  1.0000
  C   C218      1.0  0.8753743515744392  0.358561628031601  0.5860295844970824  1.0000
  C   C219      1.0  0.8771549757930106  0.3846743576582163  0.5758129015523527  1.0000
  C   C220      1.0  0.8552493816795728  0.3962333076355214  0.5550585143662834  1.0000
  C   C221      1.0  0.831828192390085  0.38148775032853716  0.5441158507023419  1.0000
  C   C222      1.0  0.8294961728000081  0.355653300969269  0.5554660625757885  1.0000
  H   H145      1.0  0.8923286107874929  0.34965209163512523  0.602087211330863  1.0000
  H   H146      1.0  0.8958053622597099  0.39555879804583993  0.5834667097236029  1.0000
  H   H147      1.0  0.8150215092482685  0.390187154193935  0.52762136619891  1.0000
  H   H148      1.0  0.8110374808307205  0.34452221084563595  0.5475282730668948  1.0000
  C   C223      1.0  0.5226209594061156  0.2855309519874682  0.6841288666156318  1.0000
  C   C224      1.0  0.541032808746085  0.3067511030369125  0.6859517768007136  1.0000
  C   C225      1.0  0.5569218624149861  0.3108466816250602  0.717361728609786  1.0000
  C   C226      1.0  0.5549428622659682  0.29332791389701557  0.7464869156259112  1.0000
  C   C227      1.0  0.5363211336045461  0.2722904493601021  0.7447182717146956  1.0000
  C   C228      1.0  0.5198045018440758  0.2686306283014492  0.7138336966491204  1.0000
  H   H149      1.0  0.5432104154498555  0.3199351941119971  0.6631142895615788  1.0000
  H   H150      1.0  0.5712996237688042  0.32714090495138626  0.7186323821269157  1.0000
  H   H151      1.0  0.5344980379841755  0.25885800768045175  0.7672557233099812  1.0000
  H   H152      1.0  0.5054153485364996  0.2523435180586738  0.7127113344490109  1.0000
  C   C229      1.0  0.42750183046452145  0.39847407524098855  0.5893889625725154  1.0000
  C   C230      1.0  0.4370843831377376  0.373121045809003  0.5957710365752554  1.0000
  C   C231      1.0  0.45004235353109007  0.35879153445507783  0.5676298332280104  1.0000
  C   C232      1.0  0.45393772306754265  0.36987588606725685  0.5331431466187981  1.0000
  C   C233      1.0  0.4426437515575994  0.39466938327205925  0.526017879657138  1.0000
  C   C234      1.0  0.4293483386606376  0.4090058934033539  0.5542068736132534  1.0000
  H   H153      1.0  0.43541982984326094  0.3648144024572372  0.6228329842280029  1.0000
  H   H154      1.0  0.45782562262271287  0.3393282713992634  0.5729622585476398  1.0000
  H   H155      1.0  0.445635389845132  0.40331048168109107  0.4993299409559383  1.0000
  H   H156      1.0  0.42198729060276435  0.4286260111265135  0.5491168428222637  1.0000
  C   C235      1.0  0.6253301904810197  0.37692055576152034  0.604077582734559  1.0000
  C   C236      1.0  0.6395161355028861  0.35326686497832105  0.5972372312109808  1.0000
  C   C237      1.0  0.6700669690170138  0.35133842192137604  0.5987011105024999  1.0000
  C   C238      1.0  0.6862904877257708  0.37319856428974896  0.6063343487877949  1.0000
  C   C239      1.0  0.6720642274553406  0.3968034060722743  0.6128742962213757  1.0000
  C   C240      1.0  0.6416289979317024  0.3986004887120232  0.6120995827016723  1.0000
  H   H157      1.0  0.627007460251602  0.33652243054244096  0.5907997913535212  1.0000
  H   H158      1.0  0.6810545155433791  0.3331365177453012  0.5932170839436176  1.0000
  H   H159      1.0  0.6845716243509307  0.41371980858337415  0.6186814899325092  1.0000
  H   H160      1.0  0.6307212242152859  0.4168914668265227  0.6173268854590211  1.0000
  C   C241      1.0  0.8115550737896005  0.8570955022169495  0.4026868236679373  1.0000
  C   C242      1.0  0.8142099336297438  0.8491613325439953  0.43884308835886693  1.0000
  C   C243      1.0  0.789770930554403  0.8499157666263801  0.46237852509785754  1.0000
  C   C244      1.0  0.7627703903947051  0.8586964778967742  0.44977774011789184  1.0000
  C   C245      1.0  0.7598847110896918  0.8655287880021046  0.4132546468054133  1.0000
  C   C246      1.0  0.7842258030714101  0.8644861588857605  0.38963707929255675  1.0000
  H   H161      1.0  0.8352818023814126  0.8432917569013867  0.4489628295162925  1.0000
  H   H162      1.0  0.7919750359294794  0.844032254221831  0.49041580782515004  1.0000
  H   H163      1.0  0.7391705521658909  0.872474558530879  0.40351757009624084  1.0000
  H   H164      1.0  0.78198171636621  0.8698980525934581  0.3613902350845822  1.0000
  C   C247      1.0  0.8843833953486463  0.9567328429037705  0.21106324206651952  1.0000
  C   C248      1.0  0.8782143165325469  0.9757805081847966  0.23684085294515436  1.0000
  C   C249      1.0  0.8838685475602893  0.0017361437795553325  0.22859420396766805  1.0000
  C   C250      1.0  0.8956826665700899  0.008580111545448021  0.19457514942169063  1.0000
  C   C251      1.0  0.9037185041377048  0.989334818248081  0.1698030738016337  1.0000
  C   C252      1.0  0.8982672065038269  0.9633970001961802  0.1781995737063446  1.0000
  H   H165      1.0  0.8688856020867263  0.9706152459416748  0.263017583446733  1.0000
  H   H166      1.0  0.8784846621376954  0.01652432146065852  0.24818472098270067  1.0000
  H   H167      1.0  0.9139027126855035  0.9943959367358031  0.1440294771038174  1.0000
  H   H168      1.0  0.90416976914273  0.9486538066063949  0.15888140732557043  1.0000
  C   C253      1.0  0.7634003932434962  0.02990109054084478  0.42096421015685564  1.0000
  C   C254      1.0  0.7593884498405769  0.00594575008517495  0.40483717222176296  1.0000
  C   C255      1.0  0.7833904284460872  0.9921159884662519  0.39039197301936707  1.0000
  C   C256      1.0  0.8114305848488731  0.002112394023695119  0.3925017374901399  1.0000
  C   C257      1.0  0.8155491808182134  0.02550847668243339  0.4099976540763213  1.0000
  C   C258      1.0  0.7915316315149626  0.039451711073858364  0.4240618884412817  1.0000
  H   H169      1.0  0.7376187539744642  0.9986635762612095  0.40208294009758244  1.0000
  H   H170      1.0  0.7800255608358352  0.9741740558394413  0.37673911242956953  1.0000
  H   H171      1.0  0.8372600258228283  0.03316619943875421  0.4120424444613666  1.0000
  H   H172      1.0  0.7948212461470261  0.05749757334153882  0.43762489389371934  1.0000
  C   C259      1.0  0.7462258907503989  0.21895354494733502  0.5532520607985907  1.0000
  C   C260      1.0  0.7341228364431784  0.19666378349220906  0.5394367315508324  1.0000
  C   C261      1.0  0.7510311256636015  0.18007454689060826  0.5176054879410834  1.0000
  C   C262      1.0  0.7804499103488984  0.18503778214091607  0.510290897267771  1.0000
  C   C263      1.0  0.7929309694665687  0.206968941458971  0.5251003390952915  1.0000
  C   C264      1.0  0.7757453611058971  0.22408429714413095  0.5463275913162389  1.0000
  H   H173      1.0  0.7114214565360527  0.1924107012529042  0.54490515961508  1.0000
  H   H174      1.0  0.741158748629266  0.16334444512212615  0.5066989570463659  1.0000
  H   H175      1.0  0.8157073036328704  0.21097520516370624  0.5196696402700699  1.0000
  H   H176      1.0  0.7852662652817066  0.24134555589507964  0.5568624340014167  1.0000
  C   C265      1.0  0.8053914701590215  0.1386666636012324  0.30047231785843087  1.0000
  C   C266      1.0  0.8145238108303203  0.15259100048883187  0.26958152013738595  1.0000
  C   C267      1.0  0.8443334441099086  0.15560621276642111  0.2617395974763101  1.0000
  C   C268      1.0  0.8650140713231964  0.1441821518325988  0.2843631830094029  1.0000
  C   C269      1.0  0.8559037390283711  0.12913449056399867  0.31421296746951416  1.0000
  C   C270      1.0  0.8260825638292861  0.1266511816607111  0.3225457914565688  1.0000
  H   H177      1.0  0.7985563286097194  0.1617260028664498  0.25223126915462596  1.0000
  H   H178      1.0  0.8512384987578204  0.16697345994530585  0.2383304484550888  1.0000
  H   H179      1.0  0.8719361952227165  0.12008692782101892  0.33152231487786865  1.0000
  H   H180      1.0  0.8191852427391657  0.11547336554307061  0.3459857843760354  1.0000
  C   C271      1.0  0.716309326589596  0.9474858448258857  0.2958883168545083  1.0000
  C   C272      1.0  0.6872847264124168  0.9490582214078904  0.2852847172060433  1.0000
  C   C273      1.0  0.6698112597892425  0.9703286612593999  0.29509601211213543  1.0000
  C   C274      1.0  0.6813743409105324  0.990234981514559  0.31521836897134176  1.0000
  C   C275      1.0  0.7107850625711216  0.9892801948731282  0.324541983124686  1.0000
  C   C276      1.0  0.7282827468480078  0.9677899191870662  0.31500911350557337  1.0000
  H   H181      1.0  0.6782118825347339  0.9337862575681201  0.2695639559402442  1.0000
  H   H182      1.0  0.6472840620071276  0.9713428930903215  0.28707799989142774  1.0000
  H   H183      1.0  0.7196136680696391  0.004669128257577038  0.34025215276802323  1.0000
  H   H184      1.0  0.7507450132424611  0.966641335210248  0.32309396457154904  1.0000
  C   C277      1.0  0.5642392339619842  0.8702082969102695  0.4984192904669995  1.0000
  C   C278      1.0  0.5590287378892125  0.8809228603146644  0.46412887691678634  1.0000
  C   C279      1.0  0.5808978400351417  0.8947685918686068  0.44567762054116267  1.0000
  C   C280      1.0  0.6080775654777201  0.8976228199881218  0.46133196984194563  1.0000
  C   C281      1.0  0.6141648090548345  0.8850016647200919  0.4941099366221802  1.0000
  C   C282      1.0  0.5921607811546059  0.871338438728527  0.512722065060438  1.0000
  H   H185      1.0  0.5376412907332032  0.8795548987243069  0.45257150845906313  1.0000
  H   H186      1.0  0.5764924071887082  0.9035407712210416  0.4195856385118114  1.0000
  H   H187      1.0  0.6354481346326819  0.8865752601963791  0.5058532302698371  1.0000
  H   H188      1.0  0.5967592407389083  0.8619061291378831  0.5382264526141387  1.0000
  C   C283      1.0  0.5288937629205479  0.9608568046513273  0.27610123716456936  1.0000
  C   C284      1.0  0.5523922158557212  0.9747211822594152  0.26134042812956504  1.0000
  C   C285      1.0  0.5507342616446789  0.9854275524111143  0.2262130914424542  1.0000
  C   C286      1.0  0.5253927506587125  0.9826857670831965  0.2062143016011009  1.0000
  C   C287      1.0  0.502016402169513  0.9687502601492077  0.22097155988536307  1.0000
  C   C288      1.0  0.50386344739003  0.9576913761318834  0.2557475414593667  1.0000
  H   H189      1.0  0.5718337922625599  0.9771003984734515  0.27692936075198565  1.0000
  H   H190      1.0  0.5688859997829397  0.996154931023858  0.21480815633355216  1.0000
  H   H191      1.0  0.48251091084050746  0.9663466868924051  0.20554308280146802  1.0000
  H   H192      1.0  0.4857080264981389  0.946938694006804  0.26710844037954007  1.0000
  C   C289      1.0  0.6039506999759463  0.16254039331702938  0.34903022998612104  1.0000
  C   C290      1.0  0.5949387560316748  0.1695550613476672  0.3839861157787408  1.0000
  C   C291      1.0  0.6151028766830441  0.17115765841221225  0.4116203279907571  1.0000
  C   C292      1.0  0.6443964670428871  0.16507969858416965  0.404503399167755  1.0000
  C   C293      1.0  0.6537147096253478  0.15827181009952934  0.3693878749985751  1.0000
  C   C294      1.0  0.6334496440403151  0.1571536763852435  0.34149426433186286  1.0000
  H   H193      1.0  0.5722525420842575  0.17345543863221266  0.3897811502232589  1.0000
  H   H194      1.0  0.6077796646612275  0.17624782052304655  0.43878518531262967  1.0000
  H   H195      1.0  0.6764726678385233  0.15393411285644432  0.36366307506650153  1.0000
  H   H196      1.0  0.6405448397124053  0.15174842394603086  0.3143908533279787  1.0000
  C   C295      1.0  0.48566818838309483  0.06961048767189171  0.39338046423475737  1.0000
  C   C296      1.0  0.4921366204688503  0.043866795561050116  0.38503391932474207  1.0000
  C   C297      1.0  0.5118772747035334  0.029587413479686298  0.4060197696231598  1.0000
  C   C298      1.0  0.524665927887072  0.04086693303050826  0.4358948234171066  1.0000
  C   C299      1.0  0.5165038308524169  0.06593823938143073  0.4459497643314371  1.0000
  C   C300      1.0  0.4970046751501894  0.08031024765937045  0.42464084825823184  1.0000
  H   H197      1.0  0.4826980615842332  0.035210826066750744  0.36170759556511  1.0000
  H   H198      1.0  0.5174309789289187  0.009919874199420642  0.39876874612772234  1.0000
  H   H199      1.0  0.5260330472142992  0.07462841449906099  0.46932281839308765  1.0000
  H   H200      1.0  0.4910040606602495  0.09981220456803933  0.4321902159124143  1.0000
  C   C301      1.0  0.5327250082560699  0.20265023828236942  0.48468318657514803  1.0000
  C   C302      1.0  0.5326153093207012  0.21566537158130814  0.5176954596254957  1.0000
  C   C303      1.0  0.5515725486476494  0.23625676969230525  0.5223573219861221  1.0000
  C   C304      1.0  0.5706270035659045  0.24373782395934357  0.49406926937985196  1.0000
  C   C305      1.0  0.5716718756241791  0.22991142768816528  0.4617771900529424  1.0000
  C   C306      1.0  0.5526058554832384  0.2094930507622071  0.4571232951886094  1.0000
  H   H201      1.0  0.5171573631816264  0.21043491801041161  0.539077792736322  1.0000
  H   H202      1.0  0.5510713174397474  0.24665021654628694  0.5475889143799741  1.0000
  H   H203      1.0  0.5861014069423546  0.23565900305585502  0.43961846503466034  1.0000
  H   H204      1.0  0.5529485540329607  0.19930694444689429  0.4319649433869654  1.0000
  C   C307      1.0  0.4636638998048678  0.23407358120774296  0.28919949047111776  1.0000
  C   C308      1.0  0.44802920344391844  0.2480853686206899  0.2631875844467025  1.0000
  C   C309      1.0  0.46285419169831327  0.2608477922657875  0.23469356683162598  1.0000
  C   C310      1.0  0.4933530486912432  0.2606755180271999  0.23314786003439772  1.0000
  C   C311      1.0  0.5090015892495742  0.24792159320959337  0.2602974263114955  1.0000
  C   C312      1.0  0.4941739516012439  0.2341282405621751  0.2878050678672414  1.0000
  H   H205      1.0  0.4244630643278522  0.24848862351096299  0.26430875839684276  1.0000
  H   H206      1.0  0.4506950384276695  0.27063775285424946  0.21363502952813412  1.0000
  H   H207      1.0  0.532574964599453  0.24786451429346812  0.2592229980155208  1.0000
  H   H208      1.0  0.5064531384968074  0.22339787327542063  0.30759564857740324  1.0000
  C   C313      1.0  0.021972300683656965  0.7165268495328868  0.48837301673689126  1.0000
  C   C314      1.0  0.0020371941108547897  0.7010500664726128  0.4709081918427188  1.0000
  C   C315      1.0  0.9773959353076879  0.6918625594180077  0.48998209480957267  1.0000
  C   C316      1.0  0.9728367717843384  0.6978286165263083  0.5266632878794425  1.0000
  C   C317      1.0  0.9929229079117626  0.7130358228588014  0.5442535041157691  1.0000
  C   C318      1.0  0.01737018865186024  0.7225323826856997  0.5250360892980771  1.0000
  H   H209      1.0  0.005379307064084404  0.6964408202790943  0.4425586365315161  1.0000
  H   H210      1.0  0.9618616537955037  0.6801681187043069  0.4762316218255491  1.0000
  H   H211      1.0  0.9896182367194042  0.7176047486083789  0.5726036080362493  1.0000
  H   H212      1.0  0.03275317418321477  0.7344678042389879  0.5386400832170963  1.0000
  C   C319      1.0  0.05904247270643559  0.7558309926800691  0.26452422564306194  1.0000
  C   C320      1.0  0.05915936097162788  0.7607245843196718  0.22713838441526235  1.0000
  C   C321      1.0  0.03539603776876432  0.7734265341134864  0.21138424973011846  1.0000
  C   C322      1.0  0.011458443955528974  0.781194675999481  0.2330288830762246  1.0000
  C   C323      1.0  0.011271518506561273  0.7762419885596312  0.2704182903980939  1.0000
  C   C324      1.0  0.03513758735998107  0.7635859669704674  0.2862046110604936  1.0000
  H   H213      1.0  0.07741248902420916  0.7542992415297064  0.2102566470047524  1.0000
  H   H214      1.0  0.035375107197428424  0.7766944475104566  0.18236524489281147  1.0000
  H   H215      1.0  0.9927660472164493  0.7823060746850383  0.28717336525263  1.0000
  H   H216      1.0  0.03524104225889202  0.7602727445928332  0.3152033469444882  1.0000
  C   C325      1.0  0.17070445524822642  0.6677550366822199  0.38314612284385824  1.0000
  C   C326      1.0  0.19632823553308532  0.6630447921133498  0.4021455505601598  1.0000
  C   C327      1.0  0.21926168747997082  0.6806199762996032  0.3992549447342959  1.0000
  C   C328      1.0  0.21622734561878568  0.7030004251857256  0.37787163428399917  1.0000
  C   C329      1.0  0.19082358623847714  0.7073946040897603  0.3584755364755757  1.0000
  C   C330      1.0  0.16827174450752436  0.6895783519018587  0.36069416136101445  1.0000
  H   H217      1.0  0.19831183562771137  0.6461049186213943  0.419453630409886  1.0000
  H   H218      1.0  0.23909486187763562  0.677133232757463  0.414014588274116  1.0000
  H   H219      1.0  0.18874585182780973  0.7244286308079587  0.3413320203202112  1.0000
  H   H220      1.0  0.14911290119261245  0.6926695270050813  0.34461951115972833  1.0000
  C   C331      1.0  0.33971784856257087  0.6553737869371017  0.4327351339618188  1.0000
  C   C332      1.0  0.3564073912241325  0.6528810393340136  0.46379914988149706  1.0000
  C   C333      1.0  0.3451969235860554  0.6617512850778403  0.4971361415627385  1.0000
  C   C334      1.0  0.3171162016257808  0.6725602388196299  0.4996222162405639  1.0000
  C   C335      1.0  0.3000969411307476  0.6743462678864969  0.4687545358414035  1.0000
  C   C336      1.0  0.31151356446964246  0.6660143934628093  0.4352528258878764  1.0000
  H   H221      1.0  0.37835494541179304  0.644948306506352  0.46183127914353617  1.0000
  H   H222      1.0  0.3581758634722247  0.659928174257503  0.5209937532439234  1.0000
  H   H223      1.0  0.27835397505322934  0.6827423778021676  0.47052776211851544  1.0000
  H   H224      1.0  0.2984950968417934  0.6681092381340418  0.4114169224975929  1.0000
  C   C337      1.0  0.3401669576891152  0.7727115937333812  0.26018897424454474  1.0000
  C   C338      1.0  0.3449851949077892  0.7868804176717773  0.22813691643294975  1.0000
  C   C339      1.0  0.32489465500849213  0.8060705611399679  0.21776896549804506  1.0000
  C   C340      1.0  0.3004929234114653  0.8116278721283484  0.23997603165269685  1.0000
  C   C341      1.0  0.2962451460724182  0.7980218222071309  0.2726186968797245  1.0000
  C   C342      1.0  0.31581974621474157  0.77827115445348  0.2824398273756637  1.0000
  H   H225      1.0  0.36386970049175804  0.7826038160908674  0.21095888422095446  1.0000
  H   H226      1.0  0.32861702032100987  0.8167971357897627  0.19292928909915144  1.0000
  H   H227      1.0  0.27751002442211653  0.8024072968475561  0.2900096914152954  1.0000
  H   H228      1.0  0.3121346387344056  0.767439435834953  0.3073841255664881  1.0000
  C   C343      1.0  0.9979648315369478  0.5769689168400669  0.4175918258155656  1.0000
  C   C344      1.0  0.9969257067338387  0.5725760980049249  0.3802994857530497  1.0000
  C   C345      1.0  0.9977513770411555  0.5934498811347356  0.3556869105302299  1.0000
  C   C346      1.0  0.00027065220982747107  0.6186471339061644  0.3683433877853071  1.0000
  C   C347      1.0  0.0013157969979253892  0.6230234391328026  0.4056748924767956  1.0000
  C   C348      1.0  0.9999795394976831  0.6022052615568964  0.43028495262792044  1.0000
  H   H229      1.0  0.9950844828184218  0.553106908372041  0.37039890869388387  1.0000
  H   H230      1.0  0.9969323443106249  0.5899969948281644  0.3268362631013984  1.0000
  H   H231      1.0  0.002638764150145967  0.6425137962267257  0.4155859002630428  1.0000
  H   H232      1.0  0.0010043935667640724  0.6056291533427041  0.4590512535971432  1.0000
  C   C349      1.0  0.9968323686576457  0.441809098040613  0.5827407648988306  1.0000
  C   C350      1.0  0.994214969017881  0.4605124818636263  0.5551968862660478  1.0000
  C   C351      1.0  0.005557143103581241  0.45558544366036463  0.5201931665355678  1.0000
  C   C352      1.0  0.019112426547842176  0.431791969693722  0.5126387079359211  1.0000
  C   C353      1.0  0.0217073653994877  0.41313131908299966  0.5401994524176744  1.0000
  C   C354      1.0  0.010941056895641399  0.4182683341852994  0.575334431342026  1.0000
  H   H233      1.0  0.9837159512158357  0.4788950076935194  0.5609310359750591  1.0000
  H   H234      1.0  0.0033091704555152646  0.470015765509014  0.4989366795164332  1.0000
  H   H235      1.0  0.0321953472387444  0.39472865480433617  0.5344125664526954  1.0000
  H   H236      1.0  0.012973436395009585  0.40375722007153353  0.5965423165907282  1.0000
  C   C355      1.0  0.04688707879139531  0.45331537501492425  0.2798332024935446  1.0000
  C   C356      1.0  0.056650437126085196  0.43194160540816284  0.29998287536847984  1.0000
  C   C357      1.0  0.07332661615683622  0.41240698883477694  0.2829988901931765  1.0000
  C   C358      1.0  0.07983499970697672  0.4140326289432423  0.24574808859253602  1.0000
  C   C359      1.0  0.07003440592395016  0.43537245366549826  0.22559487190714106  1.0000
  C   C360      1.0  0.05348014246191091  0.4549403165408382  0.2425959285404103  1.0000
  H   H237      1.0  0.05090219992675182  0.43018928678293056  0.32849756953699455  1.0000
  H   H238      1.0  0.08058401545232363  0.3957582860387308  0.29857985748482946  1.0000
  H   H239      1.0  0.07542519501563327  0.4369211342199083  0.19691583117020298  1.0000
  H   H240      1.0  0.04598506957649695  0.47146412831591883  0.22692405371783553  1.0000
  C   C361      1.0  0.32752022045778706  0.5727592767413239  0.24168312167754588  1.0000
  C   C362      1.0  0.2975356997528155  0.5736982061234992  0.23571448166811929  1.0000
  C   C363      1.0  0.2832598424237955  0.5974008709935279  0.22998439465337248  1.0000
  C   C364      1.0  0.29868391081532625  0.620352844427873  0.23201471529070125  1.0000
  C   C365      1.0  0.32896279453024097  0.6193941453198515  0.23582948425370306  1.0000
  C   C366      1.0  0.3434972785754959  0.5955290741951168  0.2398420675178208  1.0000
  H   H241      1.0  0.28511621575900054  0.5562110192375941  0.2361616869955139  1.0000
  H   H242      1.0  0.2600286781918652  0.5978488971551762  0.22596959443183642  1.0000
  H   H243      1.0  0.3411905566297425  0.6370140181601165  0.23591384502475127  1.0000
  H   H244      1.0  0.36684010832441394  0.5948584653021536  0.24334721542686946  1.0000
  C   C367      1.0  0.17900011564544366  0.5360318423781034  0.31685652930497815  1.0000
  C   C368      1.0  0.14873813750465792  0.5334085897139672  0.315729108740463  1.0000
  C   C369      1.0  0.13308147942636595  0.5253948380375388  0.3469867309064048  1.0000
  C   C370      1.0  0.14772550735354062  0.5206556262226023  0.37936499849690697  1.0000
  C   C371      1.0  0.1776431239835934  0.5249051017223219  0.38087210544084155  1.0000
  C   C372      1.0  0.19325474812692953  0.532524039255812  0.3496528804093057  1.0000
  H   H245      1.0  0.13765203218590472  0.5363316593456223  0.29037479953371037  1.0000
  H   H246      1.0  0.10993946456217651  0.5222060643380997  0.3456868935451324  1.0000
  H   H247      1.0  0.1890122309412201  0.52148855689198  0.4059455075577854  1.0000
  H   H248      1.0  0.21653248837406755  0.535071955235061  0.35095135809788935  1.0000
  C   C373      1.0  0.3075389761347053  0.5083034157234313  0.43562799260491514  1.0000
  C   C374      1.0  0.306616980844681  0.512228919261607  0.4730678311598299  1.0000
  C   C375      1.0  0.33239096987578326  0.5119548587574732  0.4925401721885665  1.0000
  C   C376      1.0  0.35930599252303386  0.508906600346928  0.4744698949119081  1.0000
  C   C377      1.0  0.3603379807433846  0.505294710398823  0.43688510582776996  1.0000
  C   C378      1.0  0.33437013289526446  0.5046139805771391  0.4174940177666234  1.0000
  H   H249      1.0  0.2859059896964912  0.5153078475858195  0.48712713903867316  1.0000
  H   H250      1.0  0.331361897288677  0.5143163745369596  0.5215115110621861  1.0000
  H   H251      1.0  0.381173344180348  0.5023809451757799  0.4230263779328671  1.0000
  H   H252      1.0  0.3350988800577983  0.5010708767359715  0.38869545837125546  1.0000
  C   C379      1.0  0.25459726903467944  0.4221100983136827  0.2338620134118096  1.0000
  C   C380      1.0  0.2548783851646944  0.39729479409439455  0.21939909362558283  1.0000
  C   C381      1.0  0.24146396364778508  0.3928230217399677  0.18642107343528697  1.0000
  C   C382      1.0  0.22679963538992348  0.4129390060238565  0.1685289082741188  1.0000
  C   C383      1.0  0.2250049379256523  0.4374011741269479  0.18408284743147527  1.0000
  C   C384      1.0  0.23928860071413963  0.4420773211095314  0.21647254512133798  1.0000
  H   H253      1.0  0.2664875450647957  0.3817302483938722  0.23294700782952585  1.0000
  H   H254      1.0  0.24269100027874224  0.37384424299529195  0.1748339526830448  1.0000
  H   H255      1.0  0.2137290184265255  0.45300782732151573  0.17018029312022595  1.0000
  H   H256      1.0  0.23907972532101995  0.46128902039751035  0.22730989311375885  1.0000
  N   N1        1.0  0.09511787233143298  0.5855750497827198  0.4340103663004246  1.0000
  C   C385      1.0  0.08621751327146199  0.5884902879670485  0.3958439943747798  1.0000
  C   C386      1.0  0.127043355933792  0.5814372346352967  0.43519246444398524  1.0000
  C   C387      1.0  0.08029541833503884  0.563190303217321  0.4508815840796716  1.0000
  C   C388      1.0  0.08685821615502265  0.609123905637497  0.4542085486012332  1.0000
  H   H257      1.0  0.09250069124468929  0.5711195017266985  0.379762761591153  1.0000
  H   H258      1.0  0.09665250454828445  0.6054803355882759  0.3824073518186901  1.0000
  H   H259      1.0  0.06214132479284795  0.5911648139354615  0.39389727212559317  1.0000
  H   H260      1.0  0.13445955066128001  0.5785244680877509  0.4634816885786584  1.0000
  H   H261      1.0  0.13401691383902925  0.5640726327149131  0.41970180572609533  1.0000
  H   H262      1.0  0.13900733683407251  0.5980638680847211  0.42309938402801295  1.0000
  H   H263      1.0  0.08695230110687246  0.5598413019907351  0.47939468074562624  1.0000
  H   H264      1.0  0.08554532415878824  0.5452258071140748  0.43586811008312476  1.0000
  H   H265      1.0  0.056218942776418146  0.5658217053532107  0.4510045691023041  1.0000
  H   H266      1.0  0.0924504803036248  0.607227327707475  0.4833292545969854  1.0000
  H   H267      1.0  0.06298834148696741  0.6132112677369247  0.4528074406154714  1.0000
  H   H268      1.0  0.09843862935262515  0.6262439479492822  0.44287999295030306  1.0000
  N   N2        1.0  0.14777079378367186  0.7256549802381812  0.47522781202347075  1.0000
  C   C389      1.0  0.14233043278578728  0.7447523511876115  0.44591839872551914  1.0000
  C   C390      1.0  0.1795785596063777  0.7218359356548457  0.4790790974692281  1.0000
  C   C391      1.0  0.13445720756989066  0.7008244936439854  0.46618241100757435  1.0000
  C   C392      1.0  0.13460270229843307  0.7352016544051152  0.5096269459141131  1.0000
  H   H269      1.0  0.11849154268998263  0.7481919317215366  0.4423807705862304  1.0000
  H   H270      1.0  0.15184940508673406  0.7381212499686439  0.41945308226656985  1.0000
  H   H271      1.0  0.15217345670645233  0.7636959857196516  0.45179351204345575  1.0000
  H   H272      1.0  0.18461377834461756  0.707411937477311  0.5007816632715656  1.0000
  H   H273      1.0  0.19006128039772952  0.7147813296213964  0.4533679869586409  1.0000
  H   H274      1.0  0.19038851600780204  0.7401674474139366  0.4859579471419411  1.0000
  H   H275      1.0  0.14346616667417278  0.6932633892133047  0.44008989358723827  1.0000
  H   H276      1.0  0.11040118717338943  0.702932588747433  0.46343185837983525  1.0000
  H   H277      1.0  0.13846939071935505  0.6858460263599716  0.4874425137076675  1.0000
  H   H278      1.0  0.13822811965313342  0.7212857823275112  0.5323962642691372  1.0000
  H   H279      1.0  0.11053425821923968  0.7381506942846504  0.5073626611969122  1.0000
  H   H280      1.0  0.14394401035660742  0.7540072883445096  0.5172960623696274  1.0000
  N   N3        1.0  0.9891238372913762  0.6945927952706751  0.24975043238664174  1.0000
  C   C393      1.0  0.9736224427179997  0.6701851056925869  0.2443278030336009  1.0000
  C   C394      1.0  0.020715907590865387  0.6890896312113088  0.25262696710311383  1.0000
  C   C395      1.0  0.9780943996085566  0.7068016042633362  0.2835354949069444  1.0000
  C   C396      1.0  0.9840767018743551  0.7122547831532843  0.21860671184992464  1.0000
  H   H281      1.0  0.9497078603038642  0.6735895423354389  0.24210587266037442  1.0000
  H   H282      1.0  0.9769562431590295  0.6564401235116646  0.26745285885308223  1.0000
  H   H283      1.0  0.9814927580591365  0.6603508762402694  0.2191796895776319  1.0000
  H   H284      1.0  0.03308525322163747  0.7069836816615507  0.25747401566341255  1.0000
  H   H285      1.0  0.02517568963380267  0.675487218246933  0.2755311368986335  1.0000
  H   H286      1.0  0.029940687868398534  0.6802148544746  0.22744527446909157  1.0000
  H   H287      1.0  0.9895307665299283  0.7251242112160097  0.2886946563845818  1.0000
  H   H288      1.0  0.9813816084931429  0.6938730341602175  0.30754075963974903  1.0000
  H   H289      1.0  0.9543665238680757  0.7114275449485609  0.28227881470576155  1.0000
  H   H290      1.0  0.9605018866015821  0.7171622942143763  0.21586825599417114  1.0000
  H   H291      1.0  0.9919450126132268  0.7036362961340921  0.19257161030641035  1.0000
  H   H292      1.0  0.9956732371793509  0.7307403235794055  0.22172019129874898  1.0000
  N   N4        1.0  0.16716086559149027  0.3323424500956321  0.1775033364302451  1.0000
  C   C397      1.0  0.18367832430797898  0.30924474345366515  0.16498680938209062  1.0000
  C   C398      1.0  0.1725026741536967  0.35403476935916794  0.1519343599385178  1.0000
  C   C399      1.0  0.1767885398391569  0.3395695027716231  0.21392479246988125  1.0000
  C   C400      1.0  0.13569355641558567  0.3266476562724656  0.17914072470957312  1.0000
  H   H293      1.0  0.18033083088586405  0.29247371683754053  0.1836816894109196  1.0000
  H   H294      1.0  0.20750795232050584  0.31289213792924336  0.16279998870980558  1.0000
  H   H295      1.0  0.1766916438213887  0.303277934323636  0.13767593794928942  1.0000
  H   H296      1.0  0.16118546778392157  0.372120546262932  0.16096518362702472  1.0000
  H   H297      1.0  0.19610444477435005  0.3582086932734434  0.1491997317273841  1.0000
  H   H298      1.0  0.16491556253738754  0.3497897536991385  0.12430378370045785  1.0000
  H   H299      1.0  0.1733487721723069  0.3236112500259853  0.23398696960835627  1.0000
  H   H300      1.0  0.1643997191408829  0.35683277550693754  0.22406311943394436  1.0000
  H   H301      1.0  0.2003718498266271  0.34440886697390993  0.2134628261248699  1.0000
  H   H302      1.0  0.12766471599353843  0.3214150905018864  0.15201214119715992  1.0000
  H   H303      1.0  0.12258699774635672  0.3436197718931314  0.18859285885336868  1.0000
  H   H304      1.0  0.13082854148008427  0.31023580356607916  0.19794892618836663  1.0000
  N   N5        1.0  0.33500560998111895  0.4204265163177755  0.1704855356467903  1.0000
  C   C401      1.0  0.3089679533751905  0.43672660697405397  0.1633064866904495  1.0000
  C   C402      1.0  0.35046502618056113  0.4145887097984509  0.13583147808492757  1.0000
  C   C403      1.0  0.32596357295915  0.39605032220842  0.18841956107830182  1.0000
  C   C404      1.0  0.3546139713445307  0.4343249864938161  0.19449191573079472  1.0000
  H   H305      1.0  0.29284319917206864  0.4263485764513692  0.14693137008603557  1.0000
  H   H306      1.0  0.3147869951345753  0.4547424633567047  0.1482455372020193  1.0000
  H   H307      1.0  0.29770795769416175  0.4425654247964424  0.18903138240220635  1.0000
  H   H308      1.0  0.3361379171942448  0.4042553003390318  0.1171174161612441  1.0000
  H   H309      1.0  0.3579149317563785  0.4324561345858061  0.12160968560627568  1.0000
  H   H310      1.0  0.3698558595292534  0.4017916704202914  0.1401142176237693  1.0000
  H   H311      1.0  0.3099147037339823  0.38567150566358  0.1719523984586121  1.0000
  H   H312      1.0  0.3157531794637628  0.39962399149609446  0.21562369135151163  1.0000
  H   H313      1.0  0.3448329316736849  0.3825788300573744  0.19224867201869206  1.0000
  H   H314      1.0  0.37448738941492277  0.4225585531205487  0.20046061542126015  1.0000
  H   H315      1.0  0.34352376061420337  0.4388905795056178  0.22096871227154585  1.0000
  H   H316      1.0  0.36173858560330513  0.45292513738673357  0.18196973217886048  1.0000
  N   N6        1.0  0.5642562918582699  0.18901413527060973  0.2081935134695158  1.0000
  C   C405      1.0  0.5400424925642748  0.17650691494846255  0.2285526030835052  1.0000
  C   C406      1.0  0.579939639645684  0.169632267237087  0.1856566954359301  1.0000
  C   C407      1.0  0.5846165008311429  0.2003340012938296  0.23385924425957474  1.0000
  C   C408      1.0  0.5523231057113319  0.2096153632754293  0.18454377229024738  1.0000
  H   H317      1.0  0.5277427943838563  0.19061298218682887  0.24585837602436267  1.0000
  H   H318      1.0  0.5482349650429639  0.16083027349424947  0.24674474914912561  1.0000
  H   H319      1.0  0.5242803412363459  0.16788306639231929  0.20979573986084155  1.0000
  H   H320      1.0  0.5982696838364027  0.178453067070407  0.16980575031696543  1.0000
  H   H321      1.0  0.5891113020385302  0.15370122858922225  0.20266709140739725  1.0000
  H   H322      1.0  0.565173338372739  0.16084487386220653  0.16583495952374694  1.0000
  H   H323      1.0  0.5731552740284939  0.21404568822831888  0.25256642803781165  1.0000
  H   H324      1.0  0.602315028978604  0.21103700268845837  0.21934932855940822  1.0000
  H   H325      1.0  0.5951322893250732  0.185165190966795  0.2509800915170262  1.0000
  H   H326      1.0  0.5697245985023958  0.21938748273091657  0.1681963213322996  1.0000
  H   H327      1.0  0.5405797380076455  0.22466951932535897  0.2005898535076511  1.0000
  H   H328      1.0  0.5365413795129814  0.2017646460583276  0.16533336340090143  1.0000
  N   N7        1.0  0.8376210859630093  0.19484557705236874  0.3846999504447766  1.0000
  C   C409      1.0  0.820178238676322  0.20957896448467825  0.41186462741093066  1.0000
  C   C410      1.0  0.8220709812845651  0.1945849171188531  0.35002961237020963  1.0000
  C   C411      1.0  0.8419981728340429  0.16807862722574052  0.39809325964579667  1.0000
  C   C412      1.0  0.8662892534241465  0.20706877981896266  0.3787998190995499  1.0000
  H   H329      1.0  0.8166359173475539  0.2299666475755685  0.4029955366901876  1.0000
  H   H330      1.0  0.8310249559332048  0.20971082596310792  0.438603790279169  1.0000
  H   H331      1.0  0.7984045676314346  0.200830062626128  0.41679610316284504  1.0000
  H   H332      1.0  0.8352061066486446  0.18447753636606048  0.3286246209753382  1.0000
  H   H333      1.0  0.8008442257636934  0.1844904766262545  0.35288995012394475  1.0000
  H   H334      1.0  0.8175236155035663  0.21447400900807975  0.339653402528037  1.0000
  H   H335      1.0  0.8208611463109994  0.1579935249205861  0.4016400503651707  1.0000
  H   H336      1.0  0.8525413736930358  0.1675849935805507  0.42501955944281133  1.0000
  H   H337      1.0  0.8559901998729028  0.1566268330491634  0.3790154662756692  1.0000
  H   H338      1.0  0.8799611629794195  0.19634587020979904  0.35837172033481746  1.0000
  H   H339      1.0  0.8786810320311932  0.20755934486903901  0.4043799978430452  1.0000
  H   H340      1.0  0.8638582079925062  0.22727963074278118  0.3685189909631396  1.0000
  N   N8        1.0  0.7495468833307356  0.20595501709684064  0.6961453739299891  1.0000
  C   C413      1.0  0.7790857034371141  0.21181587364223933  0.7086628450461598  1.0000
  C   C414      1.0  0.7378843831877292  0.18376709726914903  0.7171961681174515  1.0000
  C   C415      1.0  0.7509857400184574  0.19960180655218807  0.6571047858979534  1.0000
  C   C416      1.0  0.7301607298971566  0.22868650314100541  0.7016935860306777  1.0000
  H   H341      1.0  0.7787746642788316  0.21701458156518738  0.7379214942803171  1.0000
  H   H342      1.0  0.7885619434620087  0.22844234967492336  0.6933519007066518  1.0000
  H   H343      1.0  0.7943562359684407  0.19508302195426075  0.7051304609322986  1.0000
  H   H344      1.0  0.7365947869129876  0.18793592656814886  0.746761747600158  1.0000
  H   H345      1.0  0.7153989229531719  0.17911163981646655  0.7089564835428913  1.0000
  H   H346      1.0  0.751837862975158  0.16617829820619737  0.7135509932154144  1.0000
  H   H347      1.0  0.765300549028938  0.18245094921517363  0.6517903790472191  1.0000
  H   H348      1.0  0.7598106163313502  0.21588231642242584  0.6403956651244365  1.0000
  H   H349      1.0  0.7290115323374871  0.19550125679384425  0.6465693299920297  1.0000
  H   H350      1.0  0.7292293178649908  0.2344897970782578  0.7307037892462901  1.0000
  H   H351      1.0  0.7074638174142606  0.22474189797822824  0.6936344092151308  1.0000
  H   H352      1.0  0.737898111883274  0.24562225179543098  0.6855304182887166  1.0000
  N   N9        1.0  0.03396308249361679  0.7554343569590328  0.9878590583989363  1.0000
  C   C417      1.0  0.018586428826633083  0.7513134282483634  0.9536555265342529  1.0000
  C   C418      1.0  0.02594574289945739  0.7811661255925817  0.0021102787796938305  1.0000
  C   C419      1.0  0.06582399787341853  0.7538942673809444  0.9809387570256042  1.0000
  C   C420      1.0  0.02547759137772898  0.7354360360600872  0.014920178061296863  1.0000
  H   H353      1.0  0.025310338755048845  0.7327382071168459  0.9410290413452043  1.0000
  H   H354      1.0  0.02320683038507143  0.7668691966908653  0.933337944214629  1.0000
  H   H355      1.0  0.9944863258390709  0.7509027790493285  0.9582489637813205  1.0000
  H   H356      1.0  0.032324562024522496  0.7968874146847531  0.9828275490785909  1.0000
  H   H357      1.0  0.001995559646768008  0.7830165787614651  0.007109586328911899  1.0000
  H   H358      1.0  0.03666441534028264  0.7847330266904755  0.028285428914282873  1.0000
  H   H359      1.0  0.07270217297513382  0.7343900512217431  0.9712637287899364  1.0000
  H   H360      1.0  0.0779882351744483  0.757771141308829  0.006067726785482952  1.0000
  H   H361      1.0  0.07290621695794575  0.7681138650947188  0.9597487172774336  1.0000
  H   H362      1.0  0.036681185593926635  0.7380825947471394  0.04106248939265744  1.0000
  H   H363      1.0  0.030926737674795923  0.7156742535178833  0.005096306849409649  1.0000
  H   H364      1.0  0.0016149680351387197  0.7361667449691544  0.021078610689559296  1.0000
  N   N10       1.0  0.15475280022214366  0.454885790227644  0.2852466111104487  1.0000
  C   C421      1.0  0.12643158368187102  0.4676574035750912  0.2779275050964823  1.0000
  C   C422      1.0  0.15383717162512323  0.4275519860600579  0.2743090328911544  1.0000
  C   C423      1.0  0.16071422149833325  0.4563072283655513  0.3244254938321781  1.0000
  C   C424      1.0  0.17812272870700263  0.46804418349759985  0.2642802362867509  1.0000
  H   H365      1.0  0.10850874995134663  0.45882942494924356  0.2943931420744814  1.0000
  H   H366      1.0  0.12074213177201543  0.46620837901730355  0.24883118430067352  1.0000
  H   H367      1.0  0.12659649311666143  0.4884779629845186  0.28473871439204906  1.0000
  H   H368      1.0  0.17510315884214145  0.41746912309136663  0.2786923862321319  1.0000
  H   H369      1.0  0.1366801406360758  0.41688479765713427  0.2899065279834965  1.0000
  H   H370      1.0  0.14882248671624798  0.4258007564590276  0.24499320942464517  1.0000
  H   H371      1.0  0.18166793415478644  0.4463937424744592  0.33105425264248023  1.0000
  H   H372      1.0  0.14307273701496515  0.4472476722799105  0.34126896645117916  1.0000
  H   H373      1.0  0.16240657396890246  0.4766769253114241  0.33325642375480125  1.0000
  H   H374      1.0  0.19985969102225254  0.4595214461442458  0.2704809670310747  1.0000
  H   H375      1.0  0.17883704473601547  0.4889172340840879  0.270839065448586  1.0000
  H   H376      1.0  0.1750177788215017  0.46657907828000567  0.23449979770674093  1.0000
  N   N11       1.0  0.11776614398946972  0.4311857891628543  0.947286849537914  1.0000
  C   C425      1.0  0.08728252242538459  0.422644201430415  0.9445347330515036  1.0000
  C   C426      1.0  0.13517475972622095  0.4108106780239482  0.9655655501778494  1.0000
  C   C427      1.0  0.11855628437096111  0.45509900881726184  0.9686745948775044  1.0000
  C   C428      1.0  0.13011447041132862  0.4362045286576208  0.9104872027837779  1.0000
  H   H377      1.0  0.07325643485096811  0.43768697438856735  0.9315209647706512  1.0000
  H   H378      1.0  0.07745513278384264  0.4180743170719596  0.9717521133074016  1.0000
  H   H379      1.0  0.08581238269444702  0.4049626269863707  0.9278395629296269  1.0000
  H   H380      1.0  0.1263869364053425  0.4067856160037201  0.9935442541244573  1.0000
  H   H381      1.0  0.1349443844235112  0.3923721429115168  0.950439378870406  1.0000
  H   H382      1.0  0.1583253698047069  0.41659901467551574  0.9680893176868398  1.0000
  H   H383      1.0  0.14126094961253033  0.46227114998683194  0.970594941942564  1.0000
  H   H384      1.0  0.10998911396663891  0.4518415499039331  0.996904992110346  1.0000
  H   H385      1.0  0.10517870343042235  0.47078064725451646  0.9561825518704434  1.0000
  H   H386      1.0  0.15311826432334108  0.44269778337977744  0.9114971880663356  1.0000
  H   H387      1.0  0.11745877568109075  0.45156434538943757  0.8960716864787783  1.0000
  H   H388      1.0  0.12973169159544584  0.4186165885252396  0.8935173706013396  1.0000
  N   N12       1.0  0.34241672325018274  0.9675292488062459  0.028481296495551197  1.0000
  C   C429      1.0  0.34954959107644057  0.9759270303005938  0.06534987690508465  1.0000
  C   C430      1.0  0.3121828074362528  0.9580441800905319  0.028677140613016405  1.0000
  C   C431      1.0  0.36271582394572605  0.9465399873453456  0.0170623108497725  1.0000
  C   C432      1.0  0.34527481603060606  0.9896101977115007  0.0028918773834123446  1.0000
  H   H389      1.0  0.3466192929295449  0.9601151895625069  0.08560215771864343  1.0000
  H   H390      1.0  0.3355141333558337  0.9924532092042729  0.07437267978690798  1.0000
  H   H391      1.0  0.37260615192858976  0.9820410942087748  0.06663036497416663  1.0000
  H   H392      1.0  0.30942089652070864  0.9413746078959535  0.04784598528682693  1.0000
  H   H393      1.0  0.29625343361226636  0.9733367704935817  0.037252358619614956  1.0000
  H   H394      1.0  0.3060880684855721  0.9513182064524944  0.0013735017788876203  1.0000
  H   H395      1.0  0.35854945053442167  0.940261072495027  0.9889446097249251  1.0000
  H   H396      1.0  0.3604592172614995  0.9292468817241442  0.035011196579715964  1.0000
  H   H397      1.0  0.3858492060993624  0.9526844424227461  0.017926037469148115  1.0000
  H   H398      1.0  0.3304278159766297  0.005899742557635035  0.01076318093553219  1.0000
  H   H399      1.0  0.3401539743370824  0.9840237462817762  0.9747356576091029  1.0000
  H   H400      1.0  0.36791308068587153  0.9971375218368853  0.0022538029194654197  1.0000
  N   N13       1.0  0.746240792377615  0.13525620661900725  0.9189168141873556  1.0000
  C   C433      1.0  0.7476920391653763  0.146176463526396  0.8816852318516631  1.0000
  C   C434      1.0  0.7737288613350962  0.14044974021891057  0.9374094544147932  1.0000
  C   C435      1.0  0.7420415691045846  0.10707282020301331  0.9172515877157229  1.0000
  C   C436      1.0  0.7216185338771587  0.1474531183687775  0.9392925503055904  1.0000
  H   H401      1.0  0.7532478163744848  0.16691718798683286  0.8818316361561471  1.0000
  H   H402      1.0  0.7266153733707501  0.14445636570547177  0.8676712706322396  1.0000
  H   H403      1.0  0.764825162159607  0.13645369424211035  0.8648770803844211  1.0000
  H   H404      1.0  0.793007697515789  0.13268728244042405  0.9219371864666602  1.0000
  H   H405      1.0  0.7767931886854849  0.1615704223986777  0.940443316233824  1.0000
  H   H406      1.0  0.7739797662727602  0.13164723657582467  0.9651025096119357  1.0000
  H   H407      1.0  0.7218430855761759  0.10243778298909323  0.9027323888070439  1.0000
  H   H408      1.0  0.7405426090783079  0.09821231244786555  0.9449013020878622  1.0000
  H   H409      1.0  0.7606422587565176  0.09740574894202725  0.9026074254728679  1.0000
  H   H410      1.0  0.7199775716747572  0.1398888357293152  0.9676498807475971  1.0000
  H   H411      1.0  0.7004596114543806  0.14417789961430752  0.9260868960478501  1.0000
  H   H412      1.0  0.7243042473763377  0.16876678626073657  0.9408938943502139  1.0000
  N   N14       1.0  0.8761400945585075  0.31871729125546083  0.8264646662177132  1.0000
  C   C437      1.0  0.8695909701383815  0.2974084426282774  0.8523282232331706  1.0000
  C   C438      1.0  0.9071417813938084  0.32571255906607893  0.8289640747545295  1.0000
  C   C439      1.0  0.8574705593264633  0.34141185116272404  0.8352968804854701  1.0000
  C   C440      1.0  0.8703396438836095  0.3103455548091095  0.7891733051801533  1.0000
  H   H413      1.0  0.8465274629539983  0.2912373348825237  0.8505663603116603  1.0000
  H   H414      1.0  0.8733056500942242  0.30309413500533844  0.8808549857353541  1.0000
  H   H415      1.0  0.8835415245459887  0.2800415115017239  0.8466429572160096  1.0000
  H   H416      1.0  0.9218684056728483  0.308978005069563  0.8227588568013072  1.0000
  H   H417      1.0  0.9128323725386216  0.34167479156983427  0.8096440952408054  1.0000
  H   H418      1.0  0.9121824049274939  0.3325671427143168  0.8566161651520415  1.0000
  H   H419      1.0  0.8339167817290914  0.33664527226024155  0.8348036914605004  1.0000
  H   H420      1.0  0.8613064517065788  0.3575487929115431  0.8155755270111397  1.0000
  H   H421      1.0  0.8621245176609509  0.34895109729302465  0.8627031298282047  1.0000
  H   H422      1.0  0.8469208787964179  0.30571192017993337  0.7860884350495789  1.0000
  H   H423      1.0  0.883299918292405  0.2926576920361182  0.7820424891346542  1.0000
  H   H424      1.0  0.8758764838677568  0.3256241435060421  0.7687635288568548  1.0000
  N   N15       1.0  0.5335533821251796  0.9961306998615721  0.02878577243249003  1.0000
  C   C441      1.0  0.5105866645328226  0.9812895012218815  0.011358073479035724  1.0000
  C   C442      1.0  0.5254192140953183  0.02385308228312688  0.028358838457069213  1.0000
  C   C443      1.0  0.5615168581230832  0.9923349895084389  0.008590686645900014  1.0000
  C   C444      1.0  0.5365629075697516  0.9870987793327695  0.06676973749641468  1.0000
  H   H425      1.0  0.5161720763577414  0.9603214363894639  0.010609168446192863  1.0000
  H   H426      1.0  0.5072709595752377  0.9879806578996154  0.9828971741191613  1.0000
  H   H427      1.0  0.4892678051429967  0.9834075249751553  0.02621409351302506  1.0000
  H   H428      1.0  0.5421309081717798  0.03567486703494804  0.041499830790983294  1.0000
  H   H429      1.0  0.5229740968850065  0.03134741676465436  9.92577044929277e-05  1.0000
  H   H430      1.0  0.5043134482093173  0.02737147659835748  0.043145247272931675  1.0000
  H   H431      1.0  0.5794503067841263  0.0031550197364431654  0.02095998079448025  1.0000
  H   H432      1.0  0.559967858871687  0.9990899038466062  0.9798573931623352  1.0000
  H   H433      1.0  0.5683011534257475  0.9716081793272445  0.007891848130773926  1.0000
  H   H434      1.0  0.5534082574007507  0.9980695478012659  0.08109899154917222  1.0000
  H   H435      1.0  0.5428311229085645  0.9662798649932859  0.06826462460481886  1.0000
  H   H436      1.0  0.5157399276187618  0.9895805973505792  0.08265618690897014  1.0000
  N   N16       1.0  0.9027236267176999  0.13996033870157737  0.9981702549254069  1.0000
  C   C445      1.0  0.9079023689952809  0.15678847690375253  0.9661109906476824  1.0000
  C   C446      1.0  0.9001145651911756  0.15594671188859835  0.03106951388645207  1.0000
  C   C447      1.0  0.9274564325458684  0.12158294247488773  0.0014739749684840042  1.0000
  C   C448      1.0  0.8754797315167352  0.12555253015936446  0.993963635128323  1.0000
  H   H437      1.0  0.8903252249615053  0.17154398906506882  0.963606158550004  1.0000
  H   H438      1.0  0.908752818659954  0.14560105217058278  0.9405074840687949  1.0000
  H   H439      1.0  0.9286208893305469  0.16755990394653125  0.9680962428947958  1.0000
  H   H440      1.0  0.920179310684013  0.1673089306233422  0.03506132507673154  1.0000
  H   H441      1.0  0.8815108331412496  0.1699498858249805  0.029293690751514445  1.0000
  H   H442      1.0  0.8962218859315704  0.14396080851723103  0.055890868764991275  1.0000
  H   H443      1.0  0.9239412310088905  0.10793245813958341  0.02452795592282797  1.0000
  H   H444      1.0  0.9482441540995356  0.13175821554794145  0.00606618101803913  1.0000
  H   H445      1.0  0.9306442509153463  0.10986740397662365  0.9765915313026957  1.0000
  H   H446      1.0  0.8702669203170414  0.11358289272928236  0.018492694906712792  1.0000
  H   H447      1.0  0.8770113193455591  0.11228023011843144  0.9704893487175943  1.0000
  H   H448      1.0  0.856563235536788  0.1388132015959562  0.9894907747697886  1.0000
  N   N17       1.0  0.34760502494194573  0.5941042783648104  0.5548398700953157  1.0000
  C   C449      1.0  0.3484851366529506  0.5864719988720745  0.5935554588463229  1.0000
  C   C450      1.0  0.32218500938616257  0.6114394062832672  0.5490702561931992  1.0000
  C   C451      1.0  0.3450504618700076  0.5708900409815529  0.5323171479317352  1.0000
  C   C452      1.0  0.3747910408312807  0.6075340624347416  0.5444735478616752  1.0000
  H   H449      1.0  0.36705008357099445  0.5730042288673182  0.5986558227901626  1.0000
  H   H450      1.0  0.3282294817262144  0.5765659897715912  0.6027170118152485  1.0000
  H   H451      1.0  0.35125163538437093  0.6035115098418202  0.611217899982811  1.0000
  H   H452      1.0  0.3199917696957664  0.61669781837133  0.5199064274214533  1.0000
  H   H453      1.0  0.30146690488216543  0.6022345598252903  0.5581395615620994  1.0000
  H   H454      1.0  0.32400226550165484  0.6297218828196925  0.5644166742679  1.0000
  H   H455      1.0  0.34405691453036635  0.5759825010955587  0.5029403647181621  1.0000
  H   H456      1.0  0.3250530774857942  0.5599707127233456  0.5397625184655575  1.0000
  H   H457      1.0  0.36418991203264434  0.5575787233003232  0.5355174788436079  1.0000
  H   H458      1.0  0.3943407906865215  0.5949865398724257  0.5489125175182453  1.0000
  H   H459      1.0  0.3775711738597035  0.6252121669257766  0.5608272032418682  1.0000
  H   H460      1.0  0.3752012266621197  0.6133098170787327  0.5153547456145818  1.0000
  N   N18       1.0  0.6701756041247836  0.8801456160970823  0.3534568449835648  1.0000
  C   C453      1.0  0.6641381879523911  0.8859606149064635  0.3149762200126655  1.0000
  C   C454      1.0  0.6904054889724031  0.8577115728528142  0.35578786036935006  1.0000
  C   C455      1.0  0.6425647318637016  0.8741444510952511  0.37307817130392024  1.0000
  C   C456      1.0  0.6836329690109514  0.902781278687068  0.36997093122816366  1.0000
  H   H461      1.0  0.6534485090827918  0.8695359174059832  0.301762700322919  1.0000
  H   H462      1.0  0.6846110784586221  0.8900152003196982  0.29921724859432375  1.0000
  H   H463      1.0  0.6495259456757327  0.9032270980958192  0.31221878484148646  1.0000
  H   H464      1.0  0.694842150595289  0.8524163588663789  0.3845607636387178  1.0000
  H   H465      1.0  0.6813028574483861  0.8404242207917054  0.34280736550319096  1.0000
  H   H466      1.0  0.7117436759795956  0.8618712154606314  0.3419398510501646  1.0000
  H   H467      1.0  0.6462682359845493  0.8697847977780798  0.4023140669440032  1.0000
  H   H468      1.0  0.6317841635052122  0.8571556560065774  0.3614267714835285  1.0000
  H   H469      1.0  0.6268307622653949  0.8907315369915656  0.37194601235601515  1.0000
  H   H470      1.0  0.7046428582579359  0.9076985132124841  0.3559484092655511  1.0000
  H   H471      1.0  0.6880362251829453  0.8991425672013599  0.3991770517839508  1.0000
  H   H472      1.0  0.6691174033784246  0.9201736624857481  0.36827141624705595  1.0000
  N   N19       1.0  0.7906570535919758  0.41970798917498253  0.6356423953965842  1.0000
  C   C457      1.0  0.7818784729805027  0.41301531327966434  0.5986509503764831  1.0000
  C   C458      1.0  0.787881242512394  0.4479267528825147  0.6403282546512613  1.0000
  C   C459      1.0  0.821266809339001  0.4114139280975592  0.6408560666666214  1.0000
  C   C460      1.0  0.7716005824102891  0.40650973273288693  0.662659576061787  1.0000
  H   H473      1.0  0.7588091412482035  0.4187781821767712  0.5937396949033964  1.0000
  H   H474      1.0  0.7836615677234684  0.391809618408773  0.5941929582141375  1.0000
  H   H475      1.0  0.795800974147899  0.4226812056934837  0.5775510925758611  1.0000
  H   H476      1.0  0.7954811978963713  0.4538184919765704  0.6674417096260377  1.0000
  H   H477      1.0  0.8011252402771072  0.45844202734959005  0.619430185905902  1.0000
  H   H478      1.0  0.7648641895323689  0.45466566807642095  0.6377155952727641  1.0000
  H   H479      1.0  0.828670530757352  0.4159337021445239  0.6685997693020759  1.0000
  H   H480      1.0  0.8361533847143013  0.42133517005508336  0.6211543686946195  1.0000
  H   H481      1.0  0.8242556213651564  0.39024049026461327  0.6367426937269502  1.0000
  H   H482      1.0  0.777524442845408  0.41125035202258264  0.6908779120413238  1.0000
  H   H483      1.0  0.773200805342088  0.3852020388935981  0.6598157033568127  1.0000
  H   H484      1.0  0.7482445018944965  0.4119292339844103  0.6590106371998513  1.0000
  N   N20       1.0  0.9555009872121606  0.603828415540838  0.5431760411807007  1.0000
  C   C461      1.0  0.9627760716063033  0.5934476378910685  0.5794529610282326  1.0000
  C   C462      1.0  0.9258101685562092  0.6153294207824095  0.5443685557204271  1.0000
  C   C463      1.0  0.9566722759812265  0.5826264352886791  0.5166851963559793  1.0000
  C   C464      1.0  0.9767076938040651  0.6238317509739323  0.532259641851011  1.0000
  H   H485      1.0  0.948583560950982  0.5770085038173945  0.5872369381724657  1.0000
  H   H486      1.0  0.959909200973956  0.6083853245575938  0.6007952967520951  1.0000
  H   H487      1.0  0.9856703816824723  0.5860930971929587  0.5800774750837056  1.0000
  H   H488      1.0  0.9201710710076806  0.6244090799368469  0.5178747071759616  1.0000
  H   H489      1.0  0.9091760169190227  0.6004352325317207  0.5507182534204732  1.0000
  H   H490      1.0  0.9236330919807163  0.6305892748666747  0.5653451708306362  1.0000
  H   H491      1.0  0.9519298976668308  0.5896709621980712  0.4887434119534086  1.0000
  H   H492      1.0  0.9404763178863549  0.5674273064690528  0.5238095752509702  1.0000
  H   H493      1.0  0.9785199452190989  0.5729931357558701  0.5157290601528968  1.0000
  H   H494      1.0  0.9991931888425643  0.6156330151315386  0.5296095004525643  1.0000
  H   H495      1.0  0.9770506787304282  0.6395633943104315  0.5525597876337214  1.0000
  H   H496      1.0  0.9711385240434239  0.6329394314458221  0.5057343942521118  1.0000
  N   N21       1.0  0.12336102431650864  0.8194140829738329  0.20592622401711633  1.0000
  C   C465      1.0  0.09854885632939703  0.8174323023931724  0.23211693224774202  1.0000
  C   C466      1.0  0.15107869081407377  0.8180126648332093  0.2255983262138225  1.0000
  C   C467      1.0  0.12144381869124321  0.844275861879357  0.18589302525236706  1.0000
  C   C468      1.0  0.12245133389411576  0.7978862351388727  0.1800580989781699  1.0000
  H   H497      1.0  0.07730946495713531  0.8178569598759546  0.2180552561918412  1.0000
  H   H498      1.0  0.09820056115331742  0.8335923970647379  0.25171658160529564  1.0000
  H   H499      1.0  0.09968300860864754  0.7990814751949988  0.24819344772321442  1.0000
  H   H500      1.0  0.15258717242221143  0.8340232253271322  0.24529157405695362  1.0000
  H   H501      1.0  0.15329624520574844  0.7994670858146452  0.24101117632216434  1.0000
  H   H502      1.0  0.17027249643297346  0.8194456836248146  0.20655369020769093  1.0000
  H   H503      1.0  0.12096373809831196  0.8609893763698764  0.20456469594148982  1.0000
  H   H504      1.0  0.10148678083982166  0.8455780685023049  0.16927917968209846  1.0000
  H   H505      1.0  0.1405674327185444  0.8468718548321076  0.1671017970108227  1.0000
  H   H506      1.0  0.14116420133147178  0.7985559035009667  0.16032919856262776  1.0000
  H   H507      1.0  0.10208845470010262  0.7985667737115921  0.1641165634734231  1.0000
  H   H508      1.0  0.12339740636444828  0.7788185691979755  0.19430626233044102  1.0000
  N   N22       1.0  0.5124500058430788  0.4280233595222572  0.6041485789730865  1.0000
  C   C469      1.0  0.5046205264846741  0.4089155546774773  0.6327540235873695  1.0000
  C   C470      1.0  0.4887140054100344  0.4474935208622217  0.6008813808952019  1.0000
  C   C471      1.0  0.5168762511849848  0.4146886763623377  0.5691587594303125  1.0000
  C   C472      1.0  0.5396054393825175  0.4409916876227566  0.6138258090156755  1.0000
  H   H509      1.0  0.5222423287069736  0.39405839622023275  0.636053818860774  1.0000
  H   H510      1.0  0.4843254379174304  0.398623238104805  0.6262044628968669  1.0000
  H   H511      1.0  0.500696698171158  0.4182295883780762  0.6594894783907157  1.0000
  H   H512      1.0  0.49419672054847075  0.46263367379927367  0.580269115867049  1.0000
  H   H513      1.0  0.4681988533041879  0.4385106294335977  0.5924372951841824  1.0000
  H   H514      1.0  0.48381407555481815  0.45714959085737517  0.627188207074797  1.0000
  H   H515      1.0  0.522061544784888  0.42847806764895097  0.5466461425569102  1.0000
  H   H516      1.0  0.4970732670055042  0.4040162967345906  0.561669084891603  1.0000
  H   H517      1.0  0.5351268031596196  0.4003104789564915  0.5703720240979158  1.0000
  H   H518      1.0  0.5465573772474608  0.45509533887269815  0.5924359097362868  1.0000
  H   H519      1.0  0.557868944629831  0.42681892604829164  0.617143040520024  1.0000
  H   H520      1.0  0.5368645423595262  0.45147965811962026  0.6398723650320713  1.0000
  N   N23       1.0  0.6745809123735634  0.24144272676036108  0.4750229846667742  1.0000
  C   C473      1.0  0.6612855139487382  0.2254564987592187  0.5043177874808336  1.0000
  C   C474      1.0  0.6562128077415457  0.24073980753079924  0.44267109206254185  1.0000
  C   C475      1.0  0.7040299416599055  0.2312099020440833  0.4656290031398126  1.0000
  C   C476      1.0  0.6767315807963623  0.26834391653586737  0.487545681089417  1.0000
  H   H521      1.0  0.6743341573037195  0.22594582103651945  0.5293639776730781  1.0000
  H   H522      1.0  0.6597352049481107  0.20491307663884184  0.4960887287670184  1.0000
  H   H523      1.0  0.6388220990045168  0.2324593104692763  0.5114957249490288  1.0000
  H   H524      1.0  0.6658307580962961  0.25209698433690386  0.4196825908191222  1.0000
  H   H525      1.0  0.6534291558715842  0.22057717943258084  0.4332912036086599  1.0000
  H   H526      1.0  0.6341367725051029  0.2490033451574497  0.4486014891235829  1.0000
  H   H527      1.0  0.7139980006201997  0.24186565025628828  0.4422095767582279  1.0000
  H   H528      1.0  0.7034330212247852  0.21039703224026027  0.45837678335054216  1.0000
  H   H529      1.0  0.7189565855985545  0.23300206887189404  0.48871912501481585  1.0000
  H   H530      1.0  0.6866703706074492  0.28104024964232094  0.4662303862039927  1.0000
  H   H531      1.0  0.6903198286347133  0.2694427814835394  0.5121601823008964  1.0000
  H   H532      1.0  0.65483430151799  0.27664283994365296  0.49485645115669297  1.0000
  N   N24       1.0  0.6661608854369534  0.30319787689796907  0.7511610958584168  1.0000
  C   C477      1.0  0.688088306193712  0.32328711753949585  0.743593180278512  1.0000
  C   C478      1.0  0.6546001656906798  0.30583692708206595  0.7887299946548816  1.0000
  C   C479      1.0  0.6799301543629528  0.27739324583098707  0.7469583335400776  1.0000
  C   C480      1.0  0.6420401686031346  0.30619048982526964  0.7254412721517947  1.0000
  H   H533      1.0  0.6974566073969295  0.3217346114925396  0.7155277298557535  1.0000
  H   H534      1.0  0.7066765594664437  0.3214298665082391  0.7624197261182741  1.0000
  H   H535      1.0  0.6784306897803394  0.3430145897126611  0.7464922773245803  1.0000
  H   H536      1.0  0.6385443125228624  0.29057494252857025  0.7955073415575661  1.0000
  H   H537      1.0  0.6722468336080591  0.304116894816813  0.8088755251770285  1.0000
  H   H538      1.0  0.6430874967675804  0.3247068681676867  0.7927397310972648  1.0000
  H   H539      1.0  0.6638498723248846  0.26178527009467023  0.7518154035035421  1.0000
  H   H540      1.0  0.6977549243930661  0.27417867515647415  0.7666398866682688  1.0000
  H   H541      1.0  0.6896582675496646  0.2749703342743318  0.7192636321008159  1.0000
  H   H542      1.0  0.6500476948948717  0.30490165592231805  0.6967569577364647  1.0000
  H   H543      1.0  0.6305250388514475  0.3251481406313093  0.7286497086101759  1.0000
  H   H544      1.0  0.6253520294956344  0.2910295211898742  0.7300407892850493  1.0000
  N   N25       1.0  0.6762316633567479  0.03454401716399147  0.8260621083248236  1.0000
  C   C481      1.0  0.6727745370364733  0.06068037267723958  0.8100195821602827  1.0000
  C   C482      1.0  0.6948138617432751  0.018549604751464388  0.8016993874403772  1.0000
  C   C483      1.0  0.6474255576780069  0.022510084173397837  0.8306528340416907  1.0000
  C   C484      1.0  0.6899103893836351  0.03629107741943027  0.8618285483977769  1.0000
  H   H545      1.0  0.6627256205736833  0.05992918840119965  0.7828495751202598  1.0000
  H   H546      1.0  0.6942303223233354  0.07032546071191303  0.8065127790302815  1.0000
  H   H547      1.0  0.6582860810681789  0.0731470520926174  0.8272681133174992  1.0000
  H   H548      1.0  0.7164451528577062  0.027460907046122474  0.7967684640564882  1.0000
  H   H549      1.0  0.6985544327156651  0.9989057511412566  0.8134129927334608  1.0000
  H   H550      1.0  0.6847659161036025  0.016136816867956316  0.7748075318269221  1.0000
  H   H551      1.0  0.6493511034836085  0.00292593631590643  0.8430152107669264  1.0000
  H   H552      1.0  0.6366668063230949  0.020421529220462364  0.8041406080907666  1.0000
  H   H553      1.0  0.6325898823430771  0.03416171590659256  0.8485211180579412  1.0000
  H   H554      1.0  0.6764430409795983  0.04831850342010435  0.8808044378602639  1.0000
  H   H555      1.0  0.7119913132507993  0.044854143256061185  0.8593188894398436  1.0000
  H   H556      1.0  0.6924925316081628  0.016856919935006376  0.8747416982259137  1.0000
  N   N26       1.0  0.948419917320746  0.10477540932580692  0.2001788524182096  1.0000
  C   C485      1.0  0.9646865269400697  0.12856703033106293  0.2070835319184225  1.0000
  C   C486      1.0  0.9650590789849924  0.0886256931824408  0.17387848980047238  1.0000
  C   C487      1.0  0.9196868308065729  0.1117082021197937  0.1852413711564882  1.0000
  C   C488      1.0  0.9441485188195424  0.09021040235761009  0.23460321443437981  1.0000
  H   H557      1.0  0.9680708148877435  0.14022864194819135  0.1818209134615513  1.0000
  H   H558      1.0  0.9865735175576804  0.12413436064880481  0.2181288960147951  1.0000
  H   H559      1.0  0.952765180859476  0.1410965154606922  0.22699581634022764  1.0000
  H   H560      1.0  0.9532252850455265  0.07062077106265052  0.16787866659181575  1.0000
  H   H561      1.0  0.9688419079881916  0.09906657290274189  0.14766764496760273  1.0000
  H   H562      1.0  0.9867914051933611  0.08286974733300245  0.18431829460071786  1.0000
  H   H563      1.0  0.9220142947494993  0.12278762913462773  0.15932915701284947  1.0000
  H   H564      1.0  0.9063916519577924  0.12357861397570966  0.20465881977837838  1.0000
  H   H565      1.0  0.9068289576265102  0.09430085160632048  0.17955476246020732  1.0000
  H   H566      1.0  0.9653389392759559  0.0847270099666495  0.24678427612813192  1.0000
  H   H567      1.0  0.9319013841651009  0.0721538035213718  0.23038064251341725  1.0000
  H   H568      1.0  0.9314669884611427  0.10182554970811046  0.25493017402203877  1.0000
  N   N27       1.0  0.9338548158824035  0.40552828003974173  0.48362218779923405  1.0000
  C   C489      1.0  0.9613946717101215  0.4038243678099284  0.4621141537907858  1.0000
  C   C490      1.0  0.9390801270075805  0.4189524260461075  0.5179411410750036  1.0000
  C   C491      1.0  0.9231725605114051  0.3792493427602338  0.49168761708414066  1.0000
  C   C492      1.0  0.9118419828609599  0.42017924400946705  0.4627437024348397  1.0000
  H   H569      1.0  0.978669294849039  0.393209500603144  0.47727698584651357  1.0000
  H   H570      1.0  0.9699864247306725  0.42336082398129393  0.45544803699278097  1.0000
  H   H571      1.0  0.9585457590977368  0.39367553507515335  0.43606968675578306  1.0000
  H   H572      1.0  0.9187819812590301  0.4207170850437018  0.5348299233302449  1.0000
  H   H573      1.0  0.9556505309928058  0.40855643224996735  0.5344693786536113  1.0000
  H   H574      1.0  0.947128461655236  0.4388379338390691  0.5127730109616924  1.0000
  H   H575      1.0  0.9387760770253942  0.368004603070343  0.508631575979435  1.0000
  H   H576      1.0  0.9198844456592881  0.36826308609751096  0.46641106480948386  1.0000
  H   H577      1.0  0.9018766820520132  0.379873251081874  0.5067665696120637  1.0000
  H   H578      1.0  0.9074981450036377  0.4107419168683048  0.43652465247097283  1.0000
  H   H579      1.0  0.9190847522463824  0.4402293880587171  0.45667940739336643  1.0000
  H   H580      1.0  0.8907044191946213  0.4217052824074526  0.4781411822425696  1.0000
  N   N28       1.0  0.09995699284693371  0.7213007727896547  0.7827019182604312  1.0000
  C   C493      1.0  0.12974449322786796  0.7318439011847668  0.7810630010979772  1.0000
  C   C494      1.0  0.10007784492658843  0.6969329222601659  0.8040237647598047  1.0000
  C   C495      1.0  0.09023481127959541  0.7162437995925072  0.7455375375883092  1.0000
  C   C496      1.0  0.07978961215803303  0.7401545947603237  0.8002566978521686  1.0000
  H   H581      1.0  0.1375292005406239  0.7362771008862297  0.8086636784872083  1.0000
  H   H582      1.0  0.13071935801553702  0.7500013381249344  0.764654284277773  1.0000
  H   H583      1.0  0.1457341519322246  0.7179221235392689  0.768634728491546  1.0000
  H   H584      1.0  0.0777807229456251  0.6888421658266471  0.8069459763549743  1.0000
  H   H585      1.0  0.11454189145551562  0.6820594929309813  0.7910815261022801  1.0000
  H   H586      1.0  0.10817392120373824  0.6999591048128329  0.831820186344046  1.0000
  H   H587      1.0  0.06803089805697615  0.7078613548187871  0.7458263704486848  1.0000
  H   H588      1.0  0.10522474184865338  0.7024490290212501  0.7312077662470814  1.0000
  H   H589      1.0  0.08917268064950923  0.7342953286341153  0.7288735027159201  1.0000
  H   H590      1.0  0.05714718583297528  0.7327370928919803  0.8023093791363041  1.0000
  H   H591      1.0  0.07892219431533665  0.7586925911342459  0.7847007644135963  1.0000
  H   H592      1.0  0.08663578254065207  0.7445742575048272  0.8282461832483718  1.0000
  N   N29       1.0  0.3057050984115362  0.7256909294228909  0.16608541574731717  1.0000
  C   C497      1.0  0.33166107393003025  0.7226229276750372  0.18883544684253611  1.0000
  C   C498      1.0  0.31451446334497696  0.7232264468856082  0.1274208564858243  1.0000
  C   C499      1.0  0.2921480596062532  0.7514235605115523  0.17217241973875524  1.0000
  C   C500      1.0  0.28449266356842756  0.7054236985841323  0.1758865594030112  1.0000
  H   H593      1.0  0.32579074794892143  0.7244355157268646  0.21813192925679303  1.0000
  H   H594      1.0  0.34816302332409343  0.737614489814282  0.1823248725887463  1.0000
  H   H595      1.0  0.34236298330205595  0.7033563681928656  0.1852822044352802  1.0000
  H   H596      1.0  0.2952772232567473  0.7244344714742252  0.10958803020953785  1.0000
  H   H597      1.0  0.3294845472225017  0.7389216966228316  0.11853336546908802  1.0000
  H   H598      1.0  0.3257496671231548  0.7044082891990986  0.12210078481829734  1.0000
  H   H599      1.0  0.3073087610048891  0.7671743837081828  0.16414259860208893  1.0000
  H   H600      1.0  0.2859087980263114  0.7542350791912201  0.20128189134623958  1.0000
  H   H601      1.0  0.2721847314423639  0.7542318471554404  0.15587326745999736  1.0000
  H   H602      1.0  0.26469087543309666  0.7070310887780075  0.1590850982111449  1.0000
  H   H603      1.0  0.2772477589109589  0.7066747885112062  0.20484048057563062  1.0000
  H   H604      1.0  0.2940755486333639  0.6857243538784032  0.17195947579143248  1.0000
  N   N30       1.0  0.32582165854246736  0.7437545883853581  0.8165324216894909  1.0000
  C   C501      1.0  0.3005241098571693  0.748672561866901  0.7931580667528987  1.0000
  C   C502      1.0  0.31850743652029484  0.7520747505038842  0.8538948470598752  1.0000
  C   C503      1.0  0.35106952546976417  0.7583593902361905  0.8020902324473274  1.0000
  C   C504      1.0  0.33319105658953435  0.715870586541491  0.8169707720802392  1.0000
  H   H605      1.0  0.2938756028601853  0.7694191685113305  0.7929565368230317  1.0000
  H   H606      1.0  0.2812143694693099  0.7374582042522404  0.8025179269940721  1.0000
  H   H607      1.0  0.3055317539287723  0.7431411118015298  0.7645790290677921  1.0000
  H   H608      1.0  0.33729338102392803  0.7494257440883529  0.8721764800631704  1.0000
  H   H609      1.0  0.3116931066208939  0.7727982854613749  0.8547081570119627  1.0000
  H   H610      1.0  0.3001496112511973  0.7407305270431608  0.8658376772569926  1.0000
  H   H611      1.0  0.35699277033749455  0.7524201412195621  0.7738249312480245  1.0000
  H   H612      1.0  0.37063886581717587  0.7550307013963349  0.8189000457568747  1.0000
  H   H613      1.0  0.34627846891166864  0.779495410384389  0.8014426105434985  1.0000
  H   H614      1.0  0.3514266170627765  0.7113242208224628  0.8354674508356392  1.0000
  H   H615      1.0  0.340083024092429  0.709116634596609  0.7895102316900617  1.0000
  H   H616      1.0  0.3141696095117362  0.704121173991284  0.8260505041314905  1.0000
  N   N31       1.0  0.952734851787991  0.8837216194148515  0.2167390735410211  1.0000
  C   C505      1.0  0.98276289970155  0.8729139181559508  0.2154903899871049  1.0000
  C   C506      1.0  0.9475435561155435  0.8990670419645052  0.18335434397559644  1.0000
  C   C507      1.0  0.9489811979348324  0.9005212628455088  0.2486885502605556  1.0000
  C   C508      1.0  0.9316399820348285  0.8624529170166217  0.21944950668230281  1.0000
  H   H617      1.0  0.9874754419021231  0.8611219035724568  0.24017301548307085  1.0000
  H   H618      1.0  0.9992214715341383  0.8884455967048233  0.21280256515413862  1.0000
  H   H619      1.0  0.986300638183216  0.8601058200063181  0.19178849179259308  1.0000
  H   H620      1.0  0.9249651532567387  0.9070912399654603  0.18304360194557132  1.0000
  H   H621      1.0  0.9627321678543773  0.9155794051585601  0.18074425213999415  1.0000
  H   H622      1.0  0.9508209279845428  0.8872173072465938  0.15859482885914422  1.0000
  H   H623      1.0  0.9264968020756508  0.9089008705633171  0.25053777739061667  1.0000
  H   H624      1.0  0.9643171431570329  0.9169599929866962  0.2472686060429384  1.0000
  H   H625      1.0  0.952789276583366  0.8896143323542552  0.274384840180163  1.0000
  H   H626      1.0  0.9350743131187584  0.8503218869308518  0.24418391204340228  1.0000
  H   H627      1.0  0.9338347906179439  0.8494003386854337  0.19575063005442406  1.0000
  H   H628      1.0  0.9087366946940889  0.8700042082109957  0.2205927685591667  1.0000
  N   N32       1.0  0.4051345009748178  0.1750256685083013  0.23516822095519174  1.0000
  C   C509      1.0  0.39128286661823114  0.18879454241084462  0.26611710018842816  1.0000
  C   C510      1.0  0.4371803022258377  0.17523210785780444  0.23849205730703815  1.0000
  C   C511      1.0  0.3970169412343835  0.18812250938295963  0.2009049789982118  1.0000
  C   C512      1.0  0.3950712489456716  0.14804499955409345  0.2352921073901204  1.0000
  H   H629      1.0  0.3670842209967147  0.18874013852936292  0.2647719011406462  1.0000
  H   H630      1.0  0.398089315349014  0.20929410378863494  0.2666208090846509  1.0000
  H   H631      1.0  0.39756154607241345  0.17992916960072391  0.29256386237049425  1.0000
  H   H632      1.0  0.44834064662578754  0.16483499145465327  0.21568295376136093  1.0000
  H   H633      1.0  0.4454600660230901  0.19531259694441327  0.23826502191316123  1.0000
  H   H634      1.0  0.4440421844839002  0.1660019458454544  0.2644063149445621  1.0000
  H   H635      1.0  0.4072616845914737  0.1785503855037748  0.176838952350997  1.0000
  H   H636      1.0  0.4041120661736076  0.20860561472058164  0.20018203974353233  1.0000
  H   H637      1.0  0.37301630247576983  0.1883518495417501  0.1971295885081341  1.0000
  H   H638      1.0  0.37108311775745934  0.14711572004627738  0.23177261124041415  1.0000
  H   H639      1.0  0.4003100571409057  0.13786360113593657  0.26117245477575435  1.0000
  H   H640      1.0  0.4055953020281595  0.1367823572099328  0.2129484603179579  1.0000
  N   N33       1.0  0.36264973961937375  0.5707272150304223  0.360813002570624  1.0000
  C   C513      1.0  0.35146859187130924  0.5874446784781222  0.33133801008905134  1.0000
  C   C514      1.0  0.36713541013437095  0.5442388531985791  0.3471060689804374  1.0000
  C   C515      1.0  0.34131989007621166  0.5705258561278524  0.39153134020206537  1.0000
  C   C516      1.0  0.3907372278228146  0.5806994570816871  0.3730558530840148  1.0000
  H   H641      1.0  0.3473876404783426  0.6075593646316542  0.3404647565515563  1.0000
  H   H642      1.0  0.33063158466895953  0.5801383105984834  0.32086198285736495  1.0000
  H   H643      1.0  0.367317575697129  0.5883282997101467  0.308091243361304  1.0000
  H   H644      1.0  0.346258174397595  0.5358597384589944  0.33847697499587426  1.0000
  H   H645      1.0  0.38219427011439094  0.5439336267361476  0.32292478652747436  1.0000
  H   H646      1.0  0.3765658319396089  0.5311841805326145  0.3680581070519811  1.0000
  H   H647      1.0  0.32012534620172545  0.5623625807298255  0.38350264717566523  1.0000
  H   H648      1.0  0.3369156043295548  0.5904212301550856  0.40167118048390943  1.0000
  H   H649      1.0  0.34941785907308637  0.5586574567692767  0.41466853180343904  1.0000
  H   H650      1.0  0.39979890570104426  0.5684881923427483  0.3953094084438316  1.0000
  H   H651      1.0  0.3882204427114418  0.6007084484686063  0.38343863075088874  1.0000
  H   H652      1.0  0.407262311087641  0.5812167408357757  0.3504480990858092  1.0000
  N   N34       1.0  0.904513428141223  0.03443782334688694  0.9006718346485082  1.0000
  C   C517      1.0  0.9262040329245964  0.03999060714026071  0.8714254125252138  1.0000
  C   C518      1.0  0.8770779451147112  0.026154780006529602  0.8844403775516837  1.0000
  C   C519      1.0  0.898893236939147  0.0579996089778525  0.9221438295381669  1.0000
  C   C520      1.0  0.9158810483227604  0.01364038645672028  0.9245739783335292  1.0000
  H   H653      1.0  0.9472618507472195  0.04618820182496642  0.8826448584683237  1.0000
  H   H654      1.0  0.9183319737987469  0.055726607748409096  0.8530333052615104  1.0000
  H   H655      1.0  0.9307187464651198  0.022652556727089657  0.8545057697893172  1.0000
  H   H656      1.0  0.8684922711152553  0.04090928541165218  0.8650457992231555  1.0000
  H   H657      1.0  0.8800238323278907  0.007705164897239271  0.8695100386935172  1.0000
  H   H658      1.0  0.8598066428137219  0.022988276846435562  0.9055538855715558  1.0000
  H   H659      1.0  0.9190168439329512  0.06461299067541248  0.9351988507955384  1.0000
  H   H660      1.0  0.8822369258274722  0.05463164536761078  0.9441322113798597  1.0000
  H   H661      1.0  0.890599100648042  0.0741739668885837  0.9048560083645729  1.0000
  H   H662      1.0  0.9002717061770588  0.009219999376008038  0.947233679614743  1.0000
  H   H663      1.0  0.93674921974336  0.019069130410645622  0.9370474829570463  1.0000
  H   H664      1.0  0.919824095472702  0.9953759157746537  0.909507229538224  1.0000
  N   N35       1.0  0.9532639511631806  0.533688843612306  0.9799243110734461  1.0000
  C   C521      1.0  0.9223693325997769  0.5262183816127025  0.9780624812717684  1.0000
  C   C522      1.0  0.9697394803471118  0.5230678516823356  0.9484043299912571  1.0000
  C   C523      1.0  0.965724145291119  0.5233697920461613  0.013885669026926228  1.0000
  C   C524      1.0  0.9552271778067493  0.5621231164212153  0.9792694297565432  1.0000
  H   H665      1.0  0.909240687154804  0.5338698684354275  0.0014297001975756007  1.0000
  H   H666      1.0  0.9201472012757131  0.5048088226076023  0.9783637594584046  1.0000
  H   H667      1.0  0.9123291261203794  0.5337061708236589  0.9527723642309756  1.0000
  H   H668      1.0  0.9677422018679578  0.5017482082974888  0.9473417774214695  1.0000
  H   H669      1.0  0.9615373059423272  0.5310823367941835  0.9223689538566117  1.0000
  H   H670      1.0  0.9933536989538315  0.5274783596235794  0.9494525077318361  1.0000
  H   H671      1.0  0.9892021874849183  0.5281229746115659  0.015853090992682617  1.0000
  H   H672      1.0  0.9641436553754449  0.5019742325488581  0.015550651201678978  1.0000
  H   H673      1.0  0.9540292265140712  0.5312558022918639  0.03821177579532953  1.0000
  H   H674      1.0  0.9460961117501112  0.5705362457100885  0.9539487254972767  1.0000
  H   H675      1.0  0.9782647424110158  0.568402455290199  0.9806085792195471  1.0000
  H   H676      1.0  0.9428527971761251  0.570954721203124  0.0024459815772113203  1.0000
  N   N36       1.0  0.3099082653550099  0.5239439397853409  0.7257433236724011  1.0000
  C   C525      1.0  0.33252224492492743  0.5052698759590358  0.737721151203447  1.0000
  C   C526      1.0  0.2814062565609949  0.5166334558369792  0.7418600967588889  1.0000
  C   C527      1.0  0.30831900024654696  0.5236636007076713  0.6857596904841998  1.0000
  C   C528      1.0  0.3172435758143799  0.5501559420548685  0.7376663388600091  1.0000
  H   H677      1.0  0.3544071369012611  0.5102391555291507  0.726152507400352  1.0000
  H   H678      1.0  0.3276394259492317  0.4853124325579062  0.7289918967927487  1.0000
  H   H679      1.0  0.33413821864145876  0.5048826465590901  0.76780237039718  1.0000
  H   H680      1.0  0.2636450350905775  0.5298585248779827  0.7325788278036567  1.0000
  H   H681      1.0  0.2755496545870078  0.49669170076452746  0.7344208802864817  1.0000
  H   H682      1.0  0.28150407393454335  0.5175196290053032  0.7719879498638975  1.0000
  H   H683      1.0  0.2911069313278227  0.5371858298814057  0.6758516653988488  1.0000
  H   H684      1.0  0.30319789489472093  0.5040866090784276  0.6759131865806579  1.0000
  H   H685      1.0  0.3293804607015797  0.5293628601744444  0.6727093002623821  1.0000
  H   H686      1.0  0.3003564450641533  0.5646413732879454  0.7294581747742186  1.0000
  H   H687      1.0  0.33866723601507065  0.5563655886900102  0.7259176533236287  1.0000
  H   H688      1.0  0.31848950008036175  0.5510486627421587  0.7677642286367935  1.0000
  N   N37       1.0  0.9999138087991547  0.2700335312685559  0.11430800200068894  1.0000
  C   C529      1.0  0.9736812735019658  0.26036549484146704  0.09665713048668967  1.0000
  C   C530      1.0  0.004106062919750686  0.29744020532235543  0.10414567205075209  1.0000
  C   C531      1.0  0.025750334206198877  0.25466848172075024  0.1023563142475783  1.0000
  C   C532      1.0  0.9961735369112276  0.26769520480148784  0.15415827272827265  1.0000
  H   H689      1.0  0.9698833875121942  0.23970477783283975  0.10377140501021898  1.0000
  H   H690      1.0  0.9757600894529375  0.2618385666349438  0.06655983469028137  1.0000
  H   H691      1.0  0.953742247238397  0.2714879132851178  0.1051947079494513  1.0000
  H   H692      1.0  0.0237180783697708  0.30528377471350515  0.11703981532993037  1.0000
  H   H693      1.0  0.007222086819597351  0.3000032385785056  0.07428517718181249  1.0000
  H   H694      1.0  0.9850110294050205  0.3096287951397606  0.11276738247085454  1.0000
  H   H695      1.0  0.04577733258794758  0.26098937508789527  0.11596874373390968  1.0000
  H   H696      1.0  0.029878822483236922  0.2566318424701414  0.07258162122644984  1.0000
  H   H697      1.0  0.023013214520844594  0.2337704052628333  0.10879812681216516  1.0000
  H   H698      1.0  0.993589867419463  0.24719376811218335  0.1629345435507263  1.0000
  H   H699      1.0  0.9765216283450987  0.27857405393645013  0.1640230699159228  1.0000
  H   H700      1.0  0.015249052527291473  0.27540517947142373  0.16837248145195297  1.0000
  N   N38       1.0  0.4976194568417513  0.05320264981034928  0.26085492638523883  1.0000
  C   C533      1.0  0.517515528560571  0.06590128901509162  0.28579871808253116  1.0000
  C   C534      1.0  0.5116346273976473  0.05156739973292357  0.22441060845691255  1.0000
  C   C535      1.0  0.4701174379684117  0.06838083598530731  0.2585929817755051  1.0000
  C   C536      1.0  0.4912765932628169  0.026914722560342774  0.2746658136170394  1.0000
  H   H701      1.0  0.5386597666004652  0.055160701055875894  0.2876620498074835  1.0000
  H   H702      1.0  0.5079148538552364  0.06685224137716972  0.31375322424493807  1.0000
  H   H703      1.0  0.5222002888323967  0.08604511568778994  0.27688599801567115  1.0000
  H   H704      1.0  0.4972394130520691  0.0420443469013827  0.20490614340701854  1.0000
  H   H705      1.0  0.5168198031848954  0.07101807395260296  0.213106682820204  1.0000
  H   H706      1.0  0.5322788118823788  0.03998495487497733  0.22501002851030805  1.0000
  H   H707      1.0  0.4544379246526253  0.059174168851718445  0.24030019912727202  1.0000
  H   H708      1.0  0.47402159079269984  0.08822402250968264  0.24783251140942628  1.0000
  H   H709      1.0  0.4591858186506413  0.0702872211525074  0.2858069238798558  1.0000
  H   H710      1.0  0.4788634545325828  0.02742109441223506  0.30089984506509077  1.0000
  H   H711      1.0  0.5116434132696525  0.015485431296838437  0.27911444286784814  1.0000
  H   H712      1.0  0.4780389216855142  0.016003512579372936  0.25540204996597193  1.0000
  N   N39       1.0  0.3554375825042718  0.7457248661959345  0.46660115546347136  1.0000
  C   C537      1.0  0.3424742642946878  0.7625108855158655  0.43832780203744026  1.0000
  C   C538      1.0  0.38110353486565096  0.7583421276878158  0.4816337528265251  1.0000
  C   C539      1.0  0.3646188141115222  0.7208413501983458  0.4504593637169038  1.0000
  C   C540      1.0  0.333550639007811  0.7411129097274906  0.4959870277888067  1.0000
  H   H713      1.0  0.33564451192790634  0.7816008395138752  0.44946587709276903  1.0000
  H   H714      1.0  0.3228456053815603  0.7535625520892523  0.4267767874683321  1.0000
  H   H715      1.0  0.35822100850996946  0.7660415080092272  0.41539060434320346  1.0000
  H   H716      1.0  0.3919299904462185  0.7456927682646779  0.5021211844637582  1.0000
  H   H717      1.0  0.3977314720664731  0.7629162965081403  0.46013563336476754  1.0000
  H   H718      1.0  0.37496855035805904  0.776652766325614  0.4956159407915447  1.0000
  H   H719      1.0  0.3743969319163089  0.7076328205491579  0.4710629331150012  1.0000
  H   H720      1.0  0.3811198008753075  0.7235078575361004  0.42814045087450087  1.0000
  H   H721      1.0  0.3458076281087069  0.7107969837206277  0.43887600718864017  1.0000
  H   H722      1.0  0.3139914444359142  0.731276544028291  0.4858132372991213  1.0000
  H   H723      1.0  0.3261273346797019  0.759455007278922  0.5088846936271221  1.0000
  H   H724      1.0  0.34257427000705115  0.7286009162664115  0.5178612171910371  1.0000
  N   N40       1.0  0.6353658691555093  0.8927524206480396  0.7286244923324401  1.0000
  C   C541      1.0  0.6370991168151121  0.8970285234541714  0.6888957911202332  1.0000
  C   C542      1.0  0.6611173456699735  0.9040240722311117  0.7455082582577602  1.0000
  C   C543      1.0  0.6347784850630627  0.8647056416615135  0.7364851345238288  1.0000
  C   C544      1.0  0.6084745547944146  0.9051776859714266  0.7434840053179304  1.0000
  H   H725      1.0  0.6181137417154714  0.8885260460153879  0.6753691052642425  1.0000
  H   H726      1.0  0.6572100378523206  0.8879996049260673  0.6767548839875536  1.0000
  H   H727      1.0  0.6371200395945967  0.917984727901434  0.6818032855635953  1.0000
  H   H728      1.0  0.660685046578992  0.9010499477094023  0.7755152829611339  1.0000
  H   H729      1.0  0.6818162529214963  0.8951615945217816  0.7347668655527971  1.0000
  H   H730      1.0  0.6622744781233139  0.9252106746619283  0.7403287816256885  1.0000
  H   H731      1.0  0.6329924362553381  0.8606309593551699  0.7661598195949593  1.0000
  H   H732      1.0  0.6549858875423182  0.8548638961512874  0.7260491731614039  1.0000
  H   H733      1.0  0.6160048413464183  0.8553908807722207  0.7234606590150843  1.0000
  H   H734      1.0  0.6081585264462299  0.9263428807475488  0.737850289781285  1.0000
  H   H735      1.0  0.6063401751869576  0.9023368683195642  0.773416178644982  1.0000
  H   H736      1.0  0.5886348686076276  0.8972118023750286  0.7311656487350551  1.0000
  N   N41       1.0  0.5577820951225825  0.21160974173305955  0.641822690730589  1.0000
  C   C545      1.0  0.570416058144806  0.19534195191111164  0.612584901438498  1.0000
  C   C546      1.0  0.570776468095823  0.23753122801302615  0.6395468154770046  1.0000
  C   C547      1.0  0.5640205333305748  0.19974888825810444  0.6775544478196258  1.0000
  C   C548      1.0  0.5258609353169875  0.21385046059796217  0.6376596041987883  1.0000
  H   H737      1.0  0.5661044640885272  0.20392167470869207  0.5853366421775971  1.0000
  H   H738      1.0  0.5609616533121503  0.17568206941368586  0.6133131936323629  1.0000
  H   H739      1.0  0.5944693929255049  0.19312304576256145  0.6149262620041323  1.0000
  H   H740      1.0  0.5629317194450961  0.2498406230993298  0.6623590350971841  1.0000
  H   H741      1.0  0.594966996532358  0.23652429200372133  0.6406876175574348  1.0000
  H   H742      1.0  0.564866525563402  0.2478242227692937  0.6140027900908822  1.0000
  H   H743      1.0  0.5878562737880723  0.19783119385837672  0.6819912211028688  1.0000
  H   H744      1.0  0.554447902434081  0.18019873806211112  0.6804993974147489  1.0000
  H   H745      1.0  0.5545659153953876  0.21159583339000101  0.7001526587564284  1.0000
  H   H746      1.0  0.5201794101824956  0.22402289359094757  0.6118918071644668  1.0000
  H   H747      1.0  0.5154644992564439  0.225083839978342  0.6601528110980687  1.0000
  H   H748      1.0  0.5154403816034099  0.19461464709952656  0.6378413401441945  1.0000
  N   N42       1.0  0.506873727440143  0.7495251702525596  0.6512585650293752  1.0000
  C   C549      1.0  0.4977999245174764  0.7231146686414325  0.6615926784827117  1.0000
  C   C550      1.0  0.5389102924682228  0.7499768968894429  0.6456870601590085  1.0000
  C   C551      1.0  0.49817996660799685  0.7675621477158514  0.680490005864504  1.0000
  C   C552      1.0  0.4924923279633004  0.7574140719408462  0.6173031946940739  1.0000
  H   H749      1.0  0.47370436066160176  0.7221600701863599  0.6659968054201092  1.0000
  H   H750      1.0  0.508171829433474  0.7164418887012498  0.6871181048449048  1.0000
  H   H751      1.0  0.5038525445355414  0.7090038310785317  0.6400261244026723  1.0000
  H   H752      1.0  0.5504602521053665  0.744157821379047  0.6708035748513463  1.0000
  H   H753      1.0  0.5463233160294896  0.7367407797319853  0.6236596244536406  1.0000
  H   H754      1.0  0.5465446796800667  0.7696664749015603  0.6381311976272872  1.0000
  H   H755      1.0  0.5088538935961304  0.7624591278954118  0.706452105290527  1.0000
  H   H756      1.0  0.47418261811091283  0.7676514895844119  0.6856368767709424  1.0000
  H   H757      1.0  0.5042875697925633  0.7877625210279535  0.6734109592647165  1.0000
  H   H758      1.0  0.4683300818355787  0.756558841584861  0.6203593811782783  1.0000
  H   H759      1.0  0.4990912407119775  0.7446903553027319  0.5943422568369439  1.0000
  H   H760      1.0  0.4978954556738855  0.7775751953738554  0.6092000948268165  1.0000
  N   N43       1.0  0.5380178718293943  0.945954546842142  0.5346331710429428  1.0000
  C   C553      1.0  0.5498366100224535  0.9708747050809089  0.5215479906141994  1.0000
  C   C554      1.0  0.5621364220375239  0.9290747989116762  0.5471374491845438  1.0000
  C   C555      1.0  0.523015495222085  0.9333333783993687  0.5047244597723352  1.0000
  C   C556      1.0  0.517080352912707  0.9504672250111231  0.5650837626307602  1.0000
  H   H761      1.0  0.5322799632241879  0.9840336722116301  0.511446638025031  1.0000
  H   H762      1.0  0.5657804468947497  0.9681510192452595  0.49857669200975574  1.0000
  H   H763      1.0  0.5612105800491578  0.9810553739619066  0.5433661963197521  1.0000
  H   H764      1.0  0.5787042049955001  0.9258002063590507  0.5250606236819253  1.0000
  H   H765      1.0  0.5734096663107778  0.9374965853665211  0.5705468765255433  1.0000
  H   H766      1.0  0.5540513917115085  0.9097935455785531  0.556036176018554  1.0000
  H   H767      1.0  0.5144492743523295  0.9141045507566475  0.5132806454008892  1.0000
  H   H768      1.0  0.5380986940671276  0.9300497823833971  0.48112398517464955  1.0000
  H   H769      1.0  0.5043886153861694  0.9453113186201801  0.494893858733581  1.0000
  H   H770      1.0  0.5279658715732423  0.9588518769458894  0.5888284566163093  1.0000
  H   H771      1.0  0.5069611443011988  0.9321052883952661  0.5745039219002287  1.0000
  H   H772      1.0  0.499110734997189  0.9638679248881054  0.5569858814236182  1.0000
  N   N44       1.0  0.8790760482332571  0.5325938404095796  0.7578613541531682  1.0000
  C   C557      1.0  0.8637493040870322  0.5169225913131362  0.7859580152915804  1.0000
  C   C558      1.0  0.8595589196161053  0.5376124383315336  0.7271133665533374  1.0000
  C   C559      1.0  0.9053430940864732  0.5182917803693655  0.7449043463675158  1.0000
  C   C560      1.0  0.8877195474708465  0.5574226761389637  0.7734454198796322  1.0000
  H   H773      1.0  0.8780642444238369  0.5124872046490855  0.8092858425524924  1.0000
  H   H774      1.0  0.8568505005121808  0.49808946501757384  0.7749253731147052  1.0000
  H   H775      1.0  0.8438346122732989  0.5270343281459089  0.7966583465783527  1.0000
  H   H776      1.0  0.8704304291794042  0.5493848931915258  0.7053907927607355  1.0000
  H   H777      1.0  0.8528166408422522  0.5193067962161076  0.7144843073733289  1.0000
  H   H778      1.0  0.8393688318642538  0.5481869236604643  0.7359271933104754  1.0000
  H   H779      1.0  0.9175140135823148  0.5293793766757666  0.7235614712121016  1.0000
  H   H780      1.0  0.8995163215307286  0.4993208608235824  0.7334500999348271  1.0000
  H   H781      1.0  0.9205525551566718  0.5142106849278695  0.7673867499814108  1.0000
  H   H782      1.0  0.8987440653424941  0.5699550913245881  0.7527273447493764  1.0000
  H   H783      1.0  0.9031759653080424  0.5543989840733602  0.7959556595420292  1.0000
  H   H784      1.0  0.8684981608002631  0.5684044749821029  0.7844223640265515  1.0000
  N   N45       1.0  0.7128988078814832  0.9434929093493123  0.4803784134465403  1.0000
  C   C561      1.0  0.6954491664450297  0.9216621817173053  0.4945325767990778  1.0000
  C   C562      1.0  0.7224596204011116  0.9591840479011094  0.5110197067590986  1.0000
  C   C563      1.0  0.6949716395439809  0.9596831062508622  0.4559154460835777  1.0000
  C   C564      1.0  0.7387496237355218  0.9333776742476687  0.4601232111247636  1.0000
  H   H785      1.0  0.6749134953432461  0.9283803892522605  0.5083212564074772  1.0000
  H   H786      1.0  0.7078228148218705  0.9097157241642485  0.5143193419472417  1.0000
  H   H787      1.0  0.6893084264018308  0.9085001215933426  0.4724356497254683  1.0000
  H   H788      1.0  0.7356606414475648  0.975925941359587  0.5014558926165882  1.0000
  H   H789      1.0  0.7035292251789363  0.9669513999755505  0.5271199763081321  1.0000
  H   H790      1.0  0.7361263088216118  0.9475782443428791  0.5300022052957932  1.0000
  H   H791      1.0  0.7070160709906129  0.9769277223696909  0.4458430732585314  1.0000
  H   H792      1.0  0.6746691316531718  0.9667448511373725  0.4699479967740995  1.0000
  H   H793      1.0  0.6881545268655495  0.9486730948273259  0.4318930698441377  1.0000
  H   H794      1.0  0.7524626767711793  0.9208223774269553  0.47783795837658627  1.0000
  H   H795      1.0  0.7524339387950508  0.9493258399593643  0.44902385788647736  1.0000
  H   H796      1.0  0.7323263713423606  0.9212708565386803  0.43697372753933955  1.0000
  N   N46       1.0  0.8176159560163154  0.8691388525730156  0.7336968388173405  1.0000
  C   C565      1.0  0.7902481789395265  0.8591022853132996  0.7194040050125694  1.0000
  C   C566      1.0  0.830336828464729  0.8499452219016611  0.7590195316630717  1.0000
  C   C567      1.0  0.8113486366702952  0.8935572633050004  0.7529468753399083  1.0000
  C   C568      1.0  0.8385168803508177  0.873947056349781  0.7033040136596088  1.0000
  H   H797      1.0  0.7742110169397176  0.854385410400472  0.7415338666850485  1.0000
  H   H798      1.0  0.7941666142182088  0.8412317863018764  0.7033548799840919  1.0000
  H   H799      1.0  0.7794608194875713  0.8734727457515595  0.7012261640546869  1.0000
  H   H800      1.0  0.8352598398559784  0.8313042102026007  0.7451908647445818  1.0000
  H   H801      1.0  0.8510521899760625  0.8569273348506082  0.7702840584430446  1.0000
  H   H802      1.0  0.8151425164132582  0.8458405237318494  0.7823174808255654  1.0000
  H   H803      1.0  0.8315136687774374  0.9019088153739196  0.7639060403244788  1.0000
  H   H804      1.0  0.7956074569600402  0.8907777099891651  0.7760618895087199  1.0000
  H   H805      1.0  0.8017820046085061  0.9084867865877394  0.7344945272308514  1.0000
  H   H806      1.0  0.859385434497065  0.8816997293413134  0.713051282534831  1.0000
  H   H807      1.0  0.8295843016898015  0.8883702321594148  0.6838070117583905  1.0000
  H   H808      1.0  0.8436095418040707  0.8559947680877782  0.6878735271991488  1.0000
  N   N47       1.0  0.7973174509918886  0.04787351332282541  0.2943569347839456  1.0000
  C   C569      1.0  0.7772062452680223  0.028340063236284685  0.3097136708891832  1.0000
  C   C570      1.0  0.8124407020987441  0.037412062892014486  0.26170630531206474  1.0000
  C   C571      1.0  0.8190672419934695  0.054289483865772814  0.3216515840757128  1.0000
  C   C572      1.0  0.7805532550005293  0.07143145335914358  0.28446196175111077  1.0000
  H   H809      1.0  0.7657020212761663  0.03547093907740129  0.33470366057655415  1.0000
  H   H810      1.0  0.789117333286896  0.01021297104949026  0.3171339466000084  1.0000
  H   H811      1.0  0.7602468851879735  0.023198460321855574  0.2900476746651734  1.0000
  H   H812      1.0  0.8280360303699975  0.05155073224583595  0.24952635378423035  1.0000
  H   H813      1.0  0.8250830749404225  0.0194785856514037  0.26828240167308837  1.0000
  H   H814      1.0  0.7967069534855961  0.03249268230546054  0.2404279352327644  1.0000
  H   H815      1.0  0.8083686769242057  0.0621280251633205  0.34672786913848247  1.0000
  H   H816      1.0  0.8345404818289854  0.0690683443320359  0.3110129834207615  1.0000
  H   H817      1.0  0.8321423323041135  0.036929863246461636  0.3297583771763884  1.0000
  H   H818      1.0  0.7949725742633903  0.08666022762531744  0.2727262629269737  1.0000
  H   H819      1.0  0.7690069131571644  0.0798905702739825  0.308576725308769  1.0000
  H   H820      1.0  0.7637600172264096  0.0673889060773587  0.2640900661106283  1.0000
  N   N48       1.0  0.207987719464646  0.6212430391386939  0.29766766502168285  1.0000
  C   C573      1.0  0.20168398441442337  0.616484465654338  0.2592047972169078  1.0000
  C   C574      1.0  0.2118297756780445  0.6492136171121636  0.3028616528592503  1.0000
  C   C575      1.0  0.23498952411891638  0.6071901002225857  0.3076302591639187  1.0000
  C   C576      1.0  0.1834875128722786  0.6120742547668495  0.32095289504692365  1.0000
  H   H821      1.0  0.1997889655589451  0.5954491945775223  0.2538937139055651  1.0000
  H   H822      1.0  0.21928258550477797  0.6240508392001106  0.24084451916706162  1.0000
  H   H823      1.0  0.1809011819690769  0.6260584848333378  0.25118262370073086  1.0000
  H   H824      1.0  0.19154068756207976  0.6603873141066008  0.29693781615118775  1.0000
  H   H825      1.0  0.21784931780385275  0.653403021939318  0.33115281896418214  1.0000
  H   H826      1.0  0.22953012585984944  0.6569033935152973  0.28476690210932376  1.0000
  H   H827      1.0  0.23972447002309827  0.6094604263107792  0.33686852709499515  1.0000
  H   H828      1.0  0.2541698693245429  0.6144797623495142  0.2918472022959475  1.0000
  H   H829      1.0  0.23336310598267374  0.5861452870060181  0.3023093432445875  1.0000
  H   H830      1.0  0.1877327825899815  0.6149835367154031  0.3502124108138439  1.0000
  H   H831      1.0  0.17976675880906656  0.5911139628975733  0.3170871250536336  1.0000
  H   H832      1.0  0.16280178578661264  0.6226040076658452  0.314827474786422  1.0000
  N   N49       1.0  0.8773767408285551  0.7491456884353414  0.5365602483094013  1.0000
  C   C577      1.0  0.8635553561616424  0.7751409519783753  0.5358915781033282  1.0000
  C   C578      1.0  0.8548199293451476  0.7293511472225428  0.5329093446190141  1.0000
  C   C579      1.0  0.8921947350305961  0.7450480306958751  0.5713246610490089  1.0000
  C   C580      1.0  0.8990217728841848  0.746918987086353  0.5063265262095284  1.0000
  H   H833      1.0  0.8799925126030121  0.7906030830345747  0.5381150198996174  1.0000
  H   H834      1.0  0.8476202193103832  0.7776842970498595  0.5589371692007506  1.0000
  H   H835      1.0  0.851657089662407  0.7788305048028993  0.5103390337425447  1.0000
  H   H836      1.0  0.864603391979467  0.7095154704342536  0.5335512017096956  1.0000
  H   H837      1.0  0.8382585483176641  0.7305056255335487  0.5554874667016846  1.0000
  H   H838      1.0  0.8431241180097196  0.7317684771197431  0.5069449234964748  1.0000
  H   H839      1.0  0.9027462812469824  0.7256379810961922  0.5727600060018649  1.0000
  H   H840      1.0  0.8765856186603733  0.7464630119621062  0.5948663503853432  1.0000
  H   H841      1.0  0.9095627607196454  0.7594682862794877  0.5749538103725702  1.0000
  H   H842      1.0  0.9164831702345722  0.7614761121432507  0.5085146926931815  1.0000
  H   H843      1.0  0.8886809915239168  0.7498875925094655  0.47956082073732487  1.0000
  H   H844      1.0  0.9099548261254249  0.7275282147630125  0.5062700804005769  1.0000
  N   N50       1.0  0.9071455019098112  0.6666240642065804  0.8092515236972779  1.0000
  C   C581      1.0  0.9055152189118097  0.6814971370007071  0.8431654156324124  1.0000
  C   C582      1.0  0.8846854659716306  0.6765782652042983  0.7843650447686046  1.0000
  C   C583      1.0  0.90214143964942  0.639018428614492  0.8174078715024141  1.0000
  C   C584      1.0  0.9364026207926713  0.6694840726307205  0.7921721962813704  1.0000
  H   H845      1.0  0.9084586983041464  0.7025386229181707  0.8378195333391396  1.0000
  H   H846      1.0  0.9229930250335042  0.6753122728451837  0.8617575640583341  1.0000
  H   H847      1.0  0.8842522318771515  0.6790205769843485  0.857853524118968  1.0000
  H   H848      1.0  0.8853369444226019  0.6660104354940158  0.758272497886523  1.0000
  H   H849      1.0  0.8623773727602033  0.6746245898917508  0.7964864626163273  1.0000
  H   H850      1.0  0.887930637621398  0.6973942710801999  0.7777054668380887  1.0000
  H   H851      1.0  0.9029421224011634  0.627397519715384  0.7921669174114416  1.0000
  H   H852      1.0  0.8806006534966048  0.6360148535938475  0.8312150765878967  1.0000
  H   H853      1.0  0.9190523957990648  0.6309439383993686  0.8357099044555991  1.0000
  H   H854      1.0  0.9384597315894158  0.6588344868793155  0.7661877764870912  1.0000
  H   H855      1.0  0.9538297263558971  0.662002163837339  0.8101108193408448  1.0000
  H   H856      1.0  0.9411708512616408  0.690085502914467  0.786315860404336  1.0000
  N   N51       1.0  0.5120025608166541  0.04072145218536738  0.7156583825992738  1.0000
  C   C585      1.0  0.4962251573472258  0.017110069476607093  0.7267624383829825  1.0000
  C   C586      1.0  0.511328283242397  0.04383201022427263  0.6757611036723346  1.0000
  C   C587      1.0  0.5426540264884777  0.03856220074107686  0.7270478242744078  1.0000
  C   C588      1.0  0.4977931881979196  0.06339385721556012  0.7329721340023604  1.0000
  H   H857      1.0  0.49711152920458435  0.013611781042563553  0.7566352783713265  1.0000
  H   H858      1.0  0.5056961919703762  0.9996561362714627  0.7133365780188448  1.0000
  H   H859      1.0  0.4727957725850044  0.018352285985485883  0.7196913887312637  1.0000
  H   H860      1.0  0.522987641116523  0.06151469689845346  0.6664813570680566  1.0000
  H   H861      1.0  0.5219647263495215  0.02703838216727905  0.6618987819523985  1.0000
  H   H862      1.0  0.4885379333541064  0.04542068017047818  0.6661248165035767  1.0000
  H   H863      1.0  0.5542068804852319  0.021917480692841496  0.7140263631906765  1.0000
  H   H864      1.0  0.544117530407446  0.03569018010806113  0.7568940438552061  1.0000
  H   H865      1.0  0.5551137279108148  0.05628453070468331  0.7199465110516301  1.0000
  H   H866      1.0  0.5096077324595073  0.08150603510129772  0.7261045917168648  1.0000
  H   H867      1.0  0.4971430090885692  0.06127047902819194  0.7630611239612135  1.0000
  H   H868      1.0  0.4748616757968898  0.06601481316587332  0.7242341895326728  1.0000
  N   N52       1.0  0.2676483775337283  0.44332392642618446  0.5083783114046541  1.0000
  C   C589      1.0  0.25590230391494984  0.45862449385212056  0.4777444877529303  1.0000
  C   C590      1.0  0.29570750635032433  0.45413511996903067  0.5191835996946091  1.0000
  C   C591      1.0  0.27235595136153357  0.41626317022255577  0.4971333693180387  1.0000
  C   C592      1.0  0.24675511209452025  0.44424752136897977  0.5395474011990529  1.0000
  H   H869      1.0  0.2520586966988129  0.4791706824206147  0.48521858532572354  1.0000
  H   H870      1.0  0.23477407368879652  0.4510016470781123  0.468697516135323  1.0000
  H   H871      1.0  0.27126827560145544  0.4585622396214392  0.45386342990255907  1.0000
  H   H872      1.0  0.30534118635920326  0.44270418932450234  0.5418278900896373  1.0000
  H   H873      1.0  0.3119410561728441  0.4544776247081211  0.4962093835395473  1.0000
  H   H874      1.0  0.2928532153136701  0.4742562987062771  0.5290176385946976  1.0000
  H   H875      1.0  0.2516521432559465  0.40744266128438655  0.48870524164753315  1.0000
  H   H876      1.0  0.28123167458859377  0.4041987260737104  0.5196825561317423  1.0000
  H   H877      1.0  0.28819461613082237  0.4149577799213126  0.4738025265648905  1.0000
  H   H878      1.0  0.2551648347111491  0.43316675194001286  0.563334031269389  1.0000
  H   H879      1.0  0.22529060812358476  0.4361871831256622  0.5326105723141755  1.0000
  H   H880      1.0  0.2429158883800479  0.46443888031853897  0.5488347653283043  1.0000
  N   N53       1.0  0.14088911268597526  0.5909362093627648  0.8913928632710219  1.0000
  C   C593      1.0  0.15560763057485857  0.5927896001891868  0.855340729512361  1.0000
  C   C594      1.0  0.15497860085272966  0.6083754657087601  0.91686814153261  1.0000
  C   C595      1.0  0.143074046935701  0.5640873275421178  0.9052977051912767  1.0000
  C   C596      1.0  0.10985718960072609  0.5984880351292461  0.8881424946117624  1.0000
  H   H881      1.0  0.14522427563751372  0.5802336376617405  0.8352053242371762  1.0000
  H   H882      1.0  0.17884771137813413  0.5866093607189511  0.8566413810906233  1.0000
  H   H883      1.0  0.15527418042689156  0.6129510499713509  0.8445196793693119  1.0000
  H   H884      1.0  0.1434909702887279  0.6085614472134864  0.9437977019232475  1.0000
  H   H885      1.0  0.17797558878498518  0.602390996185737  0.9215720850742402  1.0000
  H   H886      1.0  0.15545229898548873  0.6286110126338327  0.9062832979546016  1.0000
  H   H887      1.0  0.13263354858235532  0.5503523117580814  0.8867786568886693  1.0000
  H   H888      1.0  0.13229527058892554  0.5620346320130454  0.9325374664987893  1.0000
  H   H889      1.0  0.1662777866865364  0.5577504180955538  0.9080410307258093  1.0000
  H   H890      1.0  0.09797324849521205  0.5969882994725088  0.9147760993804628  1.0000
  H   H891      1.0  0.09852729187435914  0.5859766517024443  0.8688038608930676  1.0000
  H   H892      1.0  0.10735137795164706  0.6188418944113586  0.8784777412566955  1.0000
  N   N54       1.0  0.8557389100437107  0.9353212906576127  0.08359679350507321  1.0000
  C   C597      1.0  0.837528556444739  0.9123130796617107  0.07947826657111179  1.0000
  C   C598      1.0  0.8442654599200823  0.9508809054285086  0.11429565281037762  1.0000
  C   C599      1.0  0.8552218666006535  0.9510160017367977  0.04981714681413729  1.0000
  C   C600      1.0  0.8860586394795557  0.927064534339687  0.09076000476454671  1.0000
  H   H893      1.0  0.8145415148606295  0.9178587061128622  0.07365826352840554  1.0000
  H   H894      1.0  0.8372964717937379  0.9001214067017904  0.10460087037933619  1.0000
  H   H895      1.0  0.8458185726074908  0.9000675374944043  0.056709671372484616  1.0000
  H   H896      1.0  0.8574004370932071  0.968523330535893  0.11788401557924924  1.0000
  H   H897      1.0  0.821335228125823  0.9573204261494459  0.11000586647137303  1.0000
  H   H898      1.0  0.8448200738221995  0.939761820488918  0.14039890792844623  1.0000
  H   H899      1.0  0.868965567212002  0.9684118133996943  0.051852445666125124  1.0000
  H   H900      1.0  0.8327471423942189  0.9577754140766377  0.043389372830644035  1.0000
  H   H901      1.0  0.8639634822385408  0.9399342718226475  0.026129446633968545  1.0000
  H   H902      1.0  0.9001717399628769  0.9440389509132145  0.09458658468107939  1.0000
  H   H903      1.0  0.895804998575553  0.9159340441026621  0.06769858507121573  1.0000
  H   H904      1.0  0.8873438609933298  0.9147638156972767  0.11566949785633145  1.0000
  N   N55       1.0  0.17759491460949864  0.7976472503747  0.9791725192667945  1.0000
  C   C601      1.0  0.1963475495194679  0.7863109698714793  0.007474395335806516  1.0000
  C   C602      1.0  0.16956454369527416  0.8245167000146553  0.9887382777248364  1.0000
  C   C603      1.0  0.15090927101724638  0.7821939143899236  0.9764799912456704  1.0000
  C   C604      1.0  0.19369612218671167  0.797518064821892  0.9439507613028736  1.0000
  H   H905      1.0  0.20311826992083218  0.7661490573489449  0.0008953324868961055  1.0000
  H   H906      1.0  0.18501412171684267  0.7857999630068835  0.03441464921349291  1.0000
  H   H907      1.0  0.21656171251650305  0.7976205860393912  0.010499292482013312  1.0000
  H   H908      1.0  0.15616654696575424  0.8339599923776495  0.9674209593367551  1.0000
  H   H909      1.0  0.15662188974277338  0.8253283466684154  0.014628884660193187  1.0000
  H   H910      1.0  0.18926608486116456  0.8364646848286662  0.9922643397595866  1.0000
  H   H911      1.0  0.1364143057727989  0.7900052988324642  0.9550222071716452  1.0000
  H   H912      1.0  0.13816206628261596  0.7819741925956107  0.0026191900089247433  1.0000
  H   H913      1.0  0.1562586571586875  0.7617785885490427  0.9693774085316443  1.0000
  H   H914      1.0  0.1804026848410739  0.805956087491454  0.9217709330219197  1.0000
  H   H915      1.0  0.2000398187101737  0.7775421427355219  0.9359179205764053  1.0000
  H   H916      1.0  0.21422468358582705  0.8086731461245142  0.9450991589568312  1.0000
  N   N56       1.0  0.020976097725486476  0.45655688129520877  0.7235996442835456  1.0000
  C   C605      1.0  0.9925082464675808  0.44447309391187473  0.7177943743466062  1.0000
  C   C606      1.0  0.03432298476915263  0.4639867038192892  0.6881503419193622  1.0000
  C   C607      1.0  0.04046358568120678  0.4379761433467832  0.7423245848567044  1.0000
  C   C608      1.0  0.01664941761413763  0.4798269192416985  0.7460233530755802  1.0000
  H   H917      1.0  0.9818819389482427  0.4383496550715411  0.7437957135863555  1.0000
  H   H918      1.0  0.9949113259203166  0.4270857756092759  0.7004339720319189  1.0000
  H   H919      1.0  0.9771935160630882  0.458032962738002  0.7039549424728283  1.0000
  H   H920      1.0  0.02023889012130997  0.4781001628238395  0.6733613077882799  1.0000
  H   H921      1.0  0.056020145342192684  0.47289452151217054  0.6914160118906709  1.0000
  H   H922      1.0  0.03739524854268206  0.44696148304413247  0.6701986391714109  1.0000
  H   H923      1.0  0.06207860511205765  0.4465557550273811  0.7474336521805767  1.0000
  H   H924      1.0  0.04436063474587715  0.4202668991951302  0.7260260367895612  1.0000
  H   H925      1.0  0.031030509705608278  0.431792572735156  0.7691318287751213  1.0000
  H   H926      1.0  0.03751947134322986  0.49003859615701895  0.7496187816279543  1.0000
  H   H927      1.0  0.007797803526904401  0.4748810423376491  0.7735709574857731  1.0000
  H   H928      1.0  0.0010461773171419608  0.49380464038853344  0.7335652684743311  1.0000
  N   N57       1.0  0.4856274033076027  0.27079837472988305  0.431477398464566  1.0000
  C   C609      1.0  0.47128801702257517  0.2936726144055253  0.44816691913196677  1.0000
  C   C610      1.0  0.51754303065237  0.2744119367436962  0.42992999834391316  1.0000
  C   C611      1.0  0.47487945688473626  0.2675340674913045  0.39430061657428056  1.0000
  C   C612      1.0  0.4788585077851361  0.24752565416710234  0.4535525270895885  1.0000
  H   H929      1.0  0.44715592645644664  0.29181873486493903  0.44953289802151786  1.0000
  H   H930      1.0  0.4763377780947555  0.3117359215780331  0.4326981924026248  1.0000
  H   H931      1.0  0.4786207274875475  0.29659202985032196  0.47637731624687335  1.0000
  H   H932      1.0  0.5264070026374408  0.2767885456577601  0.45755979089781823  1.0000
  H   H933      1.0  0.5290555716298828  0.2575153742089855  0.4174717878959997  1.0000
  H   H934      1.0  0.5235301631205422  0.29188696504426465  0.4137029267106179  1.0000
  H   H935      1.0  0.4794790169871484  0.284762662308615  0.37685196765547985  1.0000
  H   H936      1.0  0.4509068658448616  0.2644392250581544  0.39442310184606677  1.0000
  H   H937      1.0  0.4853186819346841  0.2505086591412508  0.3807979519753767  1.0000
  H   H938      1.0  0.48900938846375197  0.22985472501947038  0.44145448406564  1.0000
  H   H939      1.0  0.4549619927678331  0.24428387796545972  0.4557988257175579  1.0000
  H   H940      1.0  0.48715045718052413  0.2490554006623515  0.4815958910560216  1.0000
  N   N58       1.0  0.6293495986024289  0.07904004807889643  0.4070487544293181  1.0000
  C   C613      1.0  0.6331670719653586  0.10176023640890448  0.4301493903196354  1.0000
  C   C614      1.0  0.6525763585178983  0.05970289917233363  0.414501222330891  1.0000
  C   C615      1.0  0.6310915868568947  0.0870116487771821  0.36839662351574903  1.0000
  C   C616      1.0  0.6005290738906931  0.0677206286203842  0.4152183173267834  1.0000
  H   H941      1.0  0.6160456653044568  0.11677555119513491  0.4251793729476722  1.0000
  H   H942      1.0  0.6547146859067347  0.11076580188688903  0.42478393838566303  1.0000
  H   H943      1.0  0.6319738964291732  0.09650846944338079  0.45949802869243433  1.0000
  H   H944      1.0  0.6746346756445993  0.06748251281568085  0.4082564475408965  1.0000
  H   H945      1.0  0.6521698403214606  0.053364222395432266  0.44345398147722964  1.0000
  H   H946      1.0  0.6503270973787147  0.042229381704924185  0.3976792782317837  1.0000
  H   H947      1.0  0.6287932354336538  0.0701621927890963  0.3502179363066853  1.0000
  H   H948      1.0  0.6524186845210269  0.09599868226499547  0.36142875049419954  1.0000
  H   H949      1.0  0.6137005082467546  0.10145726103291411  0.36172843250153347  1.0000
  H   H950      1.0  0.5983915948376476  0.061595919631991077  0.44420327445132535  1.0000
  H   H951      1.0  0.596905441983944  0.05040927446909027  0.3985054208815605  1.0000
  H   H952      1.0  0.5824143242746884  0.08173073059883329  0.4098172522437175  1.0000
  N   N59       1.0  0.24975680419096935  0.38105854990165294  0.8486363829280408  1.0000
  C   C617      1.0  0.2259768002834647  0.362151375353954  0.8483034954058801  1.0000
  C   C618      1.0  0.2671451308363926  0.3794261850881472  0.8144096997261682  1.0000
  C   C619      1.0  0.26870138545231786  0.375338689302029  0.8797035682684516  1.0000
  C   C620      1.0  0.23712695013201873  0.40735981581459646  0.8521300787874432  1.0000
  H   H953      1.0  0.2125035416652005  0.3629439242992564  0.8738345452361688  1.0000
  H   H954      1.0  0.2347126129929805  0.3420686088435232  0.8456766129863356  1.0000
  H   H955      1.0  0.21120730741700589  0.3659552583611434  0.8252214425849715  1.0000
  H   H956      1.0  0.2849005656966184  0.3938835582153411  0.8135158029973787  1.0000
  H   H957      1.0  0.2773718050343371  0.35997667605246  0.8109199692216497  1.0000
  H   H958      1.0  0.25344729808376315  0.383559502456343  0.7903876775583006  1.0000
  H   H959      1.0  0.28698000160511195  0.38915714385801037  0.8808592175048124  1.0000
  H   H960      1.0  0.2784682402561711  0.3555788797707735  0.8782558551536211  1.0000
  H   H961      1.0  0.2563261026895314  0.3766712325743495  0.9060161992334679  1.0000
  H   H962      1.0  0.2544292862671928  0.4222167410561453  0.8512648327467124  1.0000
  H   H963      1.0  0.22453865778700627  0.40967137208591736  0.8781277704594228  1.0000
  H   H964      1.0  0.22226360920203558  0.41209097106731063  0.8294769186652899  1.0000
  N   N60       1.0  0.9708307839465663  0.4165480860060076  0.22695599715246123  1.0000
  C   C621      1.0  0.9699516900993664  0.43672966653411893  0.2549766060749181  1.0000
  C   C622      1.0  0.9724760218649638  0.42886539194968  0.19055011594122437  1.0000
  C   C623      1.0  0.9442256186538639  0.4008617105702815  0.23025359004289653  1.0000
  C   C624      1.0  0.996773093683919  0.3997282559519509  0.23199009227980716  1.0000
  H   H965      1.0  0.9500912548542457  0.4492202805121189  0.25298176514215903  1.0000
  H   H966      1.0  0.9890905691952101  0.4495923586835166  0.25213727960716087  1.0000
  H   H967      1.0  0.9703000417355285  0.42821003540302044  0.28285047367356275  1.0000
  H   H968      1.0  0.9728394166343296  0.41419017081169296  0.1686817401191408  1.0000
  H   H969      1.0  0.9534171011635479  0.44192369202736176  0.18587265772341832  1.0000
  H   H970      1.0  0.99262423282701  0.44043739438407337  0.18691749803426205  1.0000
  H   H971      1.0  0.9441630015289136  0.3855678121629722  0.2093005876891251  1.0000
  H   H972      1.0  0.9241684021443  0.41287555915692986  0.22662231902306026  1.0000
  H   H973      1.0  0.9424935862007978  0.3909808421621438  0.25719683432461704  1.0000
  H   H974      1.0  0.9987407637983595  0.385022281411429  0.21036972692396003  1.0000
  H   H975      1.0  0.9959418379363368  0.3893465155442811  0.2586058325745485  1.0000
  H   H976      1.0  0.017142242362715  0.41099876139001723  0.23080822456909345  1.0000
  N   N61       1.0  0.5288599114350887  0.14478799069966675  0.8985449607516278  1.0000
  C   C625      1.0  0.5301358963006881  0.1697420052076548  0.8786861168234243  1.0000
  C   C626      1.0  0.5509885311790896  0.14410797037083167  0.9270417039807202  1.0000
  C   C627      1.0  0.5347868635197658  0.12350176605824936  0.872945685851187  1.0000
  C   C628      1.0  0.4995808611163353  0.14180066764926957  0.9155767288542601  1.0000
  H   H977      1.0  0.5140923920536119  0.17085401938164368  0.856518044504213  1.0000
  H   H978      1.0  0.5521148607301936  0.17277301922252342  0.8660882995800522  1.0000
  H   H979      1.0  0.5257013034103377  0.1862992096382663  0.8971382516607628  1.0000
  H   H980      1.0  0.5506859339486472  0.12550485272848344  0.9424955612887609  1.0000
  H   H981      1.0  0.5733626355203764  0.14668060027727692  0.9152663825287619  1.0000
  H   H982      1.0  0.547161250970705  0.15994354025812108  0.9468316996503121  1.0000
  H   H983      1.0  0.5347033413004931  0.1044048131953017  0.8871500997437276  1.0000
  H   H984      1.0  0.5564347015021907  0.12559485273135218  0.858942182778998  1.0000
  H   H985      1.0  0.5180175510057252  0.12300327368406427  0.851693217441147  1.0000
  H   H986      1.0  0.4979065291066512  0.12317549788134952  0.930896692990119  1.0000
  H   H987      1.0  0.48228793897477135  0.1420724238219775  0.8949196807306204  1.0000
  H   H988      1.0  0.49451574033285767  0.1576079694433643  0.9350670954423115  1.0000
  N   N62       1.0  0.3575099081632867  0.8804271372484066  0.23806828026386637  1.0000
  C   C629      1.0  0.3388286138651546  0.9029389398181417  0.24775077996138892  1.0000
  C   C630      1.0  0.3528989389795172  0.8595898114244948  0.26529218387439735  1.0000
  C   C631      1.0  0.38844941265133903  0.8880593982553998  0.23738943233771542  1.0000
  C   C632      1.0  0.3497785253741375  0.8711354819888574  0.20183602593228897  1.0000
  H   H989      1.0  0.3433655888345432  0.9099031291053186  0.275446004193925  1.0000
  H   H990      1.0  0.31524544428686707  0.8981737785988743  0.24691266397477366  1.0000
  H   H991      1.0  0.34265570283997165  0.9194431452295202  0.2287544601261914  1.0000
  H   H992      1.0  0.3593943436132691  0.8655975977577228  0.29277683996556036  1.0000
  H   H993      1.0  0.32951428100473584  0.8541415576186226  0.2672699609165824  1.0000
  H   H994      1.0  0.3657071899449133  0.8418383597732669  0.2581968347568662  1.0000
  H   H995      1.0  0.39498633534672617  0.8955705424496064  0.26410823348619045  1.0000
  H   H996      1.0  0.392610179026172  0.9036791947996138  0.21688462308526532  1.0000
  H   H997      1.0  0.40319880665505625  0.8715031362875962  0.23039708343766885  1.0000
  H   H998      1.0  0.36280666125232097  0.8536786744217624  0.19412026737034224  1.0000
  H   H999      1.0  0.3539432782085001  0.8860024646730046  0.18046917153308023  1.0000
  H   H1000     1.0  0.32627744335572995  0.8661613270277188  0.20085896308808765  1.0000
  N   N63       1.0  0.404071279024395  0.2929855586744306  0.02200594912443221  1.0000
  C   C633      1.0  0.4140971344717827  0.2941661667584996  0.9836079855425177  1.0000
  C   C634      1.0  0.42327349412950316  0.3087835800886341  0.04413010020049457  1.0000
  C   C635      1.0  0.4051832319613697  0.2658938424605664  0.03507949382020459  1.0000
  C   C636      1.0  0.37380166087330585  0.30307981024551484  0.02528763436509429  1.0000
  H   H1001     1.0  0.41364238537427733  0.3143277489505074  0.9728280988970726  1.0000
  H   H1002     1.0  0.4002374491923516  0.28229973356602933  0.9661666873222687  1.0000
  H   H1003     1.0  0.4369529086596284  0.28672484157822326  0.9803559658363049  1.0000
  H   H1004     1.0  0.42285354214417625  0.32937965339586855  0.03522298322871831  1.0000
  H   H1005     1.0  0.41647317289223695  0.3081187413388951  0.07335417987493154  1.0000
  H   H1006     1.0  0.4463627177374028  0.30178593936370746  0.04206006099715953  1.0000
  H   H1007     1.0  0.39831989914418264  0.26431400731697735  0.06413142741331224  1.0000
  H   H1008     1.0  0.4276533412775004  0.25757027486472767  0.03259243623180841  1.0000
  H   H1009     1.0  0.39060098371670543  0.25340795612674527  0.01951785204453249  1.0000
  H   H1010     1.0  0.36581421104207995  0.3026364564068069  0.05400543624065168  1.0000
  H   H1011     1.0  0.3585323543418522  0.2914480097218729  0.009408147496004826  1.0000
  H   H1012     1.0  0.37205215689184823  0.3234825451456822  0.015624335905719766  1.0000
  N   N64       1.0  0.8514906173545368  0.9296105243729417  0.4598964977675438  1.0000
  C   C637      1.0  0.8196514989549292  0.9293422899599088  0.4547087200120865  1.0000
  C   C638      1.0  0.8667282877510307  0.9228914232369636  0.4254479161771085  1.0000
  C   C639      1.0  0.8594389584528531  0.910535056799295  0.4883371297641519  1.0000
  C   C640      1.0  0.8600823888811646  0.9557092355315095  0.47092352407569144  1.0000
  H   H1013     1.0  0.8075151066093204  0.9342216838349502  0.4802804344222982  1.0000
  H   H1014     1.0  0.8124185892875331  0.9099647474951488  0.4459861804451956  1.0000
  H   H1015     1.0  0.813041980424046  0.9436754194546428  0.4335231454929355  1.0000
  H   H1016     1.0  0.8908202770679801  0.9229489422295224  0.4281486524913739  1.0000
  H   H1017     1.0  0.8607048589076597  0.9033317023557481  0.4163285554510749  1.0000
  H   H1018     1.0  0.861139038945094  0.9368481176305019  0.4033930317178279  1.0000
  H   H1019     1.0  0.8492368300385849  0.9155241962559494  0.5151082823364433  1.0000
  H   H1020     1.0  0.8834342096973028  0.9094953657082359  0.4920304835174603  1.0000
  H   H1021     1.0  0.8522363907890103  0.8907573986129642  0.4814526507166294  1.0000
  H   H1022     1.0  0.8545517802160991  0.9705042567458786  0.44981039666582506  1.0000
  H   H1023     1.0  0.8839716430124847  0.9566404602684808  0.4752034912215726  1.0000
  H   H1024     1.0  0.848747263005375  0.9615435244370808  0.49668523082855587  1.0000
