data_image0
_chemical_formula_structural       FeS2FeS2FeSFeS3FeS2FeS2FeSFeS3FeS2FeS2FeSFeS3FeS2FeS2FeSFeS3FeS2FeS2FeSFeS3FeS2FeS2FeSFeS3FeS2FeS2FeSFeS3FeS2FeS2FeSFeS3FeS2FeS2FeSFeS3FeS2FeS2FeSFeS3FeS2FeS2FeSFeS3FeS2FeS2FeSFeS3FeS2FeS2FeSFeS3FeS2FeS2FeSFeS3FeS2FeS2FeSFeS3FeS2FeS2FeSFeS3FeS2FeS2FeSFeS3FeS2FeS2FeSFeS3FeS2FeS2FeSFeS3FeS2FeS2FeSFeS3FeS2FeS2FeSFeS3FeS2FeS2FeSFeS3FeS2FeS2FeSFeS3FeS2FeS2FeSFeS3C6H4C6H4C6H4C6H4C6H4C6H4C6H4C6H4C6H4C6H4C6H4C6H4C6H4C6H4C6H4C6H4C6H4C6H4C6H4C6H4C6H4C6H4C6H4C6H4C6H4C6H4C6H4C6H4C6H4C6H4C6H4C6H4C6H4C6H4C6H4C6H4C6H4C6H4C6H4C6H4C6H4C6H4C6H4C6H4C6H4C6H4C6H4C6H4NC4H12NC4H12NC4H12NC4H12NC4H12NC4H12NC4H12NC4H12NC4H12NC4H12NC4H12NC4H12NC4H12NC4H12NC4H12NC4H12NC4H12NC4H12NC4H12NC4H12NC4H12NC4H12NC4H12NC4H12NC4H12NC4H12NC4H12NC4H12NC4H12NC4H12NC4H12NC4H12NC4H12NC4H12NC4H12NC4H12NC4H12NC4H12NC4H12NC4H12NC4H12NC4H12NC4H12NC4H12NC4H12NC4H12NC4H12NC4H12
_chemical_formula_sum              "Fe96 S192 C480 H768 N48"
_cell_length_a       49.32743075481831
_cell_length_b       42.59813558980383
_cell_length_c       29.74653836264224
_cell_angle_alpha    91.19851782661767
_cell_angle_beta     87.30307960756406
_cell_angle_gamma    89.01517358489666

_space_group_name_H-M_alt    "P 1"
_space_group_IT_number       1

loop_
  _space_group_symop_operation_xyz
  'x, y, z'

loop_
  _atom_site_type_symbol
  _atom_site_label
  _atom_site_symmetry_multiplicity
  _atom_site_fract_x
  _atom_site_fract_y
  _atom_site_fract_z
  _atom_site_occupancy
  Fe  Fe1       1.0  0.6777014262237543  0.6530591081348566  0.06000819526851075  1.0000
  S   S1        1.0  0.6999610361205201  0.6924055250751177  0.09261744258759398  1.0000
  S   S2        1.0  0.6510137801388357  0.623904137002545  0.10544464679116612  1.0000
  Fe  Fe2       1.0  0.7003361428504793  0.6673890449289184  0.9665476075556941  1.0000
  S   S3        1.0  0.7248954314541433  0.7072646375785807  0.9912320981165501  1.0000
  S   S4        1.0  0.6992391243704943  0.6605440887825309  0.8916867936681988  1.0000
  Fe  Fe3       1.0  0.7352200620910443  0.6756163318969728  0.047519981658383115  1.0000
  S   S5        1.0  0.7788021063521391  0.6701492158624438  0.0666631863601008  1.0000
  Fe  Fe4       1.0  0.6875512607843814  0.7202794288931026  0.03366177213793087  1.0000
  S   S6        1.0  0.6731926142931256  0.7706180361362303  0.035123390832692  1.0000
  S   S7        1.0  0.7139006859544527  0.6340980908053016  0.018932510457462692  1.0000
  S   S8        1.0  0.6620300524656765  0.6825364221440577  0.00500469832342243  1.0000
  Fe  Fe5       1.0  0.5371214804206549  0.8371099334941147  0.9302612634497546  1.0000
  S   S9        1.0  0.4941040853808376  0.8543006815171907  0.9266100244324563  1.0000
  S   S10       1.0  0.5707923275519439  0.8461711440305407  0.8789115680551886  1.0000
  Fe  Fe6       1.0  0.5274117265003969  0.8096903281631656  0.022872680810012147  1.0000
  S   S11       1.0  0.4834285702706735  0.8241752510600022  0.027754320898797813  1.0000
  S   S12       1.0  0.5470089386269049  0.7830945090883724  0.07751226084399865  1.0000
  Fe  Fe7       1.0  0.4832967747471532  0.8075101675040142  0.9556196739009735  1.0000
  S   S13       1.0  0.45224859985418925  0.7759229267743141  0.9261262133092731  1.0000
  Fe  Fe8       1.0  0.498072909416858  0.8694685387851614  0.9986481080963833  1.0000
  S   S14       1.0  0.48745576088375137  0.9185110667875322  0.023585775002162634  1.0000
  S   S15       1.0  0.5262552487727089  0.789050667619763  0.9531857508911745  1.0000
  S   S16       1.0  0.5420989011123829  0.8562688604144694  0.9998629886087737  1.0000
  Fe  Fe9       1.0  0.3543461783555196  0.6703380043949019  0.04525171322694499  1.0000
  S   S17       1.0  0.3830930603841497  0.6328720357729012  0.017157487307196018  1.0000
  S   S18       1.0  0.36342632001927644  0.7207682237276765  0.0609742829103741  1.0000
  Fe  Fe10      1.0  0.3069413078213003  0.6269324952888986  0.05139834789156694  1.0000
  S   S19       1.0  0.3309837207085493  0.5848844442449278  0.024583160221842038  1.0000
  S   S20       1.0  0.26230233085077165  0.6299672938693293  0.0698519925563614  1.0000
  Fe  Fe11      1.0  0.3636672732274462  0.6019009782015508  0.06875988671186417  1.0000
  S   S21       1.0  0.3872088587820007  0.5663972790413714  0.10724980194198297  1.0000
  Fe  Fe12      1.0  0.34889741102154603  0.6184027074035083  0.9750671009184395  1.0000
  S   S22       1.0  0.36023803124038406  0.6015243662428459  0.9049464171165109  1.0000
  S   S23       1.0  0.33761870301007735  0.6406582608736241  0.10097904312838346  1.0000
  S   S24       1.0  0.3219527473337612  0.6591595802282674  0.9974985472663512  1.0000
  Fe  Fe13      1.0  0.5851213690069477  0.4713176407276585  0.06062868090866247  1.0000
  S   S25       1.0  0.5564117948533389  0.5020121644568128  0.1032467557028126  1.0000
  S   S26       1.0  0.6277876065571258  0.4851694746941036  0.04099087189593709  1.0000
  Fe  Fe14      1.0  0.5423461641550824  0.42260668596532247  0.04284015369565197  1.0000
  S   S27       1.0  0.5098605311142731  0.44936082343245765  0.08339429276059285  1.0000
  S   S28       1.0  0.5344994264860545  0.374072696095714  0.015325297215858624  1.0000
  Fe  Fe15      1.0  0.5268249020208214  0.49197617904532664  0.0501825965877285  1.0000
  S   S29       1.0  0.5038188315872084  0.5326684317016139  0.022208822083760626  1.0000
  Fe  Fe16      1.0  0.5421978168430237  0.45685408784724935  0.13292323526661096  1.0000
  S   S30       1.0  0.5297752828648742  0.4518543104983631  0.2060593783560483  1.0000
  S   S31       1.0  0.5566674095084715  0.4645896014492721  0.00482212413464822  1.0000
  S   S32       1.0  0.5735706910593136  0.4267051367234286  0.09495265723511581  1.0000
  Fe  Fe17      1.0  0.8685007249386867  0.6871742370459708  0.3747876860369442  1.0000
  S   S33       1.0  0.9094320269870436  0.6666165717699952  0.3550848075891018  1.0000
  S   S34       1.0  0.864267759159915  0.7198357206932342  0.4351006904594677  1.0000
  Fe  Fe18      1.0  0.841391996777604  0.6545429133394886  0.297807914773788  1.0000
  S   S35       1.0  0.8800094762283379  0.6305177409736561  0.2712768091123451  1.0000
  S   S36       1.0  0.7988804455271167  0.6506478935572548  0.2733082679180824  1.0000
  Fe  Fe19      1.0  0.8875139393201682  0.6218662057009897  0.343935040648413  1.0000
  S   S37       1.0  0.9069636313293685  0.5800879213915637  0.37495121125343744  1.0000
  Fe  Fe20      1.0  0.8990012121088881  0.6772062856850221  0.28459037888339506  1.0000
  S   S38       1.0  0.9285540536888723  0.6957939962611625  0.23229970527742103  1.0000
  S   S39       1.0  0.8472535010582134  0.6414159848177756  0.36965751530482377  1.0000
  S   S40       1.0  0.8597941323740922  0.702077950823974  0.3050244718084312  1.0000
  Fe  Fe21      1.0  0.2235480679912476  0.6144803407476771  0.31851376656558295  1.0000
  S   S41       1.0  0.1905144129408174  0.6496938202440493  0.3070621439130278  1.0000
  S   S42       1.0  0.24037091081786807  0.579878601736469  0.2662690064712078  1.0000
  Fe  Fe22      1.0  0.2267026051976933  0.6319694644031043  0.41701389445747195  1.0000
  S   S43       1.0  0.19379785299652125  0.6686817581042162  0.41469526217134395  1.0000
  S   S44       1.0  0.24907617671428903  0.6233078129904458  0.4796073680575019  1.0000
  Fe  Fe23      1.0  0.17259181534579862  0.6334240428921591  0.37285073556086995  1.0000
  S   S45       1.0  0.12842923224537325  0.6248832560995355  0.38776168147833406  1.0000
  Fe  Fe24      1.0  0.2146657398786914  0.6818832189470965  0.3497225916671176  1.0000
  S   S46       1.0  0.21798812631631528  0.7334916175511437  0.338205250700294  1.0000
  S   S47       1.0  0.20358800507945524  0.5952505879614489  0.3810890278959492  1.0000
  S   S48       1.0  0.24963095656303677  0.6482363722159585  0.3551420861696303  1.0000
  Fe  Fe25      1.0  0.0073651017721148015  0.48959375409104855  0.23247450663327954  1.0000
  S   S49       1.0  0.036963303811320625  0.44885655161031585  0.22715264890888104  1.0000
  S   S50       1.0  0.9621678903197324  0.48709131241505954  0.22858652630392798  1.0000
  Fe  Fe26      1.0  0.0511691964412344  0.5381548813628432  0.22554692008716648  1.0000
  S   S51       1.0  0.08478605635192644  0.5022872927550766  0.2190074230186593  1.0000
  S   S52       1.0  0.06006572789809566  0.5892643568540196  0.2212486953465423  1.0000
  Fe  Fe27      1.0  0.05794956797269024  0.47656647222835785  0.17301876566816285  1.0000
  S   S53       1.0  0.07305921978401142  0.4540939881350668  0.107583275855824  1.0000
  Fe  Fe28      1.0  0.06127864184909266  0.47806561722562674  0.2739390330547803  1.0000
  S   S54       1.0  0.0859635019358425  0.46084221395003233  0.3301397171263312  1.0000
  S   S55       1.0  0.026331676040303842  0.5148895182934408  0.1743316570033771  1.0000
  S   S56       1.0  0.029644320963839503  0.5163533987228479  0.2845658059128218  1.0000
  Fe  Fe29      1.0  0.05872754507021849  0.7760425287586405  0.23499522529157504  1.0000
  S   S57       1.0  0.039044112514797114  0.812271862339967  0.19382710251491794  1.0000
  S   S58       1.0  0.03608453677163137  0.758041761145858  0.2960538815301688  1.0000
  Fe  Fe30      1.0  0.11140691658653766  0.7774415173524196  0.1790680736207587  1.0000
  S   S59       1.0  0.09648605359926578  0.8145295799118027  0.13330025519319172  1.0000
  S   S60       1.0  0.15170154894096602  0.7530914907414413  0.1653476614613344  1.0000
  Fe  Fe31      1.0  0.07840441363581863  0.8371183570990931  0.19690934034547522  1.0000
  S   S61       1.0  0.07253027502012  0.8887245437342877  0.21116876994073228  1.0000
  Fe  Fe32      1.0  0.05839917839449127  0.7864595289494647  0.13396859501566025  1.0000
  S   S62       1.0  0.03194779577636586  0.7769934593691727  0.07565464981060567  1.0000
  S   S63       1.0  0.09694900802139816  0.8026660189183356  0.2430431080244284  1.0000
  S   S64       1.0  0.0745871765335131  0.7474632809970779  0.17512436484559707  1.0000
  Fe  Fe33      1.0  0.8265326628438533  0.6253745409797713  0.7528412114762913  1.0000
  S   S65       1.0  0.8692635520229381  0.6396815967749613  0.7630430932486509  1.0000
  S   S66       1.0  0.8078187714479766  0.5979924480426269  0.8097178600162233  1.0000
  Fe  Fe34      1.0  0.824828172010099  0.6573090749874312  0.6631583452140023  1.0000
  S   S67       1.0  0.8671488837613167  0.6752405363204977  0.666026754735576  1.0000
  S   S68       1.0  0.80029590579177  0.6623870628906039  0.6018319170024277  1.0000
  Fe  Fe35      1.0  0.8771105701203241  0.6272699968171478  0.6900618514591171  1.0000
  S   S69       1.0  0.9160422599037934  0.6050954329614313  0.6622537642790111  1.0000
  Fe  Fe36      1.0  0.8557622771766003  0.6862877901580381  0.7384444518892828  1.0000
  S   S70       1.0  0.8709239073004883  0.72819125863389  0.7757398385700371  1.0000
  S   S71       1.0  0.8356979701894174  0.6079946534507842  0.6818457862813789  1.0000
  S   S72       1.0  0.8121256293532696  0.6733455960310926  0.733827314522742  1.0000
  Fe  Fe37      1.0  0.0477500920913847  0.531989673524713  0.8922351898410573  1.0000
  S   S73       1.0  0.030819542783392828  0.5631560756763372  0.8404461428626386  1.0000
  S   S74       1.0  0.05353484267098896  0.5541159269574554  0.9598237258272744  1.0000
  Fe  Fe38      1.0  0.0512190217255204  0.4750888241247001  0.8289649218729382  1.0000
  S   S75       1.0  0.035020395657807235  0.50146803121157  0.7712753878566933  1.0000
  S   S76       1.0  0.06317477944450944  0.42407523316851037  0.823360149966955  1.0000
  Fe  Fe39      1.0  0.06237062618056577  0.5398583405329359  0.7940085303410466  1.0000
  S   S77       1.0  0.08985291701214397  0.5679288876758187  0.7486160499905234  1.0000
  Fe  Fe40      1.0  0.005274087693812213  0.5219564956093218  0.8237630722597289  1.0000
  S   S78       1.0  0.9601246830072634  0.5258603763508344  0.8203244876848336  1.0000
  S   S79       1.0  0.08136895204571554  0.511508245895307  0.847071874573021  1.0000
  S   S80       1.0  0.01941843939141985  0.49265081974484676  0.8800120515542708  1.0000
  Fe  Fe41      1.0  0.21335298323090898  0.7320043878807502  0.778150471380654  1.0000
  S   S81       1.0  0.236519600826365  0.7148541392181285  0.7157934123698202  1.0000
  S   S82       1.0  0.19943910821396785  0.7813907367026032  0.7921731988050754  1.0000
  Fe  Fe42      1.0  0.20249300880003104  0.666258760059482  0.8111940202830281  1.0000
  S   S83       1.0  0.22582302458787373  0.6431050974265121  0.7525781251107333  1.0000
  S   S84       1.0  0.17530546885039108  0.6415111176256783  0.8610199175615241  1.0000
  Fe  Fe43      1.0  0.25559371175317275  0.6815952086906963  0.7633616403492943  1.0000
  S   S85       1.0  0.3006539141991532  0.674405030590498  0.7553356138662256  1.0000
  Fe  Fe44      1.0  0.20445208465484224  0.6784278488079232  0.711219922231262  1.0000
  S   S86       1.0  0.1789606267008898  0.6672707540202863  0.6525623272816505  1.0000
  S   S87       1.0  0.23433254038563084  0.7014480438522268  0.8264913921059591  1.0000
  S   S88       1.0  0.17950001564756266  0.6989040444033404  0.769197976370866  1.0000
  Fe  Fe45      1.0  0.04584134938914364  0.8045673269619665  0.824842695229286  1.0000
  S   S89       1.0  0.059577250462976794  0.7571092079413636  0.7979163685926254  1.0000
  S   S90       1.0  0.06794745826943771  0.8247221738560967  0.8827427746149183  1.0000
  Fe  Fe46      1.0  0.007885544031113412  0.8150925363520842  0.7481797860698929  1.0000
  S   S91       1.0  0.018225579789950208  0.7682849140020935  0.7158438640196821  1.0000
  S   S92       1.0  0.981393779256555  0.8497462351248363  0.7137741727507659  1.0000
  Fe  Fe47      1.0  0.015623022586468416  0.7506219375192624  0.7861060897353538  1.0000
  S   S93       1.0  0.9961174985307089  0.7042679020375042  0.7955846177968279  1.0000
  Fe  Fe48      1.0  0.060779259286427724  0.77990687788814  0.7309372399276954  1.0000
  S   S94       1.0  0.09527072288256976  0.7721012309664479  0.6807594882756295  1.0000
  S   S95       1.0  0.001252720744548963  0.7965719552072528  0.8181143026037228  1.0000
  S   S96       1.0  0.05088699994366786  0.8279813252251733  0.7584001431714618  1.0000
  Fe  Fe49      1.0  0.22349175195186016  0.09974969483375529  0.43575684569814954  1.0000
  S   S97       1.0  0.2239443910410884  0.14398220985821908  0.4781808871836525  1.0000
  S   S98       1.0  0.22475776999242045  0.0993652985461686  0.36029135198032214  1.0000
  Fe  Fe50      1.0  0.21912000782847085  0.05757895254168699  0.5155953887484281  1.0000
  S   S99       1.0  0.21891054371257193  0.09731301220463551  0.565944909657887  1.0000
  S   S100      1.0  0.21783330320490685  0.006349128308170027  0.5301046749122765  1.0000
  Fe  Fe51      1.0  0.19065170142243865  0.12120598599617473  0.5196015618981472  1.0000
  S   S101      1.0  0.15144210694267127  0.1432504468688094  0.5478101694359412  1.0000
  Fe  Fe52      1.0  0.2520099193102354  0.11667934708400796  0.5207337720142738  1.0000
  S   S102      1.0  0.2922296630168737  0.13284825957523605  0.5441544002937391  1.0000
  S   S103      1.0  0.18790489212320105  0.07937970413847917  0.4733740765150229  1.0000
  S   S104      1.0  0.25456482517599943  0.07462590659369517  0.47446113114445926  1.0000
  Fe  Fe53      1.0  0.09272473729543446  0.3036968432230283  0.5160289787475568  1.0000
  S   S105      1.0  0.09167830360277196  0.30224930897741864  0.5913552979673371  1.0000
  S   S106      1.0  0.1205496855871766  0.27517048880750417  0.46860784027167957  1.0000
  Fe  Fe54      1.0  0.04776435350010044  0.3534016287919014  0.5150128252219307  1.0000
  S   S107      1.0  0.04231567404618808  0.3559914778357075  0.5903470458443614  1.0000
  S   S108      1.0  0.02025340049636659  0.37724015153092705  0.4676587848092393  1.0000
  Fe  Fe55      1.0  0.08784424827589299  0.3547551267989186  0.5886449325871684  1.0000
  S   S109      1.0  0.11353513988845765  0.3851830182195933  0.6314317161976634  1.0000
  Fe  Fe56      1.0  0.04649575547844842  0.3034488288013461  0.5860914936346363  1.0000
  S   S110      1.0  0.018466518868723192  0.2733606035148889  0.6276743615375063  1.0000
  S   S111      1.0  0.09311872510619949  0.3561406085463591  0.5134668362344961  1.0000
  S   S112      1.0  0.047796551686148936  0.3010132038352253  0.510770130676622  1.0000
  Fe  Fe57      1.0  0.08929320227021154  0.9408435395467003  0.4470519298083131  1.0000
  S   S113      1.0  0.04486872939587849  0.9396974442183843  0.4347479321931165  1.0000
  S   S114      1.0  0.12219818044568731  0.9251854934720926  0.396482861885409  1.0000
  Fe  Fe58      1.0  0.07959011959105745  0.9614998765738606  0.5448251806360976  1.0000
  S   S115      1.0  0.03439781928097041  0.9617439413559005  0.5419310182634984  1.0000
  S   S116      1.0  0.10015064796792968  0.9772521717819145  0.6062702292745872  1.0000
  Fe  Fe59      1.0  0.041257350750401045  0.9167620061173312  0.5019428641629641  1.0000
  S   S117      1.0  0.02009656911871205  0.8709750324499634  0.5109627708549448  1.0000
  Fe  Fe60      1.0  0.042404867233253984  0.9847521239478777  0.47552804132590787  1.0000
  S   S118      1.0  0.02263565560650238  0.02976872699975086  0.4557803149313933  1.0000
  S   S119      1.0  0.08600136078726837  0.9144351074448634  0.5111818927323389  1.0000
  S   S120      1.0  0.08735438038371446  0.9879385837936892  0.4816468078911834  1.0000
  Fe  Fe61      1.0  0.8776429851391631  0.16645186644197912  0.5874975765429237  1.0000
  S   S121      1.0  0.8549157707914943  0.12904323843535903  0.5519432100418162  1.0000
  S   S122      1.0  0.8653276590033451  0.18522467044332092  0.657122522297575  1.0000
  Fe  Fe62      1.0  0.9205972630482815  0.1697659345289679  0.5111481762873198  1.0000
  S   S123      1.0  0.900733604229151  0.13340718207297697  0.46860161266676686  1.0000
  S   S124      1.0  0.9607096496898325  0.18916912349930193  0.48743510045793553  1.0000
  Fe  Fe63      1.0  0.8618831899239605  0.15840933266834104  0.49101292629094884  1.0000
  S   S125      1.0  0.8255736198024065  0.17044212504283948  0.45128080507677515  1.0000
  Fe  Fe64      1.0  0.8957679139702035  0.10778991683529004  0.5335816864628292  1.0000
  S   S126      1.0  0.9049265836517646  0.056545417333414116  0.5427777936664469  1.0000
  S   S127      1.0  0.8822173520723035  0.19749616059494038  0.5278057867792808  1.0000
  S   S128      1.0  0.9181820618330554  0.14250815838928357  0.5745280590318705  1.0000
  Fe  Fe65      1.0  0.5129493534794911  0.9457307098409979  0.2706126378582243  1.0000
  S   S129      1.0  0.539810556529926  0.9805994616319875  0.23658099519823092  1.0000
  S   S130      1.0  0.4800949552125078  0.919973731178119  0.2362489302752168  1.0000
  Fe  Fe66      1.0  0.5398339279636619  0.952829800087903  0.3594672615027957  1.0000
  S   S131      1.0  0.5686813867334463  0.9888914648408362  0.3334286845678177  1.0000
  S   S132      1.0  0.5426279097495121  0.9350641500487388  0.4295813462347607  1.0000
  Fe  Fe67      1.0  0.5327846468324214  0.00909400175545061  0.30028078218646703  1.0000
  S   S133      1.0  0.5239497246488022  0.0610546133990193  0.30134087230374623  1.0000
  Fe  Fe68      1.0  0.5732555527310829  0.9573424548003219  0.2724137717851326  1.0000
  S   S134      1.0  0.6133376488670451  0.9494990909771067  0.23513899114373454  1.0000
  S   S135      1.0  0.503104698827698  0.975920625763883  0.3321032051788144  1.0000
  S   S136      1.0  0.5471757090745156  0.9193784060470708  0.3007173399555042  1.0000
  Fe  Fe69      1.0  0.5304561379575189  0.28313169306326114  0.40039517991196316  1.0000
  S   S137      1.0  0.5233199039025429  0.2388634169683643  0.3611341934615864  1.0000
  S   S138      1.0  0.5081009567164896  0.294591492337413  0.46650527650003254  1.0000
  Fe  Fe70      1.0  0.568631417335871  0.30892342582436827  0.32902122939441747  1.0000
  S   S139      1.0  0.56549987087573  0.2669736985689953  0.2833507133192564  1.0000
  S   S140      1.0  0.5952579954147672  0.34848348655545586  0.30735915855873003  1.0000
  Fe  Fe71      1.0  0.5211564969626131  0.27006209149334703  0.30177504714325826  1.0000
  S   S141      1.0  0.49459805259930717  0.262201709802018  0.24382457840620148  1.0000
  Fe  Fe72      1.0  0.5681513156387348  0.23888174307735255  0.34572732816380386  1.0000
  S   S142      1.0  0.5891563436898736  0.19171465965193482  0.345451368296164  1.0000
  S   S143      1.0  0.5237594099743613  0.31466447626847494  0.34213696539672145  1.0000
  S   S144      1.0  0.5758500958834688  0.2806417368997103  0.3902967820988278  1.0000
  Fe  Fe73      1.0  0.3492597123404906  0.13348139458457764  0.16341127492494245  1.0000
  S   S145      1.0  0.3901972149395603  0.1538759426438396  0.17307727341823428  1.0000
  S   S146      1.0  0.32430678341051844  0.15408321028339936  0.10978703174371596  1.0000
  Fe  Fe74      1.0  0.35421589093490025  0.08716720069225035  0.23744810483690595  1.0000
  S   S147      1.0  0.3953448430193076  0.10314568997140429  0.25468548270911956  1.0000
  S   S148      1.0  0.33685978320012194  0.04777571000987968  0.2778917168278547  1.0000
  Fe  Fe75      1.0  0.37882456886176635  0.15185218028659575  0.24683547608858372  1.0000
  S   S149      1.0  0.3891339943603592  0.1875423071721731  0.29991257250588493  1.0000
  Fe  Fe76      1.0  0.40403737975218257  0.10422961140119691  0.18018494154684406  1.0000
  S   S150      1.0  0.44350955607236164  0.08692915719217686  0.14728442969736888  1.0000
  S   S151      1.0  0.336398635411655  0.13601014938048595  0.23684253509353406  1.0000
  S   S152      1.0  0.3643242037598863  0.08343254792713672  0.16324923891925355  1.0000
  Fe  Fe77      1.0  0.7303406255495655  0.08117674563325394  0.17082743272163148  1.0000
  S   S153      1.0  0.6925240452914446  0.09704926442430217  0.21005359029633333  1.0000
  S   S154      1.0  0.7252305098310009  0.06280515150197807  0.10058043176303924  1.0000
  Fe  Fe78      1.0  0.7673087994749602  0.10093852219705712  0.24453071510744426  1.0000
  S   S155      1.0  0.7326351089296278  0.11899472199052741  0.28977294788690616  1.0000
  S   S156      1.0  0.8107131593388215  0.10043102908020707  0.26487243129028615  1.0000
  Fe  Fe79      1.0  0.7119363135025704  0.07515656905188162  0.26868554128169736  1.0000
  S   S157      1.0  0.6900082015006721  0.04810716599080034  0.32282802948493317  1.0000
  Fe  Fe80      1.0  0.7166134773467017  0.13926623872882882  0.2273708893931172  1.0000
  S   S158      1.0  0.698386230273361  0.18782139977059095  0.2258093028735809  1.0000
  S   S159      1.0  0.7477461467545182  0.05514824775716742  0.2279043057356084  1.0000
  S   S160      1.0  0.7531840242458127  0.12524686653521777  0.18357560137410828  1.0000
  Fe  Fe81      1.0  0.549631020774612  0.9687977133863037  0.710804784482915  1.0000
  S   S161      1.0  0.5647000814288705  0.9938154920144009  0.771330569101177  1.0000
  S   S162      1.0  0.5259019711001853  0.9246774253772271  0.7196338934312195  1.0000
  Fe  Fe82      1.0  0.5670333398419971  0.020045684652375995  0.6464015374542698  1.0000
  S   S163      1.0  0.5832925924559295  0.049848171541908126  0.7017020845974589  1.0000
  S   S164      1.0  0.5643300072259022  0.0390970542923339  0.5765648380754169  1.0000
  Fe  Fe83      1.0  0.6005797701226332  0.004513218020062437  0.7255767733662354  1.0000
  S   S165      1.0  0.6431231297956413  0.004003007095061628  0.7484247372241094  1.0000
  Fe  Fe84      1.0  0.5460690064932916  0.03653132600267428  0.7422712498996498  1.0000
  S   S166      1.0  0.5210660033741233  0.07013487888101588  0.7867449653714038  1.0000
  S   S167      1.0  0.5873595956023441  0.9752962194684274  0.6670189949580239  1.0000
  S   S168      1.0  0.5280549240401635  0.010879670799437635  0.6848448448338739  1.0000
  Fe  Fe85      1.0  0.5503457121831207  0.26535925462995325  0.7953206627329938  1.0000
  S   S169      1.0  0.5592525895501813  0.3134347262102696  0.7703219775243828  1.0000
  S   S170      1.0  0.5734586532988697  0.24177303785143375  0.8486191678697613  1.0000
  Fe  Fe86      1.0  0.501436848077739  0.2580657811025386  0.738476986664109  1.0000
  S   S171      1.0  0.5055066314073744  0.3059622177883086  0.7093376004474237  1.0000
  S   S172      1.0  0.47176522766205553  0.22306834843183465  0.7137224082511893  1.0000
  Fe  Fe87      1.0  0.5499195191045558  0.29365921064474587  0.7024651038989687  1.0000
  S   S173      1.0  0.5767274508876401  0.29989894008485757  0.640033181767977  1.0000
  Fe  Fe88      1.0  0.5142986833110929  0.3213181179537661  0.7800050171782756  1.0000
  S   S174      1.0  0.5000931956340289  0.36699004985849915  0.8133157176852888  1.0000
  S   S175      1.0  0.5452991427539486  0.24450131898549204  0.726760283760938  1.0000
  S   S176      1.0  0.5059590968492363  0.27432088092080315  0.8097405665787694  1.0000
  Fe  Fe89      1.0  0.3218993423290228  0.10656975366451382  0.7927542098021195  1.0000
  S   S177      1.0  0.3659655047988306  0.111809347056681  0.7734987860911227  1.0000
  S   S178      1.0  0.28694090642136805  0.12639986232715894  0.7558265413137373  1.0000
  Fe  Fe90      1.0  0.3329282309671603  0.07887990946425294  0.8836726455859139  1.0000
  S   S179      1.0  0.3780094535488765  0.08237777330019824  0.8730923106073867  1.0000
  S   S180      1.0  0.3157975002948981  0.058258136159391016  0.9475975267116155  1.0000
  Fe  Fe91      1.0  0.3693521100329666  0.1294350178273103  0.844564625643316  1.0000
  S   S181      1.0  0.3906593402370963  0.17323756702759463  0.8652104680401594  1.0000
  Fe  Fe92      1.0  0.37096435710484854  0.06430631055751812  0.8034704596591339  1.0000
  S   S182      1.0  0.3996518142102188  0.027519077143758564  0.7732359260000919  1.0000
  S   S183      1.0  0.3248336837624989  0.12779145975990283  0.86172626332589  1.0000
  S   S184      1.0  0.32626471071956636  0.056940821870693714  0.815920957421619  1.0000
  Fe  Fe93      1.0  0.7438987738873527  0.14286731589955795  0.8077912322815336  1.0000
  S   S185      1.0  0.7008945189433848  0.1604726175138619  0.807580951738609  1.0000
  S   S186      1.0  0.7614876358574821  0.12111477205921496  0.7432578286311549  1.0000
  Fe  Fe94      1.0  0.7492191828087964  0.16133378673208204  0.9052084159834418  1.0000
  S   S187      1.0  0.7069204967504729  0.18117260933738644  0.9137474508894934  1.0000
  S   S188      1.0  0.7759387015123397  0.15918358144430697  0.9638489249642571  1.0000
  Fe  Fe95      1.0  0.6957021448808881  0.13824378903522527  0.8746057209276427  1.0000
  S   S189      1.0  0.657434335367878  0.11258611454316325  0.8920070170815508  1.0000
  Fe  Fe96      1.0  0.7157076363891676  0.2018956827887912  0.8460495409713401  1.0000
  S   S190      1.0  0.7007487047608528  0.2487798136818301  0.8233166929808885  1.0000
  S   S191      1.0  0.7374079367484744  0.1163640206693708  0.871535052961019  1.0000
  S   S192      1.0  0.7594096719587716  0.18628088024783915  0.8409752499851556  1.0000
  C   C1        1.0  0.4146083329545917  0.18611580635949446  0.8245037204016714  1.0000
  C   C2        1.0  0.42200963169779643  0.16734562333854913  0.7866542947903337  1.0000
  C   C3        1.0  0.43951034708377423  0.17888225479307504  0.7526492716646662  1.0000
  C   C4        1.0  0.4502405978665487  0.2089276761120806  0.7569698935996445  1.0000
  C   C5        1.0  0.4433156622162472  0.22749574380164928  0.7952596755127632  1.0000
  C   C6        1.0  0.4254544319053538  0.21611096012002312  0.8289664527616704  1.0000
  H   H1        1.0  0.4144847122930015  0.1438411400820723  0.7836069577536132  1.0000
  H   H2        1.0  0.44507958880624887  0.16427855401192962  0.7233529255092235  1.0000
  H   H3        1.0  0.45121545263279245  0.2508950033722985  0.7984740427861197  1.0000
  H   H4        1.0  0.41982447975574416  0.23071744912922545  0.8582371496244299  1.0000
  C   C7        1.0  0.6086550989405423  0.24510768499705649  0.8413231867664978  1.0000
  C   C8        1.0  0.6251093342523325  0.23128396692926914  0.8725947375477596  1.0000
  C   C9        1.0  0.6533353751338845  0.2329300179985726  0.8672206022716995  1.0000
  C   C10       1.0  0.6652989015548558  0.2487865737603818  0.8309741296629429  1.0000
  C   C11       1.0  0.6488410559615112  0.2634691274944589  0.8002444482142287  1.0000
  C   C12       1.0  0.6204547530528534  0.2613323969376188  0.8051431786377861  1.0000
  H   H5        1.0  0.6160666808068093  0.21899755678335575  0.900873503138889  1.0000
  H   H6        1.0  0.6657990966268104  0.22213903244540648  0.8915343704242281  1.0000
  H   H7        1.0  0.6579995290904769  0.2756698287210327  0.7720027690241025  1.0000
  H   H8        1.0  0.6078110596711193  0.2719138130859327  0.7806743820535165  1.0000
  C   C13       1.0  0.6468427360605287  0.03440392814028348  0.788000938448008  1.0000
  C   C14       1.0  0.6718800747920235  0.049046049000453174  0.7908012905428116  1.0000
  C   C15       1.0  0.6749216619034176  0.07374851650022318  0.8218792283899945  1.0000
  C   C16       1.0  0.6532021580194804  0.08307740053228008  0.8513075280261969  1.0000
  C   C17       1.0  0.6282521347712845  0.06814447383147892  0.8490473874455128  1.0000
  C   C18       1.0  0.6249368488896927  0.04416194658511641  0.8168670280790599  1.0000
  H   H9        1.0  0.6887643585823949  0.041722576644166454  0.768210434961677  1.0000
  H   H10       1.0  0.6941785997088031  0.08533864424630933  0.8231153729641852  1.0000
  H   H11       1.0  0.611482967401779  0.07514385400703927  0.872019232064643  1.0000
  H   H12       1.0  0.6056033837050839  0.032801075537108204  0.8149449026902205  1.0000
  C   C19       1.0  0.487235202814038  0.057996677253197015  0.7860653038310579  1.0000
  C   C20       1.0  0.4658870429844315  0.07923968802378445  0.7971086535618267  1.0000
  C   C21       1.0  0.43889043659266197  0.06986259096742553  0.7936891501192359  1.0000
  C   C22       1.0  0.43323301480277315  0.03926109178549808  0.7792304947936579  1.0000
  C   C23       1.0  0.4545820219268364  0.017830320401503785  0.7693605388354934  1.0000
  C   C24       1.0  0.48150218364155034  0.02710969766924798  0.7731716991132672  1.0000
  H   H13       1.0  0.47016364127743643  0.10315673571662298  0.807102623541043  1.0000
  H   H14       1.0  0.4225140813260399  0.08655291506509566  0.8012611610488249  1.0000
  H   H15       1.0  0.45026142409260966  0.9941192483939888  0.7585036026429056  1.0000
  H   H16       1.0  0.49780335790253816  0.010278983598718039  0.7661749988601848  1.0000
  C   C25       1.0  0.7399545426544379  0.08886703090117365  0.06232067426983012  1.0000
  C   C26       1.0  0.7246147880390645  0.10029018019353186  0.027704234220885526  1.0000
  C   C27       1.0  0.735866170545943  0.12149525510476566  0.9971050772777031  1.0000
  C   C28       1.0  0.7624429499391757  0.13166816671917547  0.0013014337286771926  1.0000
  C   C29       1.0  0.7777460556857647  0.12062684697433412  0.03636018788849715  1.0000
  C   C30       1.0  0.7665060469129243  0.09914616798358189  0.06687468082368864  1.0000
  H   H17       1.0  0.703753930767338  0.09345805807462138  0.025311539859568244  1.0000
  H   H18       1.0  0.7237340150734278  0.1303580263646642  0.970760964763222  1.0000
  H   H19       1.0  0.7982957950058506  0.1285264030007185  0.03979646507182455  1.0000
  H   H20       1.0  0.778389591251661  0.09044498712154492  0.09380848568074063  1.0000
  C   C31       1.0  0.3176357257958975  0.1273057906706199  0.06627659828545121  1.0000
  C   C32       1.0  0.3139026434329541  0.13843627168449157  0.02304875358786962  1.0000
  C   C33       1.0  0.31217421415575114  0.11727303107820286  0.9866323099806964  1.0000
  C   C34       1.0  0.31376762908651445  0.08492042654607546  0.9934357929832913  1.0000
  C   C35       1.0  0.3157892037735524  0.073784058736452  0.03711679586954886  1.0000
  C   C36       1.0  0.3179370686692265  0.09497083483629477  0.07347244608836512  1.0000
  H   H21       1.0  0.31327610836686176  0.16345385535475287  0.017467134434608234  1.0000
  H   H22       1.0  0.3098481493898202  0.1260469890221012  0.9533294468141837  1.0000
  H   H23       1.0  0.31659928746328336  0.04876156424695833  0.04262785876765385  1.0000
  H   H24       1.0  0.3196835419932561  0.08625900099400431  0.1070219490297411  1.0000
  C   C37       1.0  0.5584210485489401  0.3003678836736242  0.5910026253002443  1.0000
  C   C38       1.0  0.5694845281185693  0.28588340484339997  0.551431154201009  1.0000
  C   C39       1.0  0.5542058676829229  0.28410543681928313  0.5128643996358981  1.0000
  C   C40       1.0  0.5281085718279896  0.29749141906622945  0.513512206935551  1.0000
  C   C41       1.0  0.5173289122769813  0.3126160115752682  0.5527250706097271  1.0000
  C   C42       1.0  0.5324093935294627  0.3139489153540034  0.5914630915138631  1.0000
  H   H25       1.0  0.5895434933699267  0.2751356371469368  0.5510925227713542  1.0000
  H   H26       1.0  0.5624155944560534  0.2716939027462005  0.4831518599537185  1.0000
  H   H27       1.0  0.49715671142748286  0.3230930462161034  0.5533382170951506  1.0000
  H   H28       1.0  0.5239871439648779  0.32573725802754955  0.6215885331930328  1.0000
  C   C43       1.0  0.46482771967497644  0.24264406481801004  0.25992836547490555  1.0000
  C   C44       1.0  0.44902488089121867  0.22967299656453294  0.22674870100957006  1.0000
  C   C45       1.0  0.4256636078218225  0.21303311886527382  0.238969485009102  1.0000
  C   C46       1.0  0.4179880865740948  0.2092032551844901  0.28434338039659296  1.0000
  C   C47       1.0  0.4335338373785718  0.222766292607806  0.3175819722797833  1.0000
  C   C48       1.0  0.4569958213140771  0.2394044063184891  0.3053955269843631  1.0000
  H   H29       1.0  0.45476630492667736  0.23249702883991727  0.19154023990108746  1.0000
  H   H30       1.0  0.4132370767029285  0.20395016365325386  0.21318330915470945  1.0000
  H   H31       1.0  0.42750389908648645  0.22026787321906757  0.35274465284647977  1.0000
  H   H32       1.0  0.4687181775136307  0.250058857879339  0.3312042593109588  1.0000
  C   C49       1.0  0.619800996934132  0.19137418155389602  0.31301988297456745  1.0000
  C   C50       1.0  0.6294203589496907  0.21868895594489587  0.29290327847904135  1.0000
  C   C51       1.0  0.6536107269485654  0.21764015911503612  0.2660185701151793  1.0000
  C   C52       1.0  0.6683724064912554  0.189388203680766  0.2598507890876558  1.0000
  C   C53       1.0  0.6589557622958451  0.16228286481027768  0.2806861537659083  1.0000
  C   C54       1.0  0.634595064078694  0.1632237554324546  0.3067885395529648  1.0000
  H   H33       1.0  0.6184809939183354  0.2407048375348009  0.2983464873152792  1.0000
  H   H34       1.0  0.6609986540032879  0.23875886846207942  0.25040449176408175  1.0000
  H   H35       1.0  0.670429453602422  0.14053992115549122  0.27679899071973474  1.0000
  H   H36       1.0  0.6273345529637724  0.14212042870844946  0.32213518791980483  1.0000
  C   C55       1.0  0.5512141423705375  0.9645923025287355  0.46789545405116323  1.0000
  C   C56       1.0  0.5442691985772262  0.9960058999525432  0.46077096556138747  1.0000
  C   C57       1.0  0.5489875026327936  0.01896638266741224  0.4939093491896008  1.0000
  C   C58       1.0  0.560578320883208  0.01051470737127258  0.5341509670509046  1.0000
  C   C59       1.0  0.5682295550172175  0.9792531494059029  0.5405916390474387  1.0000
  C   C60       1.0  0.5636722011298388  0.9563563248560037  0.5073636181798018  1.0000
  H   H37       1.0  0.5344317350533622  0.0023915863120238523  0.43043201668701425  1.0000
  H   H38       1.0  0.5429118299105803  0.043126507636772615  0.48897001373808613  1.0000
  H   H39       1.0  0.5776982089967603  0.9726981756397549  0.5710935706482972  1.0000
  H   H40       1.0  0.5696124116664792  0.9321506049518286  0.5123514497779145  1.0000
  C   C61       1.0  0.6368291730629306  0.9743811570831489  0.25954501045881617  1.0000
  C   C62       1.0  0.6542648809558276  0.9921672385622247  0.23218612173632808  1.0000
  C   C63       1.0  0.6711496218160939  0.014365747126487305  0.2515877606610861  1.0000
  C   C64       1.0  0.6708766758743923  0.01847929396595349  0.2984006937987592  1.0000
  C   C65       1.0  0.6543650490275066  0.9996750784003451  0.3258512119566448  1.0000
  C   C66       1.0  0.6371976780397248  0.977833877751469  0.30641819061685094  1.0000
  H   H41       1.0  0.6541271452292249  0.9894788750499691  0.19594770657135338  1.0000
  H   H42       1.0  0.6841281407196272  0.028487697891484087  0.23017570043469474  1.0000
  H   H43       1.0  0.6544569080002427  0.0023224622343587242  0.3620741311327805  1.0000
  H   H44       1.0  0.6243365200687255  0.9634723873000821  0.3277045882646749  1.0000
  C   C67       1.0  0.5027931988817315  0.0698162157576212  0.25737997484470965  1.0000
  C   C68       1.0  0.48188116241947093  0.09219529242437119  0.2642665572113551  1.0000
  C   C69       1.0  0.464298551032142  0.09844644909839406  0.22974361874842786  1.0000
  C   C70       1.0  0.46734111484744845  0.08203853326267319  0.1885339383941982  1.0000
  C   C71       1.0  0.48896329673685224  0.06067778165400761  0.18097059022907538  1.0000
  C   C72       1.0  0.5067354150798027  0.05470483493061007  0.21531290251822424  1.0000
  H   H45       1.0  0.4789335780965498  0.1042997162121484  0.29651784542779674  1.0000
  H   H46       1.0  0.44868874645211704  0.11638149143003584  0.23485701252221247  1.0000
  H   H47       1.0  0.49173058281539817  0.04834513271317409  0.14885033662382183  1.0000
  H   H48       1.0  0.5236784426869078  0.0387113022114427  0.20888163546985788  1.0000
  C   C73       1.0  0.8355528599341369  0.16918785432284755  0.680849990142104  1.0000
  C   C74       1.0  0.8173324329361039  0.15382971707124138  0.6537570011567452  1.0000
  C   C75       1.0  0.7946884037349141  0.1390198347770644  0.6732656513622208  1.0000
  C   C76       1.0  0.7897286949844443  0.14028907754495526  0.719933368500743  1.0000
  C   C77       1.0  0.8073650124254722  0.15659978136839614  0.747098236766113  1.0000
  C   C78       1.0  0.8303158110522465  0.1709871492625592  0.7275383251830728  1.0000
  H   H49       1.0  0.8203359791324855  0.15383431001965828  0.6176960391685217  1.0000
  H   H50       1.0  0.7808021121269866  0.12687819312641294  0.652100574791464  1.0000
  H   H51       1.0  0.8038344094538158  0.15728792253113988  0.7832543195895544  1.0000
  H   H52       1.0  0.8443358579407861  0.1829264314350192  0.7486807046128542  1.0000
  C   C79       1.0  0.822897044587282  0.15203091189533022  0.39835429689464746  1.0000
  C   C80       1.0  0.8420931023577058  0.12963580730489666  0.38167257481111866  1.0000
  C   C81       1.0  0.838675576766925  0.11444805519322032  0.3399560932485989  1.0000
  C   C82       1.0  0.8160167482714493  0.12150915597015577  0.31502872696657214  1.0000
  C   C83       1.0  0.7971584102644484  0.14430645736102  0.3313980654013729  1.0000
  C   C84       1.0  0.8005327213319511  0.15943008977892992  0.37301061069866176  1.0000
  H   H53       1.0  0.8594132460287703  0.12380562304920795  0.40097935043983235  1.0000
  H   H54       1.0  0.8533949019765501  0.09690169909812374  0.3273120179797895  1.0000
  H   H55       1.0  0.7801973650384065  0.15072673862781308  0.31168886019692166  1.0000
  H   H56       1.0  0.7858228581600082  0.17702642070667318  0.385533687779625  1.0000
  C   C85       1.0  0.9899269001895958  0.03635587181626443  0.4802880452290033  1.0000
  C   C86       1.0  0.9782747564504997  0.06645000968717452  0.47892591435823206  1.0000
  C   C87       1.0  0.9524704962329573  0.07264192798297531  0.49897844035664013  1.0000
  C   C88       1.0  0.9377637959847305  0.04859710341410706  0.5193856496107728  1.0000
  C   C89       1.0  0.949346536261538  0.018381343907722947  0.5207909198311075  1.0000
  C   C90       1.0  0.9755360136958314  0.012293745056180416  0.5014689815377357  1.0000
  H   H57       1.0  0.9891419357583385  0.08511289985265846  0.4623728491188241  1.0000
  H   H58       1.0  0.9439701509921733  0.09608918390676946  0.4982631716259978  1.0000
  H   H59       1.0  0.9380558519498376  0.9996933357404201  0.5365324121300618  1.0000
  H   H60       1.0  0.9843290614911112  0.9889180757543307  0.5022463774743011  1.0000
  C   C91       1.0  0.004358324894681687  0.24465474981966367  0.5931777525222438  1.0000
  C   C92       1.0  0.9782327683658315  0.23371766482486023  0.6035371578357894  1.0000
  C   C93       1.0  0.9651498250895816  0.21485494862509372  0.5722067423938103  1.0000
  C   C94       1.0  0.9782418504383555  0.2070935799258475  0.5305903257435564  1.0000
  C   C95       1.0  0.005012631346120733  0.2162351403183913  0.5216734714482311  1.0000
  C   C96       1.0  0.018145401799947836  0.2347120619165293  0.553143850909888  1.0000
  H   H61       1.0  0.9675810946993695  0.2410731496293837  0.6347221010042671  1.0000
  H   H62       1.0  0.9444666342488607  0.20774595699719875  0.5793403037649081  1.0000
  H   H63       1.0  0.015297563523263502  0.20993163733130996  0.48974684906107707  1.0000
  H   H64       1.0  0.038839117923868294  0.24164997341271854  0.5461023731334335  1.0000
  C   C97       1.0  0.18579208753432225  0.9978942395744324  0.5537996557077607  1.0000
  C   C98       1.0  0.17563915495207832  0.9676038103495991  0.5492689746673912  1.0000
  C   C99       1.0  0.1492569969606946  0.9612269534549531  0.5656033602831544  1.0000
  C   C100      1.0  0.13351804030479875  0.9848178059737457  0.5881127050722624  1.0000
  C   C101      1.0  0.14389931923678628  0.014922483885593696  0.5935259497868641  1.0000
  C   C102      1.0  0.16987332023295415  0.021630367002749118  0.5755899845221581  1.0000
  H   H65       1.0  0.18786371871912053  0.9493013817805612  0.5321111638034711  1.0000
  H   H66       1.0  0.14109515246736273  0.9380627529931173  0.5607984165562161  1.0000
  H   H67       1.0  0.1315140864885919  0.033310268435057466  0.6102051162924286  1.0000
  H   H68       1.0  0.17744432747250302  0.045212902113147324  0.5785203972164371  1.0000
  C   C103      1.0  0.14260368092854622  0.17948173461614123  0.5247367013712194  1.0000
  C   C104      1.0  0.1563800221436148  0.19038236075319367  0.48613284665939754  1.0000
  C   C105      1.0  0.1492848130103309  0.2196175274853121  0.46868348786430863  1.0000
  C   C106      1.0  0.12843081753634872  0.23806214040394685  0.4898290470210847  1.0000
  C   C107      1.0  0.1141458707811234  0.22678456269561179  0.5277357451035293  1.0000
  C   C108      1.0  0.12120180957166063  0.19751852265169198  0.5451029824221112  1.0000
  H   H69       1.0  0.1724796179705181  0.1763352554415826  0.469634087474213  1.0000
  H   H70       1.0  0.16023263324159606  0.22810431567374298  0.439136396301969  1.0000
  H   H71       1.0  0.09772624022424581  0.24061092195460135  0.5437936341985791  1.0000
  H   H72       1.0  0.11036833857746779  0.189103476603388  0.5748061213353377  1.0000
  C   C109      1.0  0.2918889364275219  0.1338628186703661  0.6031256697535352  1.0000
  C   C110      1.0  0.2678025906454494  0.14121399868736706  0.6279506003716946  1.0000
  C   C111      1.0  0.26696905499588547  0.1400489699943364  0.674975086341951  1.0000
  C   C112      1.0  0.290018120573807  0.1308184411545672  0.6973807505394407  1.0000
  C   C113      1.0  0.3143604576972099  0.12407426274484368  0.6727515297857618  1.0000
  C   C114      1.0  0.315343328233921  0.12591214328634126  0.6255579658374782  1.0000
  H   H73       1.0  0.24979555803713627  0.14800383635041053  0.6108712572246024  1.0000
  H   H74       1.0  0.2481796861781603  0.14562505754718028  0.6939650841677995  1.0000
  H   H75       1.0  0.33220473539012196  0.11675170921844136  0.6898140885410688  1.0000
  H   H76       1.0  0.3340046659367106  0.12013628706306467  0.6063503751233721  1.0000
  C   C115      1.0  0.25380574848776705  0.08108782555104299  0.3345320609096728  1.0000
  C   C116      1.0  0.2634883258031933  0.09120250337258362  0.2924311725423689  1.0000
  C   C117      1.0  0.2884849051532781  0.07982404849372493  0.2738598654831286  1.0000
  C   C118      1.0  0.3036595626023832  0.05797270061462556  0.29704825848898386  1.0000
  C   C119      1.0  0.293060497327901  0.04613163598050507  0.33761110648030435  1.0000
  C   C120      1.0  0.2681796963645219  0.05779064880767204  0.3564256067345908  1.0000
  H   H77       1.0  0.2521687188057054  0.10874085860028737  0.2748703490673698  1.0000
  H   H78       1.0  0.2960629806770243  0.08814070333280166  0.2416551248240884  1.0000
  H   H79       1.0  0.30459667577417143  0.028907709560361598  0.35535225001530535  1.0000
  H   H80       1.0  0.26034752935586253  0.04892196903771052  0.3879847599334368  1.0000
  C   C121      1.0  0.9924647994888678  0.8558368486239452  0.6575448339580181  1.0000
  C   C122      1.0  0.0056784339884936585  0.8317190057414835  0.6319476464045072  1.0000
  C   C123      1.0  0.013723073201644898  0.8363840107951784  0.586796513975605  1.0000
  C   C124      1.0  0.009384348037455137  0.8655333126215178  0.5673259342964709  1.0000
  C   C125      1.0  0.9964796980523898  0.8898692257224213  0.5929348571445306  1.0000
  C   C126      1.0  0.9875551294915436  0.8848101338023329  0.6377427295715339  1.0000
  H   H81       1.0  0.009412504104234332  0.8092486917441559  0.6465356703691634  1.0000
  H   H82       1.0  0.02366459039063007  0.8174913882946185  0.5670958524144369  1.0000
  H   H83       1.0  0.9927822347939198  0.9123605122074007  0.5778912719166287  1.0000
  H   H84       1.0  0.9771686152148176  0.903516118428274  0.6572119255159198  1.0000
  C   C127      1.0  0.17171706107116977  0.7846259564974061  0.7580643309932222  1.0000
  C   C128      1.0  0.17318506435455994  0.7704521856226865  0.7151308411921864  1.0000
  C   C129      1.0  0.14987753887327163  0.768084770462266  0.6903107654527079  1.0000
  C   C130      1.0  0.12493664387416045  0.7791391348753834  0.7089746816049507  1.0000
  C   C131      1.0  0.12354905418768297  0.7939831774666529  0.7515138583360148  1.0000
  C   C132      1.0  0.14702649735602177  0.7971010090723845  0.7758321065532445  1.0000
  H   H85       1.0  0.19223236628464377  0.7606393023368665  0.7013961672089244  1.0000
  H   H86       1.0  0.15104522458857372  0.7564827811092635  0.6575456989844748  1.0000
  H   H87       1.0  0.10439266480069485  0.8025832650211934  0.7662538773428129  1.0000
  H   H88       1.0  0.14581381877550278  0.8078559723594777  0.8091743344598222  1.0000
  C   C133      1.0  0.07688923137626413  0.4142519615207474  0.7695893116993698  1.0000
  C   C134      1.0  0.10324547055164235  0.4016787534181346  0.7648639603571661  1.0000
  C   C135      1.0  0.11426963600543738  0.3926690154943071  0.7222563713817992  1.0000
  C   C136      1.0  0.0986792105180132  0.3952258943071164  0.6844215983301317  1.0000
  C   C137      1.0  0.07207460662841993  0.4072350114169075  0.6890910633876126  1.0000
  C   C138      1.0  0.06126310687467408  0.4171253906101785  0.73171122120894  1.0000
  H   H89       1.0  0.11523940477811356  0.3991845833445269  0.7941885724461701  1.0000
  H   H90       1.0  0.1348628151247031  0.3834327632344183  0.7186599291964009  1.0000
  H   H91       1.0  0.06008201111456718  0.4095756503656194  0.6597620528272882  1.0000
  H   H92       1.0  0.040757944644711275  0.42661394080072873  0.7354264758227752  1.0000
  C   C139      1.0  0.15158371509560917  0.6204961141290556  0.8303898641862766  1.0000
  C   C140      1.0  0.12940485766959778  0.6064385584695152  0.8525331069060111  1.0000
  C   C141      1.0  0.11036012884506088  0.5901237700011741  0.8276684479462643  1.0000
  C   C142      1.0  0.11369049378552201  0.5874650733202779  0.7806857780053862  1.0000
  C   C143      1.0  0.13597123919197696  0.6012787349088756  0.758749062626394  1.0000
  C   C144      1.0  0.15461084554990165  0.6180611086705879  0.7834299132621011  1.0000
  H   H93       1.0  0.1267602581652528  0.6082929454804906  0.8888214718927164  1.0000
  H   H94       1.0  0.09302529886256425  0.5798567340173025  0.8449857763069107  1.0000
  H   H95       1.0  0.1389861102739562  0.5988987969310712  0.7226154914010514  1.0000
  H   H96       1.0  0.17145324137492868  0.6288098039307864  0.7657983214446786  1.0000
  C   C145      1.0  0.9056068625395156  0.7212132455568511  0.7823507916562845  1.0000
  C   C146      1.0  0.91927214183967  0.6970997048666014  0.757345163905416  1.0000
  C   C147      1.0  0.9470769004327116  0.6918235005743738  0.7616307476891653  1.0000
  C   C148      1.0  0.9613754218130167  0.7108474281803472  0.7906515436806592  1.0000
  C   C149      1.0  0.9478679892604209  0.7351463117966662  0.8154697464715144  1.0000
  C   C150      1.0  0.9199262144155803  0.7402279448105387  0.8115065019988458  1.0000
  H   H97       1.0  0.9086842896704517  0.6828850817937033  0.7336910922248633  1.0000
  H   H98       1.0  0.9575589571115624  0.673366465617575  0.7417660289883652  1.0000
  H   H99       1.0  0.9588561990246967  0.7496867406315473  0.8383465028816374  1.0000
  H   H100      1.0  0.9094761335190845  0.7589392423450015  0.8308631798575447  1.0000
  C   C151      1.0  0.9481768775831587  0.5447445079290932  0.7732090672773201  1.0000
  C   C152      1.0  0.9660248079502459  0.5548639114024754  0.7387218987200501  1.0000
  C   C153      1.0  0.9560581336946402  0.5726830822568754  0.7036517860806814  1.0000
  C   C154      1.0  0.9283614434081484  0.5805364371114999  0.7034420475316728  1.0000
  C   C155      1.0  0.9105577404919591  0.5698037260118697  0.7374223128847556  1.0000
  C   C156      1.0  0.9204273238718333  0.5517902950904265  0.7720795396956094  1.0000
  H   H101      1.0  0.9874997853684802  0.5494600470569143  0.7395264439554305  1.0000
  H   H102      1.0  0.9698500444640148  0.5809668748377842  0.6773318912475178  1.0000
  H   H103      1.0  0.8890749099584812  0.5752153213661074  0.7369214484534828  1.0000
  H   H104      1.0  0.9065439309478401  0.5437593584305588  0.7984845040456381  1.0000
  C   C157      1.0  0.08749246224603602  0.9001604840304691  0.26118696500512956  1.0000
  C   C158      1.0  0.11014339889777935  0.8838098359310078  0.27586165228684495  1.0000
  C   C159      1.0  0.12122966458597606  0.8922212690454974  0.316882990689057  1.0000
  C   C160      1.0  0.10935300105323664  0.9165788077573385  0.34374779715156356  1.0000
  C   C161      1.0  0.08682549271778783  0.9331248947738995  0.32894998459494396  1.0000
  C   C162      1.0  0.07605306883148422  0.9250881256902491  0.2874990999142751  1.0000
  H   H105      1.0  0.11947015119582126  0.8650678012725694  0.2551824995610079  1.0000
  H   H106      1.0  0.13877121209025206  0.8795223585178896  0.3280849410976066  1.0000
  H   H107      1.0  0.07783011346605817  0.9523009698152617  0.3492368132876307  1.0000
  H   H108      1.0  0.05862172225522899  0.9379200177425356  0.27614084204515227  1.0000
  C   C163      1.0  0.043372079533985364  0.7880897520153982  0.021533189641881778  1.0000
  C   C164      1.0  0.026854434790255732  0.7826286690102543  0.9852087630653332  1.0000
  C   C165      1.0  0.03450520057025552  0.7932711801144723  0.9421916480040323  1.0000
  C   C166      1.0  0.0584433778350133  0.8099885873534253  0.9356511380384562  1.0000
  C   C167      1.0  0.07512513284353987  0.8151504388257785  0.9718020813866319  1.0000
  C   C168      1.0  0.06780311559982627  0.8038154702775672  0.014525958185248156  1.0000
  H   H109      1.0  0.00795981950482827  0.770379254206513  0.9904533075205316  1.0000
  H   H110      1.0  0.021592447360093026  0.7891038222534045  0.9143785916843324  1.0000
  H   H111      1.0  0.09381131728593613  0.8278284735485391  0.9666902742032804  1.0000
  H   H112      1.0  0.0809552868749813  0.8075616460312064  0.04200515268539107  1.0000
  C   C169      1.0  0.06627816229464667  0.4406810921594405  0.37023408161118665  1.0000
  C   C170      1.0  0.04015677029849041  0.43088654116991676  0.36097643107869104  1.0000
  C   C171      1.0  0.025653328250474505  0.41223288832517446  0.39178215570895514  1.0000
  C   C172      1.0  0.037194035974212  0.4035445859511224  0.4319134160126693  1.0000
  C   C173      1.0  0.06286495648139886  0.41439941131945895  0.4418298726105167  1.0000
  C   C174      1.0  0.0774911767164908  0.4327121460210625  0.41088283566740386  1.0000
  H   H113      1.0  0.03133801976247752  0.4371195472341933  0.3297071299024895  1.0000
  H   H114      1.0  0.005701115051067296  0.40409564100754447  0.3840932269638024  1.0000
  H   H115      1.0  0.07140716621475823  0.4089127092921215  0.4734698706920205  1.0000
  H   H116      1.0  0.0975405067120591  0.4406410260240798  0.41837875978581646  1.0000
  C   C175      1.0  0.07182917018508617  0.48204552837598746  0.06534673941446946  1.0000
  C   C176      1.0  0.07053259775100623  0.47242055812689737  0.02021043971663894  1.0000
  C   C177      1.0  0.06596452271921248  0.4946715067357299  0.9871017972807073  1.0000
  C   C178      1.0  0.06271968251800364  0.5264851314976301  0.9992923223737376  1.0000
  C   C179      1.0  0.06524199386581575  0.5361730018810226  0.0440780304817292  1.0000
  C   C180      1.0  0.0699051708480849  0.5139855959035573  0.07703457062599428  1.0000
  H   H117      1.0  0.07227070886435272  0.44772855527510397  0.011023413744491117  1.0000
  H   H118      1.0  0.0643195174014698  0.48712719645039104  0.9524010294740669  1.0000
  H   H119      1.0  0.06308315266792164  0.5608101979751813  0.053455580403527936  1.0000
  H   H120      1.0  0.07182089327882957  0.5216578306793025  0.11156650044859143  1.0000
  C   C181      1.0  0.22924097463826604  0.6325129831609528  0.5286254050934378  1.0000
  C   C182      1.0  0.24182500279630745  0.6378281784914103  0.5692601353260391  1.0000
  C   C183      1.0  0.22640202375405635  0.648138883791718  0.6077742180434034  1.0000
  C   C184      1.0  0.198366496962197  0.6528373329769391  0.6056491749471085  1.0000
  C   C185      1.0  0.18569469616628353  0.6466927659276308  0.5653550886130368  1.0000
  C   C186      1.0  0.20111738358204767  0.6364768093757184  0.5268781182425863  1.0000
  H   H121      1.0  0.26357221054424335  0.6345616696971875  0.5707514041437165  1.0000
  H   H122      1.0  0.23623979462236108  0.652667557980048  0.6389623477735956  1.0000
  H   H123      1.0  0.1639772599409368  0.6500423805332676  0.5637659598445057  1.0000
  H   H124      1.0  0.1912229900141942  0.6316128671634473  0.4959100771503697  1.0000
  C   C187      1.0  0.10966502887362456  0.6152011629062017  0.34109084154914393  1.0000
  C   C188      1.0  0.11774154862793201  0.6248451745527429  0.2979055732211779  1.0000
  C   C189      1.0  0.10186278230030126  0.6178644728295435  0.26131797635435516  1.0000
  C   C190      1.0  0.07851960186579543  0.6000610273420613  0.2675707132049593  1.0000
  C   C191      1.0  0.07063588372982521  0.589960373198789  0.3105682544580697  1.0000
  C   C192      1.0  0.08591669708809085  0.5980748261272467  0.3474310240706341  1.0000
  H   H125      1.0  0.13603788231332217  0.637863430714032  0.2924007366466648  1.0000
  H   H126      1.0  0.10805158916401401  0.6254864867727119  0.22794760264212505  1.0000
  H   H127      1.0  0.05264335641362927  0.5761525021745192  0.3156408216044182  1.0000
  H   H128      1.0  0.07958599598490461  0.5905342175866909  0.3807812660112954  1.0000
  C   C193      1.0  0.20220581124912893  0.7413009847084591  0.2881216296267605  1.0000
  C   C194      1.0  0.185617691691419  0.7680979434289732  0.2850142819215934  1.0000
  C   C195      1.0  0.17010917369055442  0.772107634935719  0.24710625538130632  1.0000
  C   C196      1.0  0.1717342891501965  0.7496630174171462  0.21200542042070122  1.0000
  C   C197      1.0  0.18913450707332918  0.7235447991175659  0.21446762953401677  1.0000
  C   C198      1.0  0.2041605419285577  0.7192186181383754  0.25266985822748717  1.0000
  H   H129      1.0  0.18413539487771682  0.7852429015725451  0.31241660359552  1.0000
  H   H130      1.0  0.1571161114127674  0.7926496394161225  0.24481448967903968  1.0000
  H   H131      1.0  0.19041180186283113  0.7061914224348542  0.1872955221210461  1.0000
  H   H132      1.0  0.2171990098694146  0.6986800128915158  0.25473669967053936  1.0000
  C   C199      1.0  0.8458059251344185  0.704627187413021  0.48124585901102934  1.0000
  C   C200      1.0  0.8518360946567421  0.7141148217160428  0.5249361178560594  1.0000
  C   C201      1.0  0.837838888294092  0.7013611167010314  0.5622286913882398  1.0000
  C   C202      1.0  0.8174642569022086  0.6795059699152854  0.5558494008920932  1.0000
  C   C203      1.0  0.8109052488722108  0.6707327117313407  0.512108125349778  1.0000
  C   C204      1.0  0.8252092414391708  0.6830832573787641  0.47487154262250497  1.0000
  H   H133      1.0  0.8675202562602766  0.7311111888433947  0.5299360194916589  1.0000
  H   H134      1.0  0.8423713308639762  0.7089695204790902  0.5958452158691576  1.0000
  H   H135      1.0  0.7950079709398684  0.653984467808777  0.5071230094461591  1.0000
  H   H136      1.0  0.8201471495717665  0.6760903904649032  0.44133924062766194  1.0000
  C   C205      1.0  0.9575039565814667  0.7145869855984593  0.25119560345467934  1.0000
  C   C206      1.0  0.9621678274826153  0.7179772829262412  0.2970994076932629  1.0000
  C   C207      1.0  0.9863690907561565  0.7312484428821174  0.31096727067375785  1.0000
  C   C208      1.0  0.005779205802813214  0.741487658524285  0.27893793128477273  1.0000
  C   C209      1.0  0.0009212286011022197  0.7385139295713427  0.23313219691978185  1.0000
  C   C210      1.0  0.976873702010048  0.7250702272135663  0.21932759854486042  1.0000
  H   H137      1.0  0.9471730686603126  0.7105096021301558  0.3219427478247535  1.0000
  H   H138      1.0  0.9899372739769632  0.7336954410372056  0.34645666967569994  1.0000
  H   H139      1.0  0.01572038975233281  0.7463453097064574  0.2080895735214749  1.0000
  H   H140      1.0  0.9733915008086915  0.7225679006661537  0.1837736515424005  1.0000
  C   C211      1.0  0.9212969855400946  0.5531106481553641  0.33483600667968244  1.0000
  C   C212      1.0  0.9108495711185949  0.5503030911416174  0.2920625143005058  1.0000
  C   C213      1.0  0.9229278020959918  0.5291713418812576  0.25994681506677586  1.0000
  C   C214      1.0  0.9458197684775823  0.5113135422449641  0.2702479598599169  1.0000
  C   C215      1.0  0.9561678932911748  0.5139709038145611  0.3131174980348483  1.0000
  C   C216      1.0  0.9437545031187564  0.5346432204991622  0.3455087571170119  1.0000
  H   H141      1.0  0.8931603060349776  0.5639748797432279  0.28397081514180883  1.0000
  H   H142      1.0  0.9147691358572037  0.5270133582028005  0.2269217971277312  1.0000
  H   H143      1.0  0.9736040589461897  0.4998839825485533  0.3214685949102204  1.0000
  H   H144      1.0  0.9518064885328136  0.5366002343460723  0.378647745558251  1.0000
  C   C217      1.0  0.5486827227375796  0.42408971422457786  0.23475385331915233  1.0000
  C   C218      1.0  0.5370052829716548  0.4104111357844987  0.2732512011923169  1.0000
  C   C219      1.0  0.5512414678157928  0.38713773898916737  0.2956058057668153  1.0000
  C   C220      1.0  0.5773827018984748  0.37782863614135836  0.27994463634551603  1.0000
  C   C221      1.0  0.5893634464332714  0.39210579333057616  0.24217013452676947  1.0000
  C   C222      1.0  0.574909212445668  0.41497837056582615  0.21927744244910888  1.0000
  H   H145      1.0  0.5167955040489667  0.4176284606254894  0.28549721266065575  1.0000
  H   H146      1.0  0.5421256162847656  0.376843271334093  0.3253396989647261  1.0000
  H   H147      1.0  0.6097211848115882  0.38523258234055724  0.2302817942072771  1.0000
  H   H148      1.0  0.5842905177796073  0.4259931088146471  0.19025180725457583  1.0000
  C   C223      1.0  0.5222998395034347  0.37294222265502047  0.9607013403135474  1.0000
  C   C224      1.0  0.5197920008612534  0.4002993009247993  0.9359031408928352  1.0000
  C   C225      1.0  0.512205682080867  0.3984562719780127  0.8909797417110344  1.0000
  C   C226      1.0  0.5074286893365729  0.369243407852838  0.8705854165200103  1.0000
  C   C227      1.0  0.5092540587297172  0.34202474048040715  0.8958478681762099  1.0000
  C   C228      1.0  0.5164665591562714  0.3438956621416255  0.940859203525513  1.0000
  H   H149      1.0  0.5239491560295907  0.4228522982188818  0.9510492484308906  1.0000
  H   H150      1.0  0.5106635975333947  0.41960520305350957  0.8716661745143788  1.0000
  H   H151      1.0  0.5050334204755368  0.3194996624501542  0.8808081366620361  1.0000
  H   H152      1.0  0.5178505545023905  0.3226939425713537  0.9600710075417789  1.0000
  C   C229      1.0  0.42128074118029996  0.5593240512118035  0.08896756865233502  1.0000
  C   C230      1.0  0.43468931849678627  0.5798006894248666  0.059738830307606294  1.0000
  C   C231      1.0  0.4604885942094791  0.5719017507996687  0.0407465992538838  1.0000
  C   C232      1.0  0.47323073142000965  0.5436026993657347  0.051307020433443595  1.0000
  C   C233      1.0  0.4606510768426442  0.5239006892561637  0.08268304617393094  1.0000
  C   C234      1.0  0.43463608389154956  0.5317309287093822  0.10139115233509188  1.0000
  H   H153      1.0  0.4252639544109989  0.6017533678393235  0.05169175355098976  1.0000
  H   H154      1.0  0.4703027723942465  0.587526074220965  0.017121490709105514  1.0000
  H   H155      1.0  0.47047458249643165  0.5021739694394725  0.09146603826341819  1.0000
  H   H156      1.0  0.42452394414148226  0.5159338962519101  0.12447174997024209  1.0000
  C   C235      1.0  0.25613838981507664  0.6164312751652653  0.12457646813561742  1.0000
  C   C236      1.0  0.2747645381638268  0.5960225365040523  0.14330830160276486  1.0000
  C   C237      1.0  0.2697396230808595  0.5849671124680225  0.18689881410308662  1.0000
  C   C238      1.0  0.2465962067571087  0.595138128748515  0.21251012827904675  1.0000
  C   C239      1.0  0.2282184948943  0.6161778863052838  0.1941838030128103  1.0000
  C   C240      1.0  0.23276673788957342  0.6264031976993557  0.1498923621602747  1.0000
  H   H157      1.0  0.29283105180920044  0.5881748021588112  0.12394050152110561  1.0000
  H   H158      1.0  0.2839359237874036  0.5686111223423805  0.2009223041430374  1.0000
  H   H159      1.0  0.21017237480212655  0.6238898986332296  0.213626489875574  1.0000
  H   H160      1.0  0.21833105124706778  0.6422599247609628  0.13549118723057332  1.0000
  C   C241      1.0  0.3420260019485622  0.6198500079888448  0.8634859876325444  1.0000
  C   C242      1.0  0.3166730034515909  0.634244688860625  0.8736777809416141  1.0000
  C   C243      1.0  0.30310297768936145  0.6500247839445087  0.8400603176656695  1.0000
  C   C244      1.0  0.3153268580147567  0.6520405269946158  0.7967620176204823  1.0000
  C   C245      1.0  0.3406345192349924  0.6376497253559552  0.7868466332004258  1.0000
  C   C246      1.0  0.3537418226945998  0.6211255366495771  0.8199158668055925  1.0000
  H   H161      1.0  0.30764849255873833  0.6333156745509283  0.9073872387996793  1.0000
  H   H162      1.0  0.28363319348910776  0.6613553447792012  0.8478695620328756  1.0000
  H   H163      1.0  0.35010102182569697  0.6392253628722553  0.7534047952980734  1.0000
  H   H164      1.0  0.3733405709233319  0.6100470330264981  0.8119624756518703  1.0000
  C   C247      1.0  0.4295722039747858  0.760169397030863  0.966545779342807  1.0000
  C   C248      1.0  0.42129221849381593  0.7291308232017629  0.9610576807706729  1.0000
  C   C249      1.0  0.40151794429354776  0.7167538357429475  0.9907568224237626  1.0000
  C   C250      1.0  0.38972541238784186  0.7354328067899452  0.02584653963498429  1.0000
  C   C251      1.0  0.39829943851278726  0.7663750350154345  0.0318107610108882  1.0000
  C   C252      1.0  0.41833651560828555  0.7786974721487696  0.0023299507023930577  1.0000
  H   H165      1.0  0.43026135810538035  0.7146484418343021  0.9337906332960112  1.0000
  H   H166      1.0  0.3950880517395016  0.6929462143880405  0.9859728177947479  1.0000
  H   H167      1.0  0.38928263899518056  0.7809392236477862  0.058953942795562764  1.0000
  H   H168      1.0  0.4245256602431695  0.8027782530224747  0.006546573982326498  1.0000
  C   C253      1.0  0.4842996703456258  0.9197909644447471  0.0825980548371683  1.0000
  C   C254      1.0  0.4944710334686409  0.945273779524087  0.10666554882251289  1.0000
  C   C255      1.0  0.4934888789803801  0.945462172838219  0.15393036074293334  1.0000
  C   C256      1.0  0.48175082986573714  0.9205113490028998  0.1771906358665804  1.0000
  C   C257      1.0  0.47078240403889055  0.8955851635138039  0.15310712515857305  1.0000
  C   C258      1.0  0.47237455988335236  0.8950158992989679  0.10591838027323354  1.0000
  H   H169      1.0  0.5036104626360982  0.9645586326609776  0.08873497191578429  1.0000
  H   H170      1.0  0.5014317758209923  0.9651452402154898  0.1721441292284591  1.0000
  H   H171      1.0  0.46138737982823774  0.8763926825452291  0.17091895066717178  1.0000
  H   H172      1.0  0.4639903111301744  0.8755878412761517  0.08759154836331864  1.0000
  C   C259      1.0  0.5390382339931813  0.9016947202429914  0.7621160459435579  1.0000
  C   C260      1.0  0.5227386683524763  0.8791734008572051  0.783086683639494  1.0000
  C   C261      1.0  0.5324785048674682  0.8619270290576241  0.8188372152644103  1.0000
  C   C262      1.0  0.5587363436932253  0.8667492839431156  0.8331365866806912  1.0000
  C   C263      1.0  0.5752792757217681  0.8887050071784066  0.8113845407423315  1.0000
  C   C264      1.0  0.5653487021560738  0.9064005445043858  0.7762144969387373  1.0000
  H   H173      1.0  0.5024556568657316  0.8752820195199924  0.7720537062020316  1.0000
  H   H174      1.0  0.519805975392759  0.8445501041177128  0.8348865960388816  1.0000
  H   H175      1.0  0.5956363483398154  0.8924340790548855  0.8222064126216421  1.0000
  H   H176      1.0  0.5781785349438067  0.9234884617907563  0.7597977905206207  1.0000
  C   C265      1.0  0.6452293631332546  0.5853073503486772  0.08714689105416533  1.0000
  C   C266      1.0  0.6306095618812633  0.5653480511353471  0.11578073789345186  1.0000
  C   C267      1.0  0.6253526485430689  0.5344869079407533  0.10183616156451265  1.0000
  C   C268      1.0  0.6349708635926501  0.5233855884905605  0.0593696169594513  1.0000
  C   C269      1.0  0.6500516332758842  0.5431708243457841  0.03106432957858174  1.0000
  C   C270      1.0  0.6548766271562027  0.5742626879872699  0.04468326928973165  1.0000
  H   H177      1.0  0.6231943712742157  0.5737870774589807  0.14874703472157985  1.0000
  H   H178      1.0  0.6140429124574129  0.5191594885792001  0.12406775461541818  1.0000
  H   H179      1.0  0.6574284977413337  0.5346449021369292  0.998111289314406  1.0000
  H   H180      1.0  0.6659173523778702  0.5896406415027651  0.02219824822049188  1.0000
  C   C271      1.0  0.6386001100290959  0.7746653731471007  0.05078552108793111  1.0000
  C   C272      1.0  0.6240855374040223  0.749170878968685  0.06752947765185462  1.0000
  C   C273      1.0  0.5959922129241556  0.7521114026571918  0.0768016815428747  1.0000
  C   C274      1.0  0.5822986540631158  0.7802339881664049  0.06814588596160576  1.0000
  C   C275      1.0  0.5968897799484152  0.8058870436792304  0.05211221689156531  1.0000
  C   C276      1.0  0.6250855042790628  0.803265726136301  0.04419832912086896  1.0000
  H   H181      1.0  0.6344931884115208  0.7272091672000053  0.0734824791801399  1.0000
  H   H182      1.0  0.584779238055891  0.7323611276174026  0.08972177842490904  1.0000
  H   H183      1.0  0.5865298695629787  0.8278217406991225  0.04615212854802597  1.0000
  H   H184      1.0  0.6363317427436918  0.8231663702281731  0.031868744456159614  1.0000
  C   C277      1.0  0.7844455101082902  0.6666355190794865  0.12450486331279596  1.0000
  C   C278      1.0  0.7627104360064255  0.6664315867381561  0.15641026528067542  1.0000
  C   C279      1.0  0.7674322525423624  0.6616868754660091  0.2019764613707102  1.0000
  C   C280      1.0  0.7939537411240649  0.6576362318912163  0.21610083665058408  1.0000
  C   C281      1.0  0.8157970756202727  0.658525681484552  0.1844526730888865  1.0000
  C   C282      1.0  0.8110135601605619  0.6628052340541151  0.13869070905780845  1.0000
  H   H185      1.0  0.7422361066217336  0.6695806589701124  0.14596726649914243  1.0000
  H   H186      1.0  0.7504826940203279  0.661228687056265  0.22637220791505885  1.0000
  H   H187      1.0  0.8363383743544065  0.6554718981954094  0.19508446707416732  1.0000
  H   H188      1.0  0.8279471764389321  0.6630095608233688  0.11423021848742006  1.0000
  C   C283      1.0  0.7278807089444858  0.6404387435129195  0.8676844613295359  1.0000
  C   C284      1.0  0.7438191334480005  0.6212986851453169  0.8939373900438321  1.0000
  C   C285      1.0  0.7676442152632436  0.6069849399736079  0.8750845294022463  1.0000
  C   C286      1.0  0.7760793083234876  0.6126132820438084  0.8304094860501386  1.0000
  C   C287      1.0  0.7599069437875786  0.6312850421507334  0.8038855636506534  1.0000
  C   C288      1.0  0.7356562812919756  0.6449076235135752  0.8223978428182039  1.0000
  H   H189      1.0  0.737759733875565  0.6174353432416888  0.9286959740425262  1.0000
  H   H190      1.0  0.779972587270111  0.5922424466999094  0.8955035311358389  1.0000
  H   H191      1.0  0.7660242264203236  0.6351720154738615  0.7690986729737059  1.0000
  H   H192      1.0  0.7232774877740196  0.659542261866248  0.8019038852462588  1.0000
  N   N1        1.0  0.5352806451902978  0.1675028377891128  0.24053408928456177  1.0000
  C   C289      1.0  0.5197319875770622  0.17343194700010445  0.28364659619722854  1.0000
  C   C290      1.0  0.5527964884357381  0.1392550056657218  0.2442707055847948  1.0000
  C   C291      1.0  0.552395229223333  0.19476646572775014  0.23013436903286832  1.0000
  C   C292      1.0  0.5162224159381597  0.1627153472500531  0.20422029359297644  1.0000
  H   H193      1.0  0.506504314381753  0.19482169192262822  0.2822419484723324  1.0000
  H   H194      1.0  0.5335004546589356  0.17687690656444355  0.31187643056346226  1.0000
  H   H195      1.0  0.5063673876602262  0.15344817951774803  0.2922892713267815  1.0000
  H   H196      1.0  0.5675258633999047  0.14245988325288916  0.27123270215287043  1.0000
  H   H197      1.0  0.5406066249294069  0.11828124121940231  0.25271312556205183  1.0000
  H   H198      1.0  0.5646444977686232  0.1338025352465526  0.2122302548477044  1.0000
  H   H199      1.0  0.5670175722583574  0.19905534026628824  0.25688577295623016  1.0000
  H   H200      1.0  0.5398253347595007  0.21653081464073365  0.22724568763667907  1.0000
  H   H201      1.0  0.5644782206656971  0.1911118908343934  0.19787978239944515  1.0000
  H   H202      1.0  0.5023606911063394  0.1834854022513912  0.20142931455206137  1.0000
  H   H203      1.0  0.503292219136157  0.142030135375115  0.21055021684072828  1.0000
  H   H204      1.0  0.5271641675364304  0.15864375780011164  0.17100689587151785  1.0000
  N   N2        1.0  0.883935320236724  0.6063923937931166  0.5214342141321516  1.0000
  C   C293      1.0  0.9108761727008735  0.6049901965195773  0.5411391632860514  1.0000
  C   C294      1.0  0.8783718742646888  0.5757742456426049  0.49975773738969675  1.0000
  C   C295      1.0  0.8836222477716725  0.6311491617568098  0.4873483311423804  1.0000
  C   C296      1.0  0.8629198452130995  0.6135766256479024  0.5574645541947725  1.0000
  H   H205      1.0  0.9154525532134505  0.6274302448737876  0.5588723700247141  1.0000
  H   H206      1.0  0.9273223390187652  0.600129248711456  0.5148794016568529  1.0000
  H   H207      1.0  0.911931916090653  0.5861631563263218  0.5665020165829289  1.0000
  H   H208      1.0  0.8583255174758367  0.5761091217614315  0.484048927470124  1.0000
  H   H209      1.0  0.8939801910093598  0.5695818648638693  0.4725314169349374  1.0000
  H   H210      1.0  0.8782755477504307  0.5565195529494583  0.5244930532721627  1.0000
  H   H211      1.0  0.8635810822882128  0.6327280245520334  0.4718357134849613  1.0000
  H   H212      1.0  0.899140219209061  0.6263358969081914  0.4594876337536213  1.0000
  H   H213      1.0  0.8876928048534236  0.6546680374536598  0.5023462554336731  1.0000
  H   H214      1.0  0.8662011776569835  0.6368107876234314  0.5739542140412746  1.0000
  H   H215      1.0  0.8630535540277557  0.5957450612320121  0.5843179953085974  1.0000
  H   H216      1.0  0.8421829060819896  0.6142883219042361  0.5442039995556728  1.0000
  N   N3        1.0  0.9780346662763914  0.6143295483182871  0.24975187879609034  1.0000
  C   C297      1.0  0.9915589200119876  0.5839317812831122  0.25780168050043406  1.0000
  C   C298      1.0  0.9980636345559079  0.6361621803978478  0.22998895048998122  1.0000
  C   C299      1.0  0.9664710028215611  0.6276047670640352  0.2929047655678844  1.0000
  C   C300      1.0  0.9560426885360174  0.609514425869218  0.21838422392011858  1.0000
  H   H217      1.0  0.00046401034492848936  0.5731320266655738  0.225958134572932  1.0000
  H   H218      1.0  0.9771185446867027  0.5669737015879379  0.2729040720055471  1.0000
  H   H219      1.0  0.008366505591115736  0.5867532560228166  0.281123757753738  1.0000
  H   H220      1.0  0.007610949215731466  0.6265288627005924  0.19781741702536426  1.0000
  H   H221      1.0  0.9884637008442523  0.6592255610873097  0.22280333180444342  1.0000
  H   H222      1.0  0.01483298955995993  0.6405594321357193  0.25297864809884135  1.0000
  H   H223      1.0  0.9825065697534425  0.6317634708911496  0.31730807872448014  1.0000
  H   H224      1.0  0.9513597942985137  0.6116116810403168  0.3088458962022401  1.0000
  H   H225      1.0  0.9559561680924938  0.6504491101578025  0.28790490255538875  1.0000
  H   H226      1.0  0.9404653484004023  0.5933954104623396  0.23253395869065138  1.0000
  H   H227      1.0  0.9640430391679177  0.5992448971044185  0.1856213520050782  1.0000
  H   H228      1.0  0.9454967108715061  0.632085556937009  0.21134401937145791  1.0000
  N   N4        1.0  0.023377524125458793  0.8799667178046372  0.08308799697098955  1.0000
  C   C301      1.0  0.010425128602051137  0.8648576593341117  0.04454916149226751  1.0000
  C   C302      1.0  0.05076244435280586  0.8661644555368411  0.08721729196908412  1.0000
  C   C303      1.0  0.006906344058589697  0.874588741358984  0.12495308457631585  1.0000
  C   C304      1.0  0.02559870289555155  0.914055392811205  0.07583182671092031  1.0000
  H   H229      1.0  0.9899655669469943  0.8752069747298525  0.03953590848628519  1.0000
  H   H230      1.0  0.007826505698987463  0.8392252773784888  0.04978746626349495  1.0000
  H   H231      1.0  0.022927752428454795  0.8671947072819377  0.012633798328503643  1.0000
  H   H232      1.0  0.04957187580241418  0.8406097353782778  0.09345278972609683  1.0000
  H   H233      1.0  0.06376885769287188  0.8690905303941083  0.05602953926920162  1.0000
  H   H234      1.0  0.061345229086495756  0.8771054111496168  0.11571579257877126  1.0000
  H   H235      1.0  0.01670150746277277  0.8846600855107424  0.1549449190462899  1.0000
  H   H236      1.0  0.004374619306770633  0.8489942474189843  0.13067067442131244  1.0000
  H   H237      1.0  0.98625631909521  0.8853503473496454  0.12370844565900752  1.0000
  H   H238      1.0  0.035450354133458095  0.9259429322873723  0.10439969583118308  1.0000
  H   H239      1.0  0.0052883370442058375  0.9253663350937514  0.07270683356629595  1.0000
  H   H240      1.0  0.03803086900555863  0.9188103913138124  0.04456229538943867  1.0000
  N   N5        1.0  0.9556516108139573  0.2947695790939452  0.47544129325527756  1.0000
  C   C305      1.0  0.9334280793190239  0.29475525676265224  0.4437966052764303  1.0000
  C   C306      1.0  0.9458176120873004  0.28166347683314347  0.5186983645552894  1.0000
  C   C307      1.0  0.9647968582830994  0.3272415111045323  0.48306592831386974  1.0000
  C   C308      1.0  0.9786106822115727  0.2752915682261894  0.45625120242721295  1.0000
  H   H241      1.0  0.9401378332088242  0.30446603109329806  0.4107288777078336  1.0000
  H   H242      1.0  0.9156975799676293  0.3091388185944851  0.457267224851003  1.0000
  H   H243      1.0  0.9261728011242978  0.27046913335563827  0.43745383545713695  1.0000
  H   H244      1.0  0.9285254098094472  0.2957437405919395  0.5343352997586617  1.0000
  H   H245      1.0  0.9387485221290465  0.257132894604438  0.5141081358022368  1.0000
  H   H246      1.0  0.9621576430227428  0.281144482901233  0.5432797190703814  1.0000
  H   H247      1.0  0.9817402503128607  0.32799319691091017  0.5065671575004951  1.0000
  H   H248      1.0  0.948122900034356  0.34269736912792775  0.49780227852291775  1.0000
  H   H249      1.0  0.9723877850214374  0.33796530796064145  0.45114621362902335  1.0000
  H   H250      1.0  0.986824642555933  0.28469817224614324  0.4238795687041282  1.0000
  H   H251      1.0  0.9724074873364754  0.25062918379508725  0.4497863220852112  1.0000
  H   H252      1.0  0.9955331941965638  0.27438523295576395  0.4796351904955444  1.0000
  N   N6        1.0  0.7291069886410997  0.5777929991196755  0.1361590478313367  1.0000
  C   C309      1.0  0.7125381339938494  0.6050286481911318  0.1535698722522195  1.0000
  C   C310      1.0  0.7340617075960928  0.5562956497171189  0.17338476556388402  1.0000
  C   C311      1.0  0.7553441694444091  0.5888123239717393  0.11682564122765933  1.0000
  C   C312      1.0  0.7144290447507091  0.5610456778559836  0.1009745551119402  1.0000
  H   H253      1.0  0.7225715405977968  0.617753346632459  0.18106958783809204  1.0000
  H   H254      1.0  0.6921824055813443  0.5977576257843273  0.16699271043272626  1.0000
  H   H255      1.0  0.7089875613823651  0.6221684045110542  0.12662805279568737  1.0000
  H   H256      1.0  0.7146368768398597  0.5476225750602277  0.18874210809643174  1.0000
  H   H257      1.0  0.7464970236131007  0.5354389867294839  0.16144405527469563  1.0000
  H   H258      1.0  0.7450994257248934  0.5682293130089024  0.20056913865289916  1.0000
  H   H259      1.0  0.7680306043874923  0.5690618645024896  0.10188612720584081  1.0000
  H   H260      1.0  0.7673583128087248  0.6006112335322675  0.1428550188946903  1.0000
  H   H261      1.0  0.7523844049091502  0.606109463898387  0.08980367306258646  1.0000
  H   H262      1.0  0.6945176304448941  0.5523893518876931  0.11441728679140116  1.0000
  H   H263      1.0  0.7262846360039409  0.5404029934768709  0.08675070546895444  1.0000
  H   H264      1.0  0.7101197990584658  0.5766782644664841  0.07260457006691139  1.0000
  N   N7        1.0  0.31275528090630705  0.14727500609314856  0.3888359671639543  1.0000
  C   C313      1.0  0.3163479360691486  0.11327441891395185  0.3960431807435897  1.0000
  C   C314      1.0  0.30425279087492496  0.1631892827279004  0.43197250842723095  1.0000
  C   C315      1.0  0.2917254019699565  0.15231061423722872  0.35579589590278854  1.0000
  C   C316      1.0  0.338702310841488  0.16021536349805127  0.37142192345617814  1.0000
  H   H265      1.0  0.3232678474417441  0.10062734287573138  0.3642868487009283  1.0000
  H   H266      1.0  0.2969973995538367  0.10261817393687678  0.40821405661561777  1.0000
  H   H267      1.0  0.3316504958370262  0.10860896061249892  0.4215115722453508  1.0000
  H   H268      1.0  0.30136472244233475  0.18891253442277042  0.4278948474592366  1.0000
  H   H269      1.0  0.2847559817205384  0.15383434365809634  0.4460237754006721  1.0000
  H   H270      1.0  0.3195307603460477  0.15966751295628148  0.4579031836622259  1.0000
  H   H271      1.0  0.2886127216770753  0.17769353303673466  0.34917014793619777  1.0000
  H   H272      1.0  0.27180023940388226  0.1428873824161825  0.3678175223475004  1.0000
  H   H273      1.0  0.2974269457974423  0.1403829625241404  0.32297216859019423  1.0000
  H   H274      1.0  0.33680886912458124  0.18574868331996738  0.36460643586330194  1.0000
  H   H275      1.0  0.34583252368979633  0.1483542451242648  0.3391782627697642  1.0000
  H   H276      1.0  0.355085087065326  0.15719187800454518  0.3955027721069289  1.0000
  N   N8        1.0  0.5577506201921565  0.6005424683720927  0.05749258728968876  1.0000
  C   C317      1.0  0.5771547422441874  0.6248434228483424  0.07039907073435914  1.0000
  C   C318      1.0  0.5722700730470625  0.57543040503593  0.030465660300778463  1.0000
  C   C319      1.0  0.5365241193326555  0.6148285732581652  0.030582482382760512  1.0000
  C   C320      1.0  0.5450313892011109  0.5870343485879936  0.09856104547067313  1.0000
  H   H277      1.0  0.5927317168926617  0.6151387951726611  0.09238651103263962  1.0000
  H   H278      1.0  0.5667621845860358  0.6447818092156287  0.08932509143850509  1.0000
  H   H279      1.0  0.5881895401809127  0.6345475884151544  0.04042816925966641  1.0000
  H   H280      1.0  0.5882696819708972  0.5639916373916644  0.04976692450451692  1.0000
  H   H281      1.0  0.5582592655524514  0.5566437236957559  0.020186560287274835  1.0000
  H   H282      1.0  0.5823025269664787  0.5846785510784003  0.9993181733766392  1.0000
  H   H283      1.0  0.5247870857507867  0.6334976190480623  0.0501555264769431  1.0000
  H   H284      1.0  0.5217812639454101  0.5969612770595493  0.019872168408237245  1.0000
  H   H285      1.0  0.5454420384307165  0.6255290562174882  0.9995803482608381  1.0000
  H   H286      1.0  0.5300267528319883  0.5688414829787614  0.09010862858588298  1.0000
  H   H287      1.0  0.5340609925015083  0.605320234310766  0.11998465962528515  1.0000
  H   H288      1.0  0.5604561748106558  0.5756048614864507  0.1193125384442717  1.0000
  N   N9        1.0  0.692011757774269  0.026984827489231034  0.9506655086027193  1.0000
  C   C321      1.0  0.7060628667967482  0.055348938306940765  0.9348464584631154  1.0000
  C   C322      1.0  0.7083454757351958  0.9988047345299041  0.9363683816902202  1.0000
  C   C323      1.0  0.6650884551420793  0.02552540121406821  0.9309411245619117  1.0000
  C   C324      1.0  0.6886074173564865  0.028297708847565994  0.00034268660702618803  1.0000
  H   H289      1.0  0.6944206612574044  0.07712367290813371  0.9452854450407338  1.0000
  H   H290      1.0  0.7085721998182575  0.05534159935349159  0.8974630923280366  1.0000
  H   H291      1.0  0.7265911919505469  0.05722297267318366  0.9486444885059164  1.0000
  H   H292      1.0  0.6982530523854835  0.9769061654841873  0.9474131631733145  1.0000
  H   H293      1.0  0.7114569313067022  0.9972769752323338  0.8990278514591081  1.0000
  H   H294      1.0  0.7287475751944065  0.9991690555057351  0.95091145475256  1.0000
  H   H295      1.0  0.6534976439865952  0.004927040742097821  0.9430333187888554  1.0000
  H   H296      1.0  0.6669834034121475  0.023643957149356742  0.8934900999569073  1.0000
  H   H297      1.0  0.6526331124910201  0.04707279151927035  0.9396741536038532  1.0000
  H   H298      1.0  0.675852316613358  0.048896179688128205  0.01229863370605666  1.0000
  H   H299      1.0  0.7085117155934192  0.030327807188454736  0.016372390001488712  1.0000
  H   H300      1.0  0.6787092121315246  0.006910177694027908  0.01366990654422251  1.0000
  N   N10       1.0  0.5579826662699775  0.8663950692127398  0.16499309645930907  1.0000
  C   C325      1.0  0.5679270922040656  0.8969417086156253  0.18125915675093193  1.0000
  C   C326      1.0  0.5369385701580351  0.8549089023055133  0.19733367682052413  1.0000
  C   C327      1.0  0.5807715980245521  0.8433691885286372  0.16072315984948804  1.0000
  C   C328      1.0  0.5462157945484117  0.8703128793985234  0.12064187844273433  1.0000
  H   H301      1.0  0.5836599056607198  0.906568573561555  0.15754144198307157  1.0000
  H   H302      1.0  0.577340480829804  0.8948249198400822  0.21438111999176987  1.0000
  H   H303      1.0  0.5511393358262192  0.9147355298096763  0.18548066564987645  1.0000
  H   H304      1.0  0.5289172863860515  0.8319272569288764  0.18592253305361486  1.0000
  H   H305      1.0  0.545028909666448  0.8518285428730573  0.2312933983493251  1.0000
  H   H306      1.0  0.5194002847351673  0.8716633709215061  0.20132618314781558  1.0000
  H   H307      1.0  0.5738009123627454  0.8199458480766261  0.1491201023600659  1.0000
  H   H308      1.0  0.5903811071036051  0.8401564260940082  0.1934598959872733  1.0000
  H   H309      1.0  0.5968430635674526  0.8509513434370513  0.13595342860310436  1.0000
  H   H310      1.0  0.5377406690204775  0.8479251037266871  0.10794673647943138  1.0000
  H   H311      1.0  0.5616480598911675  0.8781704432552111  0.09502553925773494  1.0000
  H   H312      1.0  0.5294277122452988  0.8880813177142889  0.12243974433517124  1.0000
  N   N11       1.0  0.2509874907943591  0.041936238837718236  0.6721846552714803  1.0000
  C   C329      1.0  0.23602696480195218  0.06871306364282548  0.6946762619783999  1.0000
  C   C330      1.0  0.2621786739091504  0.021491306433008898  0.7066172502667156  1.0000
  C   C331      1.0  0.2734702606991288  0.05375128281748843  0.6429521513363723  1.0000
  C   C332      1.0  0.23231622241943503  0.0238563333792412  0.644559866183277  1.0000
  H   H313      1.0  0.21842560577761808  0.060750448364347516  0.7159811556981257  1.0000
  H   H314      1.0  0.2281457082110705  0.08533028361482888  0.6697672920978626  1.0000
  H   H315      1.0  0.24929390116142122  0.08225652180681832  0.7170023181052835  1.0000
  H   H316      1.0  0.2736949312538127  0.0010725928036250392  0.6908844153776328  1.0000
  H   H317      1.0  0.2763316062405567  0.03457778635515596  0.728067366625519  1.0000
  H   H318      1.0  0.24580293058022182  0.012198210744066797  0.7294041630180996  1.0000
  H   H319      1.0  0.2847378183689721  0.03427045285711916  0.6244079955800879  1.0000
  H   H320      1.0  0.2883168414477051  0.06674063723239732  0.6629327608273601  1.0000
  H   H321      1.0  0.2659621972155098  0.07011159316145223  0.6174076510821742  1.0000
  H   H322      1.0  0.2429167035709447  0.0037447880248668857  0.626308877013675  1.0000
  H   H323      1.0  0.22338128052395642  0.03876087482456359  0.6186030932644038  1.0000
  H   H324      1.0  0.21515052664942824  0.014306576474393706  0.6653586173433805  1.0000
  N   N12       1.0  0.5695930076886508  0.377519485756882  0.4560908248021845  1.0000
  C   C333      1.0  0.5900271729195506  0.377516979803435  0.41809300664594445  1.0000
  C   C334      1.0  0.5803250222442945  0.3593779303042683  0.4934124341610361  1.0000
  C   C335      1.0  0.5444990300235573  0.36294617455999906  0.4411214499126059  1.0000
  C   C336      1.0  0.5634626884655037  0.41015645683213037  0.4716369585341532  1.0000
  H   H325      1.0  0.5951874763383989  0.35319362739476823  0.4056229885762811  1.0000
  H   H326      1.0  0.6092500164088218  0.3884854474296879  0.4278471965601103  1.0000
  H   H327      1.0  0.5825240545264222  0.39058058920059996  0.3889276321912492  1.0000
  H   H328      1.0  0.5651232695201148  0.3579861090934755  0.522209081143377  1.0000
  H   H329      1.0  0.5857605430957196  0.3348422916756078  0.48236784458017146  1.0000
  H   H330      1.0  0.5989269048504305  0.37005782834770196  0.5063813018187969  1.0000
  H   H331      1.0  0.5285358196175812  0.362397396840454  0.46885669318659  1.0000
  H   H332      1.0  0.5483804131743969  0.3382619146181167  0.42951516530989975  1.0000
  H   H333      1.0  0.5358951247207417  0.37574284186560536  0.412668286272637  1.0000
  H   H334      1.0  0.5819627719091628  0.4219404692960392  0.48312153967767935  1.0000
  H   H335      1.0  0.548084958846143  0.4109041967938247  0.500318986703117  1.0000
  H   H336      1.0  0.5552612363586608  0.42440128323693516  0.4441934325495978  1.0000
  N   N13       1.0  0.6014139755417963  0.07487718791466746  0.3773007348567872  1.0000
  C   C337      1.0  0.5837321274727847  0.10289687438532513  0.3863857981000032  1.0000
  C   C338      1.0  0.590741562936602  0.048438672093970236  0.40379381026047967  1.0000
  C   C339      1.0  0.6293210862449992  0.08151842529865139  0.3903798959083011  1.0000
  C   C340      1.0  0.6017771610193055  0.06653940499345445  0.32875805434905686  1.0000
  H   H337      1.0  0.5826407964765405  0.10961410265890459  0.42279232456072774  1.0000
  H   H338      1.0  0.5626299727006979  0.09861392021413495  0.3761416631182281  1.0000
  H   H339      1.0  0.5912536368852296  0.12355331211942766  0.3676120463580888  1.0000
  H   H340      1.0  0.5694039450391924  0.04338257107753063  0.39579385517502474  1.0000
  H   H341      1.0  0.6030367294147332  0.026534684403913156  0.3968736139367889  1.0000
  H   H342      1.0  0.5908994142078677  0.05356009168715925  0.4406526730889056  1.0000
  H   H343      1.0  0.6297721778735877  0.08856487363060306  0.4265609416010785  1.0000
  H   H344      1.0  0.6384733775041385  0.10069097185240827  0.3702481676534795  1.0000
  H   H345      1.0  0.6428864055714043  0.06049791487305689  0.3847615695731626  1.0000
  H   H346      1.0  0.6146814266515019  0.04533212327859215  0.320639596051244  1.0000
  H   H347      1.0  0.609956312105083  0.08585810297741614  0.3077982237092696  1.0000
  H   H348      1.0  0.5810689043034156  0.06133404350847704  0.31767552304399427  1.0000
  N   N14       1.0  0.057763586048831694  0.1124755898252554  0.5097385955603583  1.0000
  C   C341      1.0  0.08570328061485855  0.11958224778438709  0.5223048486315826  1.0000
  C   C342      1.0  0.05813561778406173  0.10237813786348582  0.46185566279150836  1.0000
  C   C343      1.0  0.04029013980897389  0.1409057181667619  0.5166742541426645  1.0000
  C   C344      1.0  0.04691689395470022  0.086987184964467  0.5379832541279584  1.0000
  H   H349      1.0  0.08634104001578113  0.1275338960229362  0.5581296097542162  1.0000
  H   H350      1.0  0.09467121491544028  0.13857765674386702  0.5014926365740647  1.0000
  H   H351      1.0  0.09948833695828263  0.09865972804062184  0.5177717995198614  1.0000
  H   H352      1.0  0.06669755224474283  0.1207198518614494  0.4395001407566555  1.0000
  H   H353      1.0  0.07045077219561136  0.08041458388382794  0.4556531302461077  1.0000
  H   H354      1.0  0.037324708862874534  0.0972853899058459  0.45103235506062445  1.0000
  H   H355      1.0  0.019044830957683168  0.1364746984872942  0.5072203894068557  1.0000
  H   H356      1.0  0.047988903942643546  0.16064209988784084  0.49601701755877525  1.0000
  H   H357      1.0  0.03938289401520567  0.14913859742261293  0.5524925237395298  1.0000
  H   H358      1.0  0.025733050544672675  0.08133526931586244  0.5297147896409461  1.0000
  H   H359      1.0  0.046766721739510686  0.09346391081660355  0.574413575251236  1.0000
  H   H360      1.0  0.05918324372922679  0.0648908031062263  0.5326579406535021  1.0000
  N   N15       1.0  0.8637860802508172  0.06969895684884775  0.6678321653231798  1.0000
  C   C345      1.0  0.8789435794664725  0.03955055566177146  0.6696709618536342  1.0000
  C   C346      1.0  0.8441402718499892  0.06772759455897193  0.6318951358430649  1.0000
  C   C347      1.0  0.8830518164426973  0.09511704245862784  0.6580382781296068  1.0000
  C   C348      1.0  0.8490723765721019  0.07645728591804901  0.7115114454282216  1.0000
  H   H361      1.0  0.8900932640248431  0.033887680664780095  0.6368800897475092  1.0000
  H   H362      1.0  0.8651081159558103  0.019781110033313842  0.6771400068393235  1.0000
  H   H363      1.0  0.8942382060420195  0.04030802939786837  0.6959863023552822  1.0000
  H   H364      1.0  0.8546183512363159  0.06304525061106347  0.5983444115978064  1.0000
  H   H365      1.0  0.8294162672317725  0.04861558929111509  0.6379635129510258  1.0000
  H   H366      1.0  0.8322485145822013  0.09001743971218334  0.6296736782333224  1.0000
  H   H367      1.0  0.8723233401932624  0.11802280057649273  0.6545210599192609  1.0000
  H   H368      1.0  0.8951363971256575  0.09022947690570393  0.6260857813160269  1.0000
  H   H369      1.0  0.8976258937397744  0.09813039521353684  0.6851455514512312  1.0000
  H   H370      1.0  0.8379282997111718  0.09939184977070581  0.7112294047962227  1.0000
  H   H371      1.0  0.8631976258489098  0.07775722876305302  0.7395476102738808  1.0000
  H   H372      1.0  0.8338375827005697  0.058197705711355185  0.7196319600410109  1.0000
  N   N16       1.0  0.6245949285178675  0.7695042424107079  0.9085477020478137  1.0000
  C   C349      1.0  0.6426786487263921  0.7423517883645482  0.9166938411208329  1.0000
  C   C350      1.0  0.6387022128383194  0.7989456898780362  0.9188788118680845  1.0000
  C   C351      1.0  0.5996319516249873  0.7676827574208364  0.9377954278156493  1.0000
  C   C352      1.0  0.617284692436647  0.7692053679882622  0.860913605827799  1.0000
  H   H373      1.0  0.6326221442105402  0.7196513736087619  0.9099628382983288  1.0000
  H   H374      1.0  0.6488182104474142  0.7423020566697985  0.9522830912748473  1.0000
  H   H375      1.0  0.661659989007804  0.742730499733832  0.8949429699330623  1.0000
  H   H376      1.0  0.6573051871739362  0.8014876551984152  0.8967496538966758  1.0000
  H   H377      1.0  0.6253331441160499  0.8199159823334276  0.914305166924307  1.0000
  H   H378      1.0  0.645119799646938  0.7995868898367849  0.9542421542456775  1.0000
  H   H379      1.0  0.6043970093881619  0.7661853641997757  0.9738111021549384  1.0000
  H   H380      1.0  0.587618518167309  0.7466666911671189  0.9294436764495718  1.0000
  H   H381      1.0  0.5862947313251837  0.7887905810210359  0.9343974230768589  1.0000
  H   H382      1.0  0.6065773981068779  0.7473380797228095  0.8518940281654881  1.0000
  H   H383      1.0  0.6355816372290092  0.7707800140838755  0.8377829314554509  1.0000
  H   H384      1.0  0.6035379498505465  0.7894212104435157  0.8539545335378012  1.0000
  N   N17       1.0  0.6014658189293941  0.33527830369799816  0.9134118183586476  1.0000
  C   C353      1.0  0.6006798105836442  0.36719957078077514  0.9340345914733931  1.0000
  C   C354      1.0  0.6298981198332303  0.3256406041243641  0.9016484730100235  1.0000
  C   C355      1.0  0.585867819548797  0.3352338831864136  0.8722291650539167  1.0000
  C   C356      1.0  0.5893362079829777  0.3129005440379264  0.9455694268258604  1.0000
  H   H385      1.0  0.5794471214822289  0.37524936901839107  0.9428277452073356  1.0000
  H   H386      1.0  0.6097387203201088  0.3846891397802795  0.9107419023642805  1.0000
  H   H387      1.0  0.6118537851664491  0.36809055724875767  0.9656664848143423  1.0000
  H   H388      1.0  0.6311123295816207  0.3015488278198834  0.8863359789830286  1.0000
  H   H389      1.0  0.6395701205445817  0.34170083975503346  0.876845265663433  1.0000
  H   H390      1.0  0.6423748018304717  0.3255722915116832  0.9318460606870155  1.0000
  H   H391      1.0  0.5644915758001879  0.3431371486746046  0.8795305958716628  1.0000
  H   H392      1.0  0.5852972539296727  0.31126270648015797  0.8567362905449346  1.0000
  H   H393      1.0  0.5947284543735246  0.35117112358730806  0.8465028442573883  1.0000
  H   H394      1.0  0.5887325297555467  0.2887520915064392  0.9304273342912178  1.0000
  H   H395      1.0  0.5681239109518181  0.319979348658841  0.9560153753410183  1.0000
  H   H396      1.0  0.6009224920975481  0.31169977387276226  0.9766805371219087  1.0000
  N   N18       1.0  0.09370218480116521  0.6739237862445446  0.689346310866907  1.0000
  C   C357      1.0  0.07788975077701132  0.6573507013262675  0.7247290423223565  1.0000
  C   C358      1.0  0.07535308861263612  0.694791912436681  0.6652491909829793  1.0000
  C   C359      1.0  0.10685380521216414  0.650838354070581  0.6571460415029831  1.0000
  C   C360      1.0  0.11481227317601261  0.6927832993557815  0.7101980553495778  1.0000
  H   H397      1.0  0.06714662086956058  0.6741475854392884  0.748939141760356  1.0000
  H   H398      1.0  0.0911814208395414  0.6419888464097436  0.7443332938303074  1.0000
  H   H399      1.0  0.06232820433924591  0.6420364738956073  0.7101448525503778  1.0000
  H   H400      1.0  0.08675437678112696  0.7082024340348203  0.6389710551493172  1.0000
  H   H401      1.0  0.059386622188604576  0.6812985108817516  0.6485771045509741  1.0000
  H   H402      1.0  0.06496760419207592  0.7123923968374243  0.6886519163411872  1.0000
  H   H403      1.0  0.09172994333552875  0.6355727582999171  0.6413551991561427  1.0000
  H   H404      1.0  0.12146663739026997  0.6353755879109582  0.6739790745030758  1.0000
  H   H405      1.0  0.1187365892711838  0.6627063295680516  0.6298218760265869  1.0000
  H   H406      1.0  0.12886505004314275  0.6777045277669125  0.7289121612394293  1.0000
  H   H407      1.0  0.1057723784341551  0.7111274137744973  0.7337550652542788  1.0000
  H   H408      1.0  0.12749793081132244  0.705047899531793  0.6842737290249924  1.0000
  N   N19       1.0  0.7365261061859268  0.20254228887477635  0.10208045776877506  1.0000
  C   C361      1.0  0.722773343890958  0.1720041389224478  0.10109063227948623  1.0000
  C   C362      1.0  0.7561050378706113  0.20286454204356089  0.13823849722894832  1.0000
  C   C363      1.0  0.7160500027916503  0.2279510462865964  0.11069244272934342  1.0000
  C   C364      1.0  0.751216222537531  0.2072496044834972  0.05833063759175783  1.0000
  H   H409      1.0  0.7084324325273471  0.17046247910844026  0.0733924698797297  1.0000
  H   H410      1.0  0.7110705863549558  0.16782641545994242  0.13327146100411835  1.0000
  H   H411      1.0  0.737657950933247  0.15231807709937908  0.09586245362976675  1.0000
  H   H412      1.0  0.7668421467835711  0.22556555041849044  0.1400104407314644  1.0000
  H   H413      1.0  0.7458144852889914  0.19928402335585219  0.17180617321943825  1.0000
  H   H414      1.0  0.7717628098906677  0.1838209512206228  0.13289430239401656  1.0000
  H   H415      1.0  0.7009793520977913  0.22830795677679258  0.08401597890004497  1.0000
  H   H416      1.0  0.7256470099624112  0.2513721188404026  0.11202590625352671  1.0000
  H   H417      1.0  0.7046435744634794  0.22486719780606362  0.14354425983649066  1.0000
  H   H418      1.0  0.7608142752525273  0.2306563098750923  0.05690984356905271  1.0000
  H   H419      1.0  0.7375368691069704  0.20520952087140035  0.029702735748935005  1.0000
  H   H420      1.0  0.76772753831786  0.1893141236200235  0.05211036837861327  1.0000
  N   N20       1.0  0.4955064085791169  0.9431291215785021  0.5948519649770886  1.0000
  C   C365      1.0  0.52266016965778  0.930271940963153  0.6040850201259995  1.0000
  C   C366      1.0  0.47921480863424587  0.9471574050415885  0.637669720027397  1.0000
  C   C367      1.0  0.48187459456678644  0.9211224944677276  0.5645765504675715  1.0000
  C   C368      1.0  0.4983082619788425  0.9738417479461235  0.5729766467384728  1.0000
  H   H421      1.0  0.5349676335401523  0.9251589946314981  0.5725120837070233  1.0000
  H   H422      1.0  0.5212660221648037  0.9079757462622753  0.6228846796121966  1.0000
  H   H423      1.0  0.5342007470382023  0.9469621265076795  0.6248282037399101  1.0000
  H   H424      1.0  0.47706814712042717  0.9245018976057123  0.655423409627044  1.0000
  H   H425      1.0  0.4889924765094801  0.9635959992187489  0.6612338721695173  1.0000
  H   H426      1.0  0.4585144283342153  0.9566838715091744  0.6322296987444369  1.0000
  H   H427      1.0  0.46129766499991887  0.9300054476170749  0.5568747852965906  1.0000
  H   H428      1.0  0.47961884895447604  0.8976301927493707  0.5798947000266178  1.0000
  H   H429      1.0  0.49371784330256735  0.9176926440952381  0.5318755972338621  1.0000
  H   H430      1.0  0.4782019447588124  0.9849775637964354  0.567567202841959  1.0000
  H   H431      1.0  0.5092460282326384  0.9713536609185109  0.5395022865709797  1.0000
  H   H432      1.0  0.5099608884550818  0.99058217802514  0.5935093134460057  1.0000
  N   N21       1.0  0.5099555647994598  0.3471492515029775  0.16497069139176454  1.0000
  C   C369      1.0  0.4829052775866375  0.33343338574984877  0.17335979199326135  1.0000
  C   C370      1.0  0.5273279880184111  0.3398542356711983  0.202709056270661  1.0000
  C   C371      1.0  0.5070331243956909  0.38154993073347204  0.1611833534806153  1.0000
  C   C372      1.0  0.522553049182792  0.33383686383820244  0.12253585601611017  1.0000
  H   H433      1.0  0.46908140622032096  0.3389780842324413  0.14598429993092965  1.0000
  H   H434      1.0  0.47310028055324194  0.34247477150236116  0.2056726697475847  1.0000
  H   H435      1.0  0.4843097925265906  0.30740081879321546  0.1755946298389205  1.0000
  H   H436      1.0  0.5478175176031091  0.35019520752854877  0.19784584406543265  1.0000
  H   H437      1.0  0.5182693230686231  0.3493852045224817  0.23526745819694037  1.0000
  H   H438      1.0  0.5300659637054917  0.31405664006947687  0.20647236090922805  1.0000
  H   H439      1.0  0.4939390087752854  0.38797971695016703  0.13321047109789896  1.0000
  H   H440      1.0  0.5270603570944317  0.39258383747632847  0.15435836360465763  1.0000
  H   H441      1.0  0.49796341586383075  0.39266438920026925  0.1927584257222722  1.0000
  H   H442      1.0  0.5428198887083424  0.34412670432447395  0.11482126835736847  1.0000
  H   H443      1.0  0.5098907519153256  0.33886904977192167  0.0933779183738321  1.0000
  H   H444      1.0  0.5253048633824382  0.3079165131399866  0.12418603275186549  1.0000
  N   N22       1.0  0.12711370364439545  0.7289186764388262  0.8831627964146239  1.0000
  C   C373      1.0  0.11951759946246088  0.7137150475347841  0.840566236458767  1.0000
  C   C374      1.0  0.12165269931861733  0.707406714702368  0.9207578980469576  1.0000
  C   C375      1.0  0.11101321362741956  0.7582879469714962  0.8910278036416452  1.0000
  C   C376      1.0  0.15631850387700275  0.7362308218656572  0.8801809630607106  1.0000
  H   H445      1.0  0.13106649952733251  0.6912330541167231  0.834018912580261  1.0000
  H   H446      1.0  0.12381693231786417  0.7292247279684254  0.8114523287602321  1.0000
  H   H447      1.0  0.09753834389724725  0.7081794038889317  0.8414605466992419  1.0000
  H   H448      1.0  0.09976933781176656  0.7014097107374506  0.9239883764290595  1.0000
  H   H449      1.0  0.13348596803151813  0.6849586710126881  0.9157073617513782  1.0000
  H   H450      1.0  0.12717628050990348  0.7181288543626851  0.9534674312028807  1.0000
  H   H451      1.0  0.08883597672095034  0.7537612664166493  0.8937902074710253  1.0000
  H   H452      1.0  0.11444027605768614  0.7750248461615687  0.8631134621526607  1.0000
  H   H453      1.0  0.11632900185164008  0.77063617003917  0.9226782583796244  1.0000
  H   H454      1.0  0.16910224267084928  0.7146078185026393  0.8741112210842451  1.0000
  H   H455      1.0  0.16283011906131795  0.747901796274138  0.911595365177729  1.0000
  H   H456      1.0  0.16111724069809585  0.7523717913280022  0.8520727011503633  1.0000
  N   N23       1.0  0.10223591175450328  0.33690304097748724  0.3684135880098645  1.0000
  C   C377      1.0  0.09469453635793584  0.3586608171050783  0.33278996786461573  1.0000
  C   C378      1.0  0.07746520811074341  0.32734981103999905  0.39411652363647603  1.0000
  C   C379      1.0  0.12060644581048216  0.3528206301079128  0.39907086125039687  1.0000
  C   C380      1.0  0.116173476425218  0.3087666174596704  0.3478072713191377  1.0000
  H   H457      1.0  0.08110755190013993  0.3473685624393972  0.3086544701485006  1.0000
  H   H458      1.0  0.11288701794848166  0.36702053257047956  0.31329731568071556  1.0000
  H   H459      1.0  0.08371548124664976  0.3798282161467892  0.3472997568373753  1.0000
  H   H460      1.0  0.06676602579470342  0.34788063839514205  0.4109860335890282  1.0000
  H   H461      1.0  0.06289580712996007  0.3157605605677173  0.3720053596381741  1.0000
  H   H462      1.0  0.0823585418620006  0.31057072388316803  0.4208418616121963  1.0000
  H   H463      1.0  0.1267309351595392  0.3369959636168614  0.42635026899419454  1.0000
  H   H464      1.0  0.1107164581658918  0.37408687661544093  0.4154052155993925  1.0000
  H   H465      1.0  0.1395010998783259  0.36041966693105176  0.38085490067467515  1.0000
  H   H466      1.0  0.12222530914365835  0.29198150055571925  0.37398880101522813  1.0000
  H   H467      1.0  0.1349707330492947  0.3150710545049065  0.3281328277703695  1.0000
  H   H468      1.0  0.10285694160463275  0.29594872043645215  0.32477929576445413  1.0000
  N   N24       1.0  0.7775556157071428  0.724171952951121  0.36337246355228126  1.0000
  C   C381      1.0  0.7513614766389699  0.7389593428297266  0.3789307199759228  1.0000
  C   C382      1.0  0.7816431095346373  0.7278242862044695  0.31418285827112424  1.0000
  C   C383      1.0  0.7773378741729061  0.6904139096857418  0.37386075764879756  1.0000
  C   C384      1.0  0.7998823733330573  0.7394156175979498  0.38654737912484977  1.0000
  H   H469      1.0  0.7476969320173896  0.7366745888892039  0.4159525130401742  1.0000
  H   H470      1.0  0.7340968449356053  0.7278662110300396  0.3621806602541775  1.0000
  H   H471      1.0  0.7507854976813211  0.7644592976661607  0.37144449945535835  1.0000
  H   H472      1.0  0.8013070021821116  0.7170895779449282  0.30135610702462223  1.0000
  H   H473      1.0  0.7655379212987375  0.7159241730686909  0.29547282076411563  1.0000
  H   H474      1.0  0.7817001953994444  0.7529687486740524  0.3048108077886008  1.0000
  H   H475      1.0  0.7970230254919868  0.6787535165078203  0.36335794335911703  1.0000
  H   H476      1.0  0.7613918838229092  0.6778310809951348  0.35568944670352715  1.0000
  H   H477      1.0  0.7737300948541277  0.6866491465662683  0.4105627937409241  1.0000
  H   H478      1.0  0.8199540615301032  0.7289562459643039  0.3753216623110537  1.0000
  H   H479      1.0  0.7978110587288989  0.7366758884093969  0.4237131894482193  1.0000
  H   H480      1.0  0.8006853050566298  0.7649699979854918  0.3797358183659472  1.0000
  N   N25       1.0  0.7606762818508827  0.06402565300104524  0.39692106254830667  1.0000
  C   C385      1.0  0.7461994668244152  0.03824348850425996  0.41960096470057046  1.0000
  C   C386      1.0  0.7433648291446332  0.09274161719377938  0.3994282758117818  1.0000
  C   C387      1.0  0.7668139080895042  0.054950444857315484  0.34926924913708746  1.0000
  C   C388      1.0  0.7862888002763826  0.07022714040704692  0.41915834175951106  1.0000
  H   H481      1.0  0.7586261556951684  0.016156795305802385  0.4180177963927005  1.0000
  H   H482      1.0  0.7267758181201867  0.033176297907800745  0.4032978408600658  1.0000
  H   H483      1.0  0.7411841208895598  0.04420367199153219  0.45566634732547734  1.0000
  H   H484      1.0  0.753823286852333  0.11274515037863564  0.38294697862880106  1.0000
  H   H485      1.0  0.7240157977691135  0.08906400634611056  0.3823158471587469  1.0000
  H   H486      1.0  0.7381541579102572  0.10016869542383611  0.43489615205262805  1.0000
  H   H487      1.0  0.7768296394636679  0.0742496537787547  0.3307549004811774  1.0000
  H   H488      1.0  0.7480568992049135  0.0492660323328491  0.33164764898284876  1.0000
  H   H489      1.0  0.7806622442704477  0.03406822786936159  0.34581619824117465  1.0000
  H   H490      1.0  0.7975777056107374  0.08952625109289891  0.40247567502513426  1.0000
  H   H491      1.0  0.8000278470092334  0.04920025543590656  0.41775587030583  1.0000
  H   H492      1.0  0.7825330703290361  0.07748703770074616  0.45509367845167803  1.0000
  N   N26       1.0  0.4956197613621852  0.21552779591801968  0.5804181620394567  1.0000
  C   C389      1.0  0.47466239499988233  0.24068045781689476  0.5866411949232427  1.0000
  C   C390      1.0  0.5193406606588657  0.22366230923700114  0.6066142198240408  1.0000
  C   C391      1.0  0.5040591270932628  0.21229951927507285  0.5321591834751157  1.0000
  C   C392      1.0  0.48443051240920454  0.18552157696952326  0.5963019148545865  1.0000
  H   H493      1.0  0.456313501482805  0.2352520300842606  0.5677829026994855  1.0000
  H   H494      1.0  0.4823834363558867  0.2635588180249585  0.5745907429914696  1.0000
  H   H495      1.0  0.46812384662920736  0.24410919326575076  0.6227970532642738  1.0000
  H   H496      1.0  0.5356455697329474  0.205311185189182  0.6028777098857051  1.0000
  H   H497      1.0  0.528209754674524  0.24619394002367523  0.5956775522417327  1.0000
  H   H498      1.0  0.5136359945004183  0.22644600419515135  0.6431427718685804  1.0000
  H   H499      1.0  0.5199832905244413  0.19366701142377585  0.5261735235617303  1.0000
  H   H500      1.0  0.5125261606424476  0.2345556539239632  0.5190996847612007  1.0000
  H   H501      1.0  0.48662260954966535  0.20636428912480856  0.5113231714516676  1.0000
  H   H502      1.0  0.4997770489100408  0.16607186632014284  0.5924225992716183  1.0000
  H   H503      1.0  0.4664399680952508  0.1786622415546236  0.5774122057741727  1.0000
  H   H504      1.0  0.4778390660801414  0.1871870768126275  0.6326212868269416  1.0000
  N   N27       1.0  0.24591709505166656  0.7283666054904893  0.49191791275360036  1.0000
  C   C393      1.0  0.2618542416058238  0.7019379702405548  0.4704880774392512  1.0000
  C   C394      1.0  0.2640449428439441  0.7484316903686838  0.5177553137958715  1.0000
  C   C395      1.0  0.22443950394423062  0.7160144104499709  0.5227089193635832  1.0000
  C   C396      1.0  0.2333514453348308  0.7469720083484971  0.45673503373916674  1.0000
  H   H505      1.0  0.24894871816016517  0.6867329303833346  0.449836281961926  1.0000
  H   H506      1.0  0.2709007357532397  0.6866319502772253  0.4960101596570023  1.0000
  H   H507      1.0  0.2786599732772651  0.7102354395486591  0.44774234302527954  1.0000
  H   H508      1.0  0.25265093598013105  0.768444507471164  0.5348435956658086  1.0000
  H   H509      1.0  0.27396625702982585  0.734846836878087  0.5442933572073104  1.0000
  H   H510      1.0  0.28042324423851434  0.7583040365838128  0.49553453718917334  1.0000
  H   H511      1.0  0.2116584463790622  0.7351915603373119  0.5390336888128752  1.0000
  H   H512      1.0  0.23322604286997853  0.7022379610950393  0.5500719394116704  1.0000
  H   H513      1.0  0.21078286623874457  0.70009319001234  0.5046025230922985  1.0000
  H   H514      1.0  0.21911472596883422  0.7325794144592497  0.4373392482561664  1.0000
  H   H515      1.0  0.2488609128300657  0.7557942318882972  0.43189242165715663  1.0000
  H   H516      1.0  0.22162678440405834  0.7675581986792784  0.4714219759513444  1.0000
  N   N28       1.0  0.4212511663501814  0.9965996681878815  0.22761972446243378  1.0000
  C   C397      1.0  0.44918719062639356  0.0017075464712659194  0.24185667058981508  1.0000
  C   C398      1.0  0.4146615702205336  0.019473072285327353  0.19296095823906614  1.0000
  C   C399      1.0  0.40188236589508924  0.0009050179328919938  0.26682575392450053  1.0000
  C   C400      1.0  0.4192428260414337  0.9643905460103703  0.20874932802628568  1.0000
  H   H517      1.0  0.4549622304097461  0.9845581308421822  0.26763700030402665  1.0000
  H   H518      1.0  0.45147375552094804  0.02577525366342548  0.2563928507761971  1.0000
  H   H519      1.0  0.46428081591287557  0.9988264020451941  0.21299081803696449  1.0000
  H   H520      1.0  0.3937867611882801  0.01622863214769099  0.18115770646346063  1.0000
  H   H521      1.0  0.41571385181085985  0.04394592272098374  0.20635941709580496  1.0000
  H   H522      1.0  0.42913660158294414  0.01740611297192718  0.16310393201640405  1.0000
  H   H523      1.0  0.38055497795431786  0.9973571303269483  0.2572416456990752  1.0000
  H   H524      1.0  0.4026846259836659  0.025108211273088488  0.2816064926196068  1.0000
  H   H525      1.0  0.40625190340159784  0.9840897098419066  0.29379416281469106  1.0000
  H   H526      1.0  0.398398989276721  0.9596102363580377  0.19791951287240014  1.0000
  H   H527      1.0  0.4244431257368835  0.9464647043235761  0.23384432835936822  1.0000
  H   H528      1.0  0.43348883284510964  0.9604844837555752  0.17890561513324488  1.0000
  N   N29       1.0  0.3629063079800368  0.7269015267016221  0.8667407949126945  1.0000
  C   C401      1.0  0.3526372989846011  0.7457424995949837  0.9064747055196367  1.0000
  C   C402      1.0  0.3417520267302834  0.7254743460284999  0.8331480273204412  1.0000
  C   C403      1.0  0.3697612473948808  0.694716078063309  0.8805984515381335  1.0000
  C   C404      1.0  0.38745747637547023  0.7416208104208358  0.8467292403273913  1.0000
  H   H529      1.0  0.36832128035367856  0.7480108769229467  0.9320002718480009  1.0000
  H   H530      1.0  0.334597055261672  0.7348667733037667  0.9233205121171032  1.0000
  H   H531      1.0  0.346719480528867  0.7699773309360164  0.8970766497980308  1.0000
  H   H532      1.0  0.3486452397977217  0.7111327815756455  0.8028338483505996  1.0000
  H   H533      1.0  0.3229128826358335  0.7145645821586057  0.8471711896164852  1.0000
  H   H534      1.0  0.3360867041111951  0.7492499833694144  0.8215037346760079  1.0000
  H   H535      1.0  0.3765979878598229  0.6794982826800604  0.8512136319010872  1.0000
  H   H536      1.0  0.3520114960141325  0.6833567610820932  0.8975099517525137  1.0000
  H   H537      1.0  0.3863471935859114  0.6946099659943031  0.9045425806352971  1.0000
  H   H538      1.0  0.39596493136837796  0.727837815300307  0.8169764454399052  1.0000
  H   H539      1.0  0.4037593039774473  0.7434159522534766  0.8713672921355429  1.0000
  H   H540      1.0  0.3830159682087992  0.7658894595630724  0.8356470998068105  1.0000
  N   N30       1.0  0.18287846719028228  0.9934782551527493  0.39863721736710345  1.0000
  C   C405      1.0  0.16094481444132047  0.005675144910353591  0.4301717390160734  1.0000
  C   C406      1.0  0.20522310272380145  0.016158498728154003  0.39605119480409556  1.0000
  C   C407      1.0  0.1721272073369104  0.9888346298771726  0.35345300138948554  1.0000
  C   C408      1.0  0.1931996372716479  0.9632081925053563  0.41496757466597006  1.0000
  H   H541      1.0  0.16834960232302046  0.009445472122112886  0.46461943367528186  1.0000
  H   H542      1.0  0.14387143679369452  0.9889309404572553  0.4329444789647316  1.0000
  H   H543      1.0  0.15258812666125243  0.028514646060631144  0.41905788397897675  1.0000
  H   H544      1.0  0.22193934598823228  0.007924639096051234  0.37200322276031034  1.0000
  H   H545      1.0  0.1981097241255977  0.039470216515507195  0.38446158909301337  1.0000
  H   H546      1.0  0.21411323077608213  0.019864787850945476  0.42944176962765745  1.0000
  H   H547      1.0  0.18805180904623947  0.979357278272113  0.32884828967087226  1.0000
  H   H548      1.0  0.16431050333519812  0.011319402279270196  0.3401548476153682  1.0000
  H   H549      1.0  0.15509073405498175  0.9720043663110448  0.35416423907144695  1.0000
  H   H550      1.0  0.20967989768498368  0.9531432139414189  0.3919505104679428  1.0000
  H   H551      1.0  0.17677719025200134  0.9456120316684753  0.417627594004602  1.0000
  H   H552      1.0  0.20150311174943417  0.96606862892967  0.44899150270018373  1.0000
  N   N31       1.0  0.12391128709020655  0.49108871238315616  0.6758278407532538  1.0000
  C   C409      1.0  0.11065386078836198  0.4797328722648812  0.6351425642430277  1.0000
  C   C410      1.0  0.14783739845686722  0.47088371504217635  0.6835326760934988  1.0000
  C   C411      1.0  0.1045329735959591  0.4898713263348467  0.7151389791590567  1.0000
  C   C412      1.0  0.13253990194843374  0.5238472265021386  0.6695994611371504  1.0000
  H   H553      1.0  0.09242490794678863  0.4943416419721684  0.628376461821914  1.0000
  H   H554      1.0  0.10385527849575792  0.4550814636675167  0.638809171126224  1.0000
  H   H555      1.0  0.12472503116747143  0.4801294033188995  0.6048020419633656  1.0000
  H   H556      1.0  0.15794322307380415  0.47830455519833537  0.7146061292595983  1.0000
  H   H557      1.0  0.1420127749241878  0.44589004303325713  0.687374690283409  1.0000
  H   H558      1.0  0.16309934046297989  0.47159637214356526  0.6548128705745748  1.0000
  H   H559      1.0  0.11344806623271624  0.4992868628022127  0.7462756096896168  1.0000
  H   H560      1.0  0.09825653635711931  0.46546557901082786  0.721809034949308  1.0000
  H   H561      1.0  0.08583635658772458  0.5040374257423283  0.7098312191983074  1.0000
  H   H562      1.0  0.14216651593319676  0.533315648953959  0.7000864947321815  1.0000
  H   H563      1.0  0.11488740493117913  0.5396329340279884  0.6636473554223484  1.0000
  H   H564      1.0  0.14737888248592804  0.5257808484934887  0.6404771407865465  1.0000
  N   N32       1.0  0.28575233116107773  0.711145235794628  0.16243110574902558  1.0000
  C   C413      1.0  0.2679154173780112  0.7363248553385597  0.18295330622490674  1.0000
  C   C414      1.0  0.31429921881301076  0.7213052183275618  0.1615730478582228  1.0000
  C   C415      1.0  0.27782283399348967  0.7045628279882639  0.11591118023606795  1.0000
  C   C416      1.0  0.28288787616310324  0.682407300100853  0.18919314476088875  1.0000
  H   H565      1.0  0.24615293185310672  0.7298344340970535  0.18253595455900534  1.0000
  H   H566      1.0  0.27014307952166855  0.7586596579925057  0.16446918657190923  1.0000
  H   H567      1.0  0.27256686982017597  0.7411428142537299  0.21869304292129574  1.0000
  H   H568      1.0  0.32838296279733353  0.7026701674904208  0.1469568452281559  1.0000
  H   H569      1.0  0.31742441047751385  0.7423813821885502  0.140504333912621  1.0000
  H   H570      1.0  0.32091328119001  0.7271062051268885  0.1959599981954812  1.0000
  H   H571      1.0  0.2791540316861002  0.7258766337771921  0.09497679388079759  1.0000
  H   H572      1.0  0.25668039555991606  0.69582104753777  0.11524457258146624  1.0000
  H   H573      1.0  0.29129042094650975  0.6862634370553592  0.09899034053858634  1.0000
  H   H574      1.0  0.29513865814613016  0.6624410312576084  0.1736918481408193  1.0000
  H   H575      1.0  0.2614195302034538  0.6747846493246712  0.19185340791403377  1.0000
  H   H576      1.0  0.2895953839226865  0.6861174299661313  0.22407770695459067  1.0000
  N   N33       1.0  0.15893095502094434  0.5357194415629679  0.27821927589721707  1.0000
  C   C417      1.0  0.13262681354801392  0.5357337452390492  0.3042361268568454  1.0000
  C   C418      1.0  0.15725200724497293  0.5157871955820589  0.23720890470538003  1.0000
  C   C419      1.0  0.1805274971438343  0.523312920363951  0.3061258818840398  1.0000
  C   C420      1.0  0.16538386695545343  0.5681255454484132  0.26521832479277596  1.0000
  H   H577      1.0  0.1269383252708762  0.5116064447476754  0.3144295287255119  1.0000
  H   H578      1.0  0.11590226382609896  0.5451418996980198  0.284265176250714  1.0000
  H   H579      1.0  0.13318488204223336  0.5505178519485129  0.3355083878078573  1.0000
  H   H580      1.0  0.14184217797177542  0.5252255913701159  0.21461261422742184  1.0000
  H   H581      1.0  0.1770543062237791  0.514491986862435  0.21759745980370893  1.0000
  H   H582      1.0  0.1513695274360928  0.4913928160733208  0.24562638945434245  1.0000
  H   H583      1.0  0.20085656702471677  0.5241330464377618  0.2881256263079648  1.0000
  H   H584      1.0  0.17674688659328666  0.49855857791691904  0.3154895516032967  1.0000
  H   H585      1.0  0.18182716027545698  0.5373438287492163  0.3378987901151258  1.0000
  H   H586      1.0  0.1495178342988992  0.5782582442946876  0.24414604586152322  1.0000
  H   H587      1.0  0.1850608375247218  0.5689682018446204  0.24538405655396578  1.0000
  H   H588      1.0  0.16697799065688912  0.5837380729850821  0.29538722703264186  1.0000
  N   N34       1.0  0.4017091609391966  0.11829776277399917  0.01173361968733988  1.0000
  C   C421      1.0  0.42330708562464864  0.10196494666750944  0.035477107788157936  1.0000
  C   C422      1.0  0.3863987069899262  0.13980047734328438  0.043669698101084675  1.0000
  C   C423      1.0  0.3831388683024914  0.09487802410492163  0.9935519411962364  1.0000
  C   C424      1.0  0.4138434644396865  0.13647718387062513  0.9743104423263553  1.0000
  H   H589      1.0  0.43568549355316055  0.08597922379911505  0.01233097010871509  1.0000
  H   H590      1.0  0.4145746986349884  0.08750512222282181  0.0631996746540393  1.0000
  H   H591      1.0  0.4372725359453359  0.11886852374990653  0.05102161207431499  1.0000
  H   H592      1.0  0.36983630805640855  0.1525311377903389  0.027057793482492265  1.0000
  H   H593      1.0  0.3767745766922867  0.12681176503724423  0.07214645454016577  1.0000
  H   H594      1.0  0.39970683909474486  0.1577416913409866  0.058388975263240495  1.0000
  H   H595      1.0  0.37256586853833146  0.08168023176391936  0.02090092085315054  1.0000
  H   H596      1.0  0.39409506312373216  0.07739813506847315  0.9707566750243183  1.0000
  H   H597      1.0  0.3672545981935814  0.10628196440626536  0.973807952313544  1.0000
  H   H598      1.0  0.3979528559758371  0.14944906861368001  0.956307158977978  1.0000
  H   H599      1.0  0.4249459080545995  0.12094392371322704  0.9488298052947227  1.0000
  H   H600      1.0  0.4282886236854669  0.15412556467149607  0.9865646389317281  1.0000
  N   N35       1.0  0.8060998527417506  0.6934254023843605  0.905678227907001  1.0000
  C   C425      1.0  0.8272813997208454  0.7075877109160492  0.8760646253112705  1.0000
  C   C426      1.0  0.7797034430027457  0.695650986844552  0.8843232558872696  1.0000
  C   C427      1.0  0.8041413017616953  0.7102388405479823  0.9497505525621407  1.0000
  C   C428      1.0  0.8131819862770291  0.6600674032561388  0.9125042684763175  1.0000
  H   H601      1.0  0.822594359775425  0.7327282952844784  0.8698098542392992  1.0000
  H   H602      1.0  0.829184362695342  0.695297494587409  0.8425419933556131  1.0000
  H   H603      1.0  0.8475586600365305  0.7063237431516004  0.8908471980853461  1.0000
  H   H604      1.0  0.7736129996045991  0.7204547711230572  0.8786205724958931  1.0000
  H   H605      1.0  0.7804419962063696  0.6831025705099446  0.8510738387466498  1.0000
  H   H606      1.0  0.7632057172884172  0.6850967227713386  0.9055808998934343  1.0000
  H   H607      1.0  0.7983601131119784  0.7353935529918338  0.9461407107939341  1.0000
  H   H608      1.0  0.8237195110407008  0.7092410164157988  0.9668350954346477  1.0000
  H   H609      1.0  0.7885641166184311  0.6996779404270881  0.972978319209281  1.0000
  H   H610      1.0  0.7972643080266105  0.6484306891891047  0.9337649685221059  1.0000
  H   H611      1.0  0.8326938021442839  0.6574648445834037  0.9294125345287538  1.0000
  H   H612      1.0  0.8153248544100801  0.6467435328677418  0.8798677137016232  1.0000
  N   N36       1.0  0.5800950871196563  0.14607961178180484  0.8023677191163539  1.0000
  C   C429      1.0  0.5967789675588102  0.14993093818615755  0.8420483279074051  1.0000
  C   C430      1.0  0.5834507299945519  0.11366470667576944  0.7840116646739026  1.0000
  C   C431      1.0  0.5889462682664997  0.16851963957993532  0.7676278319646594  1.0000
  C   C432      1.0  0.55119577218603  0.15223389517315722  0.8157109779236873  1.0000
  H   H613      1.0  0.5911579828940171  0.13291096265126656  0.8686184957027411  1.0000
  H   H614      1.0  0.5942555043004563  0.17395889104791973  0.8572383537753067  1.0000
  H   H615      1.0  0.6187862130521071  0.14611682993772623  0.8330139556959162  1.0000
  H   H616      1.0  0.5710196434225296  0.10997411037422355  0.754130330696188  1.0000
  H   H617      1.0  0.6050202877740927  0.1079967282026022  0.7737403597780294  1.0000
  H   H618      1.0  0.5767183715437841  0.09610095552664388  0.8092029207029946  1.0000
  H   H619      1.0  0.6106865689511496  0.16459595398685867  0.7568881305772676  1.0000
  H   H620      1.0  0.5866636606825298  0.19321987572986932  0.7804399402043816  1.0000
  H   H621      1.0  0.576732070524696  0.16635171338959376  0.7372350217210946  1.0000
  H   H622      1.0  0.538003405801774  0.1493376582700494  0.7865608210553833  1.0000
  H   H623      1.0  0.5478683853551608  0.17658557998635827  0.8296009737806712  1.0000
  H   H624      1.0  0.5437981541444741  0.13559831400641253  0.8417338131033992  1.0000
  N   N37       1.0  0.7520875003453825  0.23404518637464958  0.7095084389003681  1.0000
  C   C433      1.0  0.7349228490111392  0.26210384338056764  0.7022336081022702  1.0000
  C   C434      1.0  0.7703912624237081  0.2277279043338297  0.669434883474694  1.0000
  C   C435      1.0  0.7345536305849073  0.2067169140353674  0.7173318947917211  1.0000
  C   C436      1.0  0.7684610437887436  0.23957832708467833  0.7491841904184501  1.0000
  H   H625      1.0  0.7209464372203127  0.26742625596464664  0.7321099291867171  1.0000
  H   H626      1.0  0.7221248023928888  0.2586492851954114  0.6727557087403546  1.0000
  H   H627      1.0  0.7474241261174507  0.2832420250789443  0.696263298309468  1.0000
  H   H628      1.0  0.7588188504920592  0.22308797006206016  0.6388320193390195  1.0000
  H   H629      1.0  0.7839721366694349  0.24782689199773106  0.6624517977575695  1.0000
  H   H630      1.0  0.7836599688983681  0.2067992131088101  0.6742106427806654  1.0000
  H   H631      1.0  0.7200202787310873  0.21104312881551962  0.7466204263697238  1.0000
  H   H632      1.0  0.7466839884745136  0.1853132493428112  0.7244451907009846  1.0000
  H   H633      1.0  0.7224343306917659  0.20120203553814106  0.6876661201811879  1.0000
  H   H634      1.0  0.7816134899761177  0.21881213384694007  0.7556891988213905  1.0000
  H   H635      1.0  0.7552899873593595  0.2443536151559705  0.7801139842166283  1.0000
  H   H636      1.0  0.7819436768070637  0.2600370369808952  0.7445204061579541  1.0000
  N   N38       1.0  0.33458121180859846  0.21413665706242016  0.7710752042437026  1.0000
  C   C437      1.0  0.3135317006847693  0.22503705881239836  0.7409509790643728  1.0000
  C   C438      1.0  0.352722358890199  0.2402240736538518  0.7819478229787135  1.0000
  C   C439      1.0  0.35070581628933745  0.18839874314316113  0.7483887446292912  1.0000
  C   C440      1.0  0.32142572247497864  0.20259243385777428  0.8130789283847359  1.0000
  H   H637      1.0  0.2996748754011109  0.2055868327334459  0.7322902003474886  1.0000
  H   H638      1.0  0.3227223751448023  0.23375115528430035  0.7087776046084138  1.0000
  H   H639      1.0  0.3008264340411857  0.24439617298945446  0.7569924132393314  1.0000
  H   H640      1.0  0.34130079342323993  0.26019065603062336  0.7990298670187879  1.0000
  H   H641      1.0  0.3686645993954486  0.23246015943004225  0.8049238676165349  1.0000
  H   H642      1.0  0.36339731846237294  0.2492003990815984  0.7511435452355975  1.0000
  H   H643      1.0  0.33768391237683837  0.16820433289121015  0.7400092908025302  1.0000
  H   H644      1.0  0.36676198746198524  0.17969382425409638  0.7702553772623878  1.0000
  H   H645      1.0  0.3609985446557011  0.1961098603143211  0.7165211105034571  1.0000
  H   H646      1.0  0.30898691686781904  0.22131645630125218  0.8311780990457155  1.0000
  H   H647      1.0  0.3367653114505826  0.1941651363522493  0.8366004136997178  1.0000
  H   H648      1.0  0.30776198732589477  0.18265846236461666  0.8061590057381726  1.0000
  N   N39       1.0  0.49859263312057556  0.9584850027467435  0.8737083372400432  1.0000
  C   C441      1.0  0.5032781880367871  0.9926613601779923  0.872394181108793  1.0000
  C   C442      1.0  0.5247254540606417  0.9415495176294567  0.8780703925906035  1.0000
  C   C443      1.0  0.4862564265522277  0.9481339081752306  0.8316892360695723  1.0000
  C   C444      1.0  0.480090777297391  0.9515742202430445  0.912668360776259  1.0000
  H   H649      1.0  0.4839870086478797  0.0061285384582316915  0.8685191250909355  1.0000
  H   H650      1.0  0.5173111358287885  0.9987213479885986  0.8435698031870926  1.0000
  H   H651      1.0  0.5123802383358317  0.001381353594779533  0.903704658090952  1.0000
  H   H652      1.0  0.5218817211918976  0.9156953651745102  0.8792746965524808  1.0000
  H   H653      1.0  0.539161523872304  0.9460097616600757  0.84908108322298  1.0000
  H   H654      1.0  0.5346130011495771  0.9486742017544868  0.9094688614481886  1.0000
  H   H655      1.0  0.4826856117410411  0.9223942634805857  0.8312912129491083  1.0000
  H   H656      1.0  0.4996507110550626  0.9531832858554002  0.8016172261166701  1.0000
  H   H657      1.0  0.4664186975586872  0.9603073598703109  0.8273639261250219  1.0000
  H   H658      1.0  0.488690435752781  0.9592397422558548  0.9449905841386655  1.0000
  H   H659      1.0  0.4763934283843209  0.9259262276520727  0.9151617492816015  1.0000
  H   H660      1.0  0.4600278642859919  0.9636485570219236  0.9103887678225672  1.0000
  N   N40       1.0  0.9197344249829925  0.7839823177856495  0.6753395950743366  1.0000
  C   C445      1.0  0.9243908504869112  0.7926204926021455  0.7227253549077715  1.0000
  C   C446      1.0  0.8936720201556608  0.7979890100842357  0.662453363225224  1.0000
  C   C447      1.0  0.9187502478799765  0.749434201469013  0.6702049306838561  1.0000
  C   C448      1.0  0.9420990826283979  0.7959285525115435  0.6460410412989283  1.0000
  H   H661      1.0  0.9434853530310241  0.7816717034464987  0.7341487383283721  1.0000
  H   H662      1.0  0.9074167736139727  0.7849192778426192  0.7456648926416809  1.0000
  H   H663      1.0  0.9262700650491655  0.8184976755744604  0.7274585352011311  1.0000
  H   H664      1.0  0.8894938158538357  0.7919688637242506  0.6268658630351376  1.0000
  H   H665      1.0  0.8763873992445438  0.7893481253034479  0.6840464562326882  1.0000
  H   H666      1.0  0.8936892972439215  0.8240629323782572  0.6660858400841376  1.0000
  H   H667      1.0  0.9013929090209875  0.7398440958722697  0.6905126113738199  1.0000
  H   H668      1.0  0.9376323416770009  0.7379318738394913  0.6815051172619477  1.0000
  H   H669      1.0  0.9161727151263783  0.7420003477231089  0.6346003075754897  1.0000
  H   H670      1.0  0.9396518991180297  0.7894781161225289  0.6100415931261195  1.0000
  H   H671      1.0  0.9620977885917201  0.7864192512090085  0.6557997002520553  1.0000
  H   H672      1.0  0.9430898595982224  0.8220095481599334  0.6485638045149836  1.0000
  N   N41       1.0  0.40763329205747767  0.5252413880754  0.9482233312278217  1.0000
  C   C449      1.0  0.4261031276809138  0.5059038678773404  0.9179343862458891  1.0000
  C   C450      1.0  0.40790596756213543  0.5129258617607589  0.9942823060455084  1.0000
  C   C451      1.0  0.3797392345652797  0.5241474036361146  0.9322351254694108  1.0000
  C   C452      1.0  0.41681988230722977  0.5580810542592913  0.9485506410589422  1.0000
  H   H673      1.0  0.42654230909792257  0.5146907198218121  0.8829218385992449  1.0000
  H   H674      1.0  0.4197958673713498  0.4809421503441697  0.9167776231934956  1.0000
  H   H675      1.0  0.44731471752560803  0.5062038086594761  0.92938909738785  1.0000
  H   H676      1.0  0.39449449728928665  0.527240084708378  0.018303451829496442  1.0000
  H   H677      1.0  0.40087968775886684  0.48827958627230833  0.9955619095663866  1.0000
  H   H678      1.0  0.4287095122317167  0.5132027851465929  0.007169137673971315  1.0000
  H   H679      1.0  0.36545836988238906  0.5388158852906729  0.9543073583126412  1.0000
  H   H680      1.0  0.3720176928802517  0.4997727251137706  0.9316829900365305  1.0000
  H   H681      1.0  0.3787416490398653  0.533471491991249  0.8976176338875343  1.0000
  H   H682      1.0  0.4039855786619734  0.5730447423130802  0.9724805293651201  1.0000
  H   H683      1.0  0.41567257891729104  0.5686665007650987  0.9147608235857279  1.0000
  H   H684      1.0  0.43816308709880064  0.5596902113772045  0.9587551894004632  1.0000
  N   N42       1.0  0.9841377733091581  0.4723773294288817  0.0687620851825038  1.0000
  C   C453      1.0  0.9646597660120977  0.48297707677930096  0.10549879248514925  1.0000
  C   C454      1.0  0.9985324043553967  0.4997629516158627  0.0502814031357286  1.0000
  C   C455      1.0  0.969449577664886  0.45671796194306785  0.03263650071523161  1.0000
  C   C456      1.0  0.003991121143130272  0.4500163537066296  0.08657311138218672  1.0000
  H   H685      1.0  0.9542068952212859  0.46284493642577695  0.12163835308132924  1.0000
  H   H686      1.0  0.948854892732697  0.4991833949417069  0.09322428311771706  1.0000
  H   H687      1.0  0.9750634915448351  0.49570043335770003  0.13262884849343062  1.0000
  H   H688      1.0  0.984226947911692  0.5176699849604443  0.037761169553479634  1.0000
  H   H689      1.0  0.010803795675928374  0.5114423455323148  0.07603366933545985  1.0000
  H   H690      1.0  0.012743732827967369  0.49271582630858196  0.02155559938729068  1.0000
  H   H691      1.0  0.9837345158472118  0.44817974073001454  0.004689443935737891  1.0000
  H   H692      1.0  0.9545758880428882  0.4730471908732604  0.01790685843326867  1.0000
  H   H693      1.0  0.9581341400718936  0.43610055394955494  0.04546078777794027  1.0000
  H   H694      1.0  0.019715034838476697  0.4423798668144241  0.06029946974037736  1.0000
  H   H695      1.0  0.9940361363209882  0.42865075840775685  0.09982352799438378  1.0000
  H   H696      1.0  0.014912990514501567  0.4607510004331001  0.11473218163479512  1.0000
  N   N43       1.0  0.22559268313795008  0.5984482897615729  0.9520579844816933  1.0000
  C   C457      1.0  0.255440719194567  0.5944631820589815  0.9474636499475352  1.0000
  C   C458      1.0  0.2152073653864027  0.5829587743517801  0.993270220994674  1.0000
  C   C459      1.0  0.21323739682925638  0.5841341151679889  0.9123738701146454  1.0000
  C   C460      1.0  0.2184622353197372  0.6323035881579728  0.9551200697614918  1.0000
  H   H697      1.0  0.263825222423276  0.6055071328383531  0.9163141774998542  1.0000
  H   H698      1.0  0.2616519823733667  0.5692158693358278  0.9458436139763841  1.0000
  H   H699      1.0  0.26543190238609576  0.6054456372684935  0.9765597028135287  1.0000
  H   H700      1.0  0.22029427348332797  0.5573964816446898  0.9922883566907843  1.0000
  H   H701      1.0  0.22406037186880948  0.5932266628723567  0.023918894116434997  1.0000
  H   H702      1.0  0.1927362853880619  0.585609882728961  0.9977630739161414  1.0000
  H   H703      1.0  0.19068130358708793  0.5866824238356276  0.9147734203132574  1.0000
  H   H704      1.0  0.2183272931085089  0.5586409006155582  0.9087394056572837  1.0000
  H   H705      1.0  0.22029196649521302  0.5955933086476664  0.880680223489059  1.0000
  H   H706      1.0  0.22592861010781523  0.6447282358723028  0.9244910372665526  1.0000
  H   H707      1.0  0.22738406001128425  0.6437927437828301  0.984892399313785  1.0000
  H   H708      1.0  0.1960576644058455  0.6361898344412741  0.9582094707140731  1.0000
  N   N44       1.0  0.042479922139062154  0.31732841179848287  0.743018191266108  1.0000
  C   C461      1.0  0.06672482560633819  0.3116215924851164  0.7126146096894836  1.0000
  C   C462      1.0  0.02954043969822373  0.28710297245071376  0.7533547885538378  1.0000
  C   C463      1.0  0.023027588932878595  0.33798790700650544  0.7208081027278754  1.0000
  C   C464      1.0  0.05062377603317736  0.33259051790474914  0.7852555183352856  1.0000
  H   H709      1.0  0.082132543743211  0.29660309157350095  0.7284184018518741  1.0000
  H   H710      1.0  0.07666999420655962  0.33398789236526677  0.7032102931582974  1.0000
  H   H711      1.0  0.06129707029229392  0.2995213130139714  0.6808496254063326  1.0000
  H   H712      1.0  0.011163728047991484  0.290543299457649  0.776197879009922  1.0000
  H   H713      1.0  0.023036909603867395  0.27498085395848537  0.722226476708184  1.0000
  H   H714      1.0  0.04373526044974696  0.2708161702786439  0.769726099589971  1.0000
  H   H715      1.0  0.004510580203765491  0.34298875195486783  0.7427671526287988  1.0000
  H   H716      1.0  0.016418423329570553  0.327112019724191  0.6888484211170653  1.0000
  H   H717      1.0  0.03219548528557015  0.3609012194806632  0.7122507284342097  1.0000
  H   H718      1.0  0.06505337186227234  0.31754962877952025  0.8032431657441715  1.0000
  H   H719      1.0  0.03279753264918406  0.33806094835722333  0.8086192170355595  1.0000
  H   H720      1.0  0.06087478453819939  0.35512030725164906  0.7786091481249797  1.0000
  N   N45       1.0  0.11060480296777575  0.7199593962908241  0.32949785650685276  1.0000
  C   C465      1.0  0.10873046366894545  0.754043093756899  0.3396675051127068  1.0000
  C   C466      1.0  0.13687791039461872  0.7075911611758801  0.34399647569268377  1.0000
  C   C467      1.0  0.1086400387311317  0.714378336587034  0.28052095422596857  1.0000
  C   C468      1.0  0.08821240074475756  0.7038639892292938  0.3538675457820516  1.0000
  H   H721      1.0  0.08914602393131443  0.7642014303492848  0.329251358165118  1.0000
  H   H722      1.0  0.1253621837888772  0.7667562097707019  0.3215830956728349  1.0000
  H   H723      1.0  0.11015622136628522  0.7591058770684522  0.3763008821059456  1.0000
  H   H724      1.0  0.15422908181133765  0.7182752080266359  0.32510662908189325  1.0000
  H   H725      1.0  0.13938910817737127  0.7121382096803337  0.38051285504754184  1.0000
  H   H726      1.0  0.13862233342532893  0.681845874625506  0.3384227493604631  1.0000
  H   H727      1.0  0.11037713727997622  0.6889507939692958  0.27143371459245186  1.0000
  H   H728      1.0  0.12495689327229975  0.7264741592480479  0.2608174999637382  1.0000
  H   H729      1.0  0.08881804002357585  0.72303435365398  0.2687512578141661  1.0000
  H   H730      1.0  0.06803387761969004  0.7128383118312683  0.34409644582375853  1.0000
  H   H731      1.0  0.08927424270978745  0.7070220466640332  0.3909495813285512  1.0000
  H   H732      1.0  0.08890393608044911  0.6781380360254567  0.3463988766506466  1.0000
  N   N46       1.0  0.03144780941227898  0.8494505091195027  0.3674288365923677  1.0000
  C   C469      1.0  0.05701800615744368  0.8588140356640812  0.38752016511746445  1.0000
  C   C470      1.0  0.010644093400214771  0.8744938363709088  0.37628361238425856  1.0000
  C   C471      1.0  0.021960198661106878  0.8199698178519143  0.3877200849419578  1.0000
  C   C472      1.0  0.03617067239395655  0.8445706025577042  0.31829897820355135  1.0000
  H   H733      1.0  0.05424149042593607  0.8624357119591506  0.4246792923279255  1.0000
  H   H734      1.0  0.06447433272852576  0.8812116875586298  0.3734593745378411  1.0000
  H   H735      1.0  0.07339367310006017  0.8408171225045535  0.38090974138662015  1.0000
  H   H736      1.0  0.9910172278282469  0.8682102114024408  0.3617870568273159  1.0000
  H   H737      1.0  0.0067024227453118534  0.8788589576844752  0.4131374312775837  1.0000
  H   H738      1.0  0.017175486176937982  0.8971008196269418  0.36142340070980733  1.0000
  H   H739      1.0  0.0027982057031450402  0.8120579291961327  0.37304683920098286  1.0000
  H   H740      1.0  0.018065450670549987  0.8229417809321988  0.424822044272968  1.0000
  H   H741      1.0  0.03717719626220051  0.8005656374877164  0.3816421408783506  1.0000
  H   H742      1.0  0.017478070454454597  0.8366762836857065  0.3021324650792786  1.0000
  H   H743      1.0  0.05213329876751893  0.8262677742495065  0.3104579783712692  1.0000
  H   H744      1.0  0.04285942946529864  0.8664999248374282  0.301694831160614  1.0000
  N   N47       1.0  0.9541639385175048  0.6231784828066748  0.8622153894928183  1.0000
  C   C473      1.0  0.9727208472914372  0.6111695123520393  0.8957736612152586  1.0000
  C   C474      1.0  0.928905003027198  0.6049542136607999  0.8639857821619819  1.0000
  C   C475      1.0  0.9675434142862532  0.6199349038060101  0.8167863292860085  1.0000
  C   C476      1.0  0.9475130928437344  0.656619713155941  0.8722743917400727  1.0000
  H   H745      1.0  0.9923328846140725  0.623789732869391  0.8943531719289644  1.0000
  H   H746      1.0  0.9775447842544562  0.5857093782881719  0.8896740156369236  1.0000
  H   H747      1.0  0.9636665073501623  0.6138427598503418  0.9306195562526386  1.0000
  H   H748      1.0  0.9332568995127967  0.5794560128851687  0.8583049447252883  1.0000
  H   H749      1.0  0.9177857360998373  0.6076966224358504  0.897249336201161  1.0000
  H   H750      1.0  0.9149559655021382  0.6123297023695577  0.8375841134421973  1.0000
  H   H751      1.0  0.9853763310822126  0.6355049818533856  0.812943553456592  1.0000
  H   H752      1.0  0.9533896852751326  0.6258927786711359  0.7900298816498993  1.0000
  H   H753      1.0  0.975035057959472  0.5954861960864131  0.8098818112733186  1.0000
  H   H754      1.0  0.9378468218843558  0.6600714876169129  0.9065847020429715  1.0000
  H   H755      1.0  0.933232173266784  0.6661529055858281  0.8478587498730636  1.0000
  H   H756      1.0  0.9660598878733572  0.6712032896806065  0.8704112920425706  1.0000
  N   N48       1.0  0.08167785564010732  0.8881453527254447  0.6582522411855865  1.0000
  C   C477      1.0  0.10822996858194382  0.8947124853269087  0.6356261305504067  1.0000
  C   C478      1.0  0.08334252468730317  0.8935397403147791  0.7072928710818952  1.0000
  C   C479      1.0  0.07460679581255836  0.8551538654628072  0.6489591004078887  1.0000
  C   C480      1.0  0.060500738693205595  0.9091481064135986  0.6412160322186266  1.0000
  H   H757      1.0  0.11457099082162124  0.9191867614593143  0.6428153014658896  1.0000
  H   H758      1.0  0.10753336926267748  0.8918583843821395  0.5984591249978911  1.0000
  H   H759      1.0  0.12445199708480707  0.8786779476458941  0.6470750367245846  1.0000
  H   H760      1.0  0.09822370004754018  0.8770854580623813  0.7218233672421921  1.0000
  H   H761      1.0  0.08970378500290842  0.9179407278429756  0.7151253857101354  1.0000
  H   H762      1.0  0.06331615419838715  0.8902486150871987  0.7252461377063284  1.0000
  H   H763      1.0  0.09006336832878513  0.8385189431550122  0.6614238996595458  1.0000
  H   H764      1.0  0.07303020897781701  0.8503842433389973  0.6122325469617158  1.0000
  H   H765      1.0  0.05473892128893039  0.8493683918327168  0.6655886124855772  1.0000
  H   H766      1.0  0.06501207255250147  0.9342743475055283  0.6478130482456967  1.0000
  H   H767      1.0  0.04026978231017831  0.9046493338163101  0.6577094442254253  1.0000
  H   H768      1.0  0.058588048437480264  0.9058463513190815  0.604312018865094  1.0000
