data_image0
_chemical_formula_structural       CSHFeHS2HC2SHFeHCHC2HCNH3CHCHCH2CH3CSH2CH2C4HCHSH3CHCH2CHCHNSH2SHCHFeCHFeCNC4H3FeH2CH3FeH4CHSH6SHCSHCH2SCH4C2FeH2CH3C2HC3HC4HSH3CSFeS3HCHCNHNSHCHCH2CHC3SCH2CHCH2CHCH2FeHC2FeHCH2SH8CSH2CHSH2CHSHFeSC5HCSH5C2HFeCHFeNHCSC2H3C4HSHFeHCHC3H2C3HCH3C2HN2H5CH4SHFeH2Fe2HSHCH4CH2SH9SNS2CH3FeS2FeSH2SHSHCSH3C2H2C6H3C3HSH3NCH7CHCH2FeC2SNC4HS2HCH10CHSCHSCSCHC2FeH5CHCH2C2Fe2HC2SHCSHCFeC2HSCH3C2HCFeSHFeS2FeS2FeSFeS3H2FeSHC2HC6H4C6H3C6H4C2HCH2SHC2NH3CHNH9SCNH5NC3H8CH4NHSC3SHSH3CH3CH2CFeH5CFe2H3SCHCSHCFeSHSHFeS2FeCSCHSFeSHCSH4NHCH3CHC7H3C3HC2FeSHCHCH2C3H2CHCSHCH2SCH2FeCH4SCHCFeNC3SH6CHC2SH3FeHSCS2CSFeCSNH3FeSHSHSH2FeS3C2HSC7H6FeSNHC2H5CH6CHC2HCFeHC2H8C4HC2HSHCH2C2HFeSH2FeS2FeS2FeSFeS4HSHFeSHCNH3C6H4C6H4C6H4C6H4NC4H13CH2SH8FeH2CH4CHCHCH2CNCFeH3C2H2NSFeH3CSHFeS2FeHSFeSHFeSFeHCHFeCH2CNHC8H7CHSNH3C2H3SNC3H6CHC3HCSC2HCHSH4CHSFeCHCH2C3NSH11CS2H2C2H2CHCHSCFeCSFeH2SHSHFeSFeH2SFeS2HC2HC5H3CHCHSHCSH3CSHCHCH2CFeNC4H6NFeCS2H3CHCSHCNH3FeCH2CHCH5CHCHSCHSHSC3SCFeHSCHFe2S2H2FeHCS2HS2CNHCHSH3FeCH2NC2HC3NH3C4H3CHC2HFeC3HSH2CSHC2HC2H3C2NHC4H4CH2SH5FeCSHCH5C2H3CHC3HSFeHSFeH3SNCFeSHFeSCFeSFeH2SHCFeHFeS2CSCHFeC2SHC3HSH2NC4SHCH5C3SC4H5CH2SHSHCFeCHCHCH4CHCH2SH3CSH3NH2CHCHCHSCHSH2SHCH3SH4C2H2CH2NH2CHSCHC4HCH2NH2CFeH2SH2FeCHCH2NSCFeH2CFeCSHCHCHCH6CSH3CHNFeS2FeS2FeS2FeS2FeS2HFeS2FeS2HFeS2C6H4C6H4C6H4C6H5CH2CH3FeH3CNHSH2CHCHCH2C2HNHCHCH2CHCH2CH3CFeNCHCH5NH2NCH9CH4C2NH7CH3CHCH3SC2H3FeCSFeH2SHSH3SH2SCHSHFeC2H3CH4FeCSH5SHC7H4CH2C2HCSCH2NCH2CNCH3CHFeSCH6C3H2NC3HSH2CH4CH9CSFeSCFeHSCH2S2FeS2FeS2FeSFeS4H2C6H2C7H5C6H4C2HCHCH2C2H3SH2NC4H13CSH2NHCH2SHFeHCSHFeHCH6CH2CNH7CH2NHFeS2FeS2FeSFeS3H2CFeSHSFeHS2NC6H4C6H4C7HCH2C2H8CHCHCH2CFeH2C2HS3H3C2H2CH2C2H2NH2CH3S2NH2FeH3CHFeCH4FeS2FeS2FeSFeS5HFeSCHC6H4C6H4C6H4C6H5NC4H8C3HN2HCH6CH2C2H4SH11CNSH3CH4CHFeH2CHCH5SHNHCFeCH12CHCH3NCHSHFeS2FeS2FeSFeS3NSFeH3FeSC6H4C6H4C6H4C6H10NH2CHCHCH3CSHSCNH3CHCH4CH2CH2CHCFeH2FeHCH3CH6SH3CH2C2HC2HFeS2H2FeS5H3SCSH4C3FeCSC3HC3H2CSFeH2C5SH3NH2C2H3CHCH7FeH4NC2HSHCSH2FeHC6FeS2FeS2FeS2HFeS2FeS2FeSCFeS2HFeSC4HC2HC6H4C6H4C6H2CH2NHNCHC2H2CNH3SH2CH2CH12CNH2CH5FeH3CH3CHCH2SCH2CH3SHCHNH5CSCH2NHC2H2FeSHSHCS2C3HSHFeS2FeCH2S2H4C3H4CH2CHCHSCH4C7HC5H3N2HC2HCHFeSCH2SH4NHCH2CH2CH2FeSHFeC2SH10FeHFeHSCHSHFeHSCHS2C2SCHC4HCH5CHCH2CHC7H2CHNC2H2NHC2H2S2H6CH5SH4CH3NCHCH2CH2SHFeSH2FeH2FeCH2CH2SH3CSH2SFeNHSHCFeH6SHSHCH2C6H2CHCSH2CH6CH6NC4H6CHSC3HNHSH4FeH3CH2CS4FeSH2CHSCH2FeSCS3CH2C3H5CSH2C2HNC7HCH2CNC4H12CHCFe2NCHCSHSH2CH2FeHCH2CNH9CHSHCSH2SHFeSFe2S2H2SH2CHC2HFeS2H2CNCFeNHC6H2CH2C2HCHC4NCHCHCHSH2NC4H15Fe2H5CHC3SH3CSHSCSFeCSHCHFeC3H2FeCHCHCHSFeS3HFeSNFeS2FeS2FeSFeS3HSC5H4C7H4C6H5C2H4CH6SHNHCH5SHC4H2FeHCH3CNC4HCH5SFeH2CS2HCH3FeH2SCSH3SFeSC2SCSH3Fe3NH2SC2H2C4H3C4H2CHCSFe2C3SH3C2HCH5CH3C3NH2FeHSHCH3CH2C2H5SCSCHSH2NC3H2CSC2H5SFe3C2HSC2HS2C2SHSHFeSNFeHSH3SHSH6FeH2CH2C2HNHC6H6CNHCH4SHSHC2H2FeCHSH5C2HSHCHCHCHFeH3CH2SCNC3HCH2C2HSH2SH2NH4FeS2FeS2FeSFeS3HSHSFeSC6H4C6H4C6H4C6H3NHC2H5FeH3C2H7NC4H15CHCNHSNHCHCHFeH4CSHCHCSFeSHCSHC2HC7H5CHCH2CHCH2CH3CH2SNH4CNH6C2HS2HFeHFeH3SCH6CH3C3H4CH2NCHSCHFeSFeH2FeS2FeSH3SNCFeHSHSCHS2C4HCH2CHC8NH4SC5H4SH4C2HC2SHSH3CHNFeCH2CHFeH2CHSHFeSHCH2FeH5CH2CH4NH3FeS2FeSFeHS2CH3SHSCH3SCH4C3H2SC6H6CHSHNCFeH3CHC2HC3N2C3H2SH3CH5FeHCH3CHFeCNH2SHCHSHC2HCHCSH4C4HCFeCSH2S4FeSFe2S2HCSHC2SHSC2HC3HFeC2H2FeCHCNFeSH3C3SC3H3NC4H12CH3S2HC2HCH4CFeCH3C3
_chemical_formula_sum              "C1200 S480 H1920 Fe240 N120"
_cell_length_a       63.543
_cell_length_b       63.6083
_cell_length_c       63.3092
_cell_angle_alpha    87.4338
_cell_angle_beta     86.4991
_cell_angle_gamma    86.9064

_space_group_name_H-M_alt    "P 1"
_space_group_IT_number       1

loop_
  _space_group_symop_operation_xyz
  'x, y, z'

loop_
  _atom_site_type_symbol
  _atom_site_label
  _atom_site_symmetry_multiplicity
  _atom_site_fract_x
  _atom_site_fract_y
  _atom_site_fract_z
  _atom_site_occupancy
  C   C1        1.0  0.26882  0.04229  0.19346  1.0000
  S   S1        1.0  0.32680  0.10851  0.05896  1.0000
  H   H1        1.0  0.03462  0.19369  0.21635  1.0000
  Fe  Fe1       1.0  0.31915  0.12585  0.02759  1.0000
  H   H2        1.0  0.17281  0.23673  0.01643  1.0000
  S   S2        1.0  0.04075  0.08200  0.31991  1.0000
  S   S3        1.0  0.31416  0.16130  0.02319  1.0000
  H   H3        1.0  0.28690  0.04355  0.15387  1.0000
  C   C2        1.0  0.02306  0.23415  0.31347  1.0000
  C   C3        1.0  0.27076  0.05118  0.15589  1.0000
  S   S4        1.0  0.03214  0.14689  0.30546  1.0000
  H   H4        1.0  0.26370  0.20272  0.02394  1.0000
  Fe  Fe2       1.0  0.02332  0.11326  0.31093  1.0000
  H   H5        1.0  0.30086  0.22235  0.01285  1.0000
  C   C4        1.0  0.10967  0.05491  0.31452  1.0000
  H   H6        1.0  0.05454  0.21072  0.29405  1.0000
  C   C5        1.0  0.08405  0.08498  0.31067  1.0000
  C   C6        1.0  0.06745  0.07211  0.31704  1.0000
  H   H7        1.0  0.27201  0.01008  0.16798  1.0000
  C   C7        1.0  0.09303  0.04208  0.32078  1.0000
  N   N1        1.0  0.02152  0.22037  0.29550  1.0000
  H   H8        1.0  0.22712  0.04393  0.18872  1.0000
  H   H9        1.0  0.01016  0.24670  0.31385  1.0000
  H   H10       1.0  0.15442  0.21160  0.07806  1.0000
  C   C8        1.0  0.23993  0.22770  0.01813  1.0000
  H   H11       1.0  0.26005  0.03411  0.20696  1.0000
  C   C9        1.0  0.01963  0.20172  0.22065  1.0000
  H   H12       1.0  0.08078  0.10148  0.30662  1.0000
  C   C10       1.0  0.29202  0.05844  0.08004  1.0000
  H   H13       1.0  0.23774  0.06835  0.17889  1.0000
  H   H14       1.0  0.00613  0.02254  0.30949  1.0000
  C   C11       1.0  0.03878  0.20383  0.29571  1.0000
  H   H15       1.0  0.03792  0.19299  0.28246  1.0000
  H   H16       1.0  0.24387  0.23658  0.03140  1.0000
  H   H17       1.0  0.00536  0.06873  0.30014  1.0000
  C   C12       1.0  0.30432  0.04857  0.09578  1.0000
  S   S5        1.0  0.01595  0.16994  0.25179  1.0000
  H   H18       1.0  0.15695  0.21424  0.01913  1.0000
  H   H19       1.0  0.28875  0.08429  0.05681  1.0000
  C   C13       1.0  0.29854  0.07679  0.06865  1.0000
  H   H20       1.0  0.13071  0.23440  0.04183  1.0000
  H   H21       1.0  0.22843  0.05046  0.16076  1.0000
  C   C14       1.0  0.00667  0.19325  0.23745  1.0000
  C   C15       1.0  0.25136  0.20851  0.01384  1.0000
  C   C16       1.0  0.18055  0.23859  0.05749  1.0000
  C   C17       1.0  0.16958  0.22236  0.02647  1.0000
  H   H22       1.0  0.17358  0.19726  0.06139  1.0000
  C   C18       1.0  0.22345  0.23546  0.00553  1.0000
  H   H23       1.0  0.24895  0.01664  0.15370  1.0000
  S   S6        1.0  0.29495  0.02578  0.10995  1.0000
  H   H24       1.0  0.03798  0.19406  0.31075  1.0000
  H   H25       1.0  0.27034  0.05892  0.19759  1.0000
  H   H26       1.0  0.14635  0.19959  0.05494  1.0000
  C   C19       1.0  0.32326  0.05732  0.10004  1.0000
  H   H27       1.0  0.28498  0.03456  0.19241  1.0000
  C   C20       1.0  0.10505  0.07642  0.30956  1.0000
  H   H28       1.0  0.03839  0.24191  0.31255  1.0000
  H   H29       1.0  0.31617  0.07965  0.02702  1.0000
  C   C21       1.0  0.31746  0.08560  0.07297  1.0000
  H   H30       1.0  0.02362  0.22667  0.19642  1.0000
  C   C22       1.0  0.31732  0.06725  0.01513  1.0000
  H   H31       1.0  0.27725  0.05191  0.07673  1.0000
  N   N2        1.0  0.25819  0.04087  0.17347  1.0000
  S   S7        1.0  0.13641  0.04498  0.31329  1.0000
  H   H32       1.0  0.09635  0.02555  0.32474  1.0000
  H   H33       1.0  0.26341  0.05010  0.14046  1.0000
  S   S8        1.0  0.32067  0.01134  0.16576  1.0000
  H   H34       1.0  0.13857  0.24593  0.06531  1.0000
  C   C23       1.0  0.23691  0.05140  0.17554  1.0000
  H   H35       1.0  0.11783  0.08646  0.30469  1.0000
  Fe  Fe3       1.0  0.14792  0.01020  0.31555  1.0000
  C   C24       1.0  0.07209  0.05068  0.32220  1.0000
  H   H36       1.0  0.32458  0.03251  0.03944  1.0000
  Fe  Fe4       1.0  0.00629  0.15085  0.28240  1.0000
  C   C25       1.0  0.00486  0.03314  0.32309  1.0000
  N   N3        1.0  0.16336  0.22769  0.04856  1.0000
  C   C26       1.0  0.15926  0.20815  0.06132  1.0000
  C   C27       1.0  0.14402  0.24170  0.04893  1.0000
  C   C28       1.0  0.01345  0.22051  0.20929  1.0000
  C   C29       1.0  0.25627  0.01849  0.16900  1.0000
  H   H37       1.0  0.18426  0.21196  0.02551  1.0000
  H   H38       1.0  0.27256  0.06812  0.15860  1.0000
  H   H39       1.0  0.24673  0.01016  0.18181  1.0000
  Fe  Fe5       1.0  0.00667  0.15528  0.33035  1.0000
  H   H40       1.0  0.19576  0.22903  0.05638  1.0000
  H   H41       1.0  0.33287  0.05000  0.11214  1.0000
  C   C30       1.0  0.02319  0.23297  0.27531  1.0000
  H   H42       1.0  0.02010  0.04105  0.32313  1.0000
  H   H43       1.0  0.00995  0.24509  0.27415  1.0000
  H   H44       1.0  0.17677  0.24212  0.07439  1.0000
  Fe  Fe6       1.0  0.31126  0.00297  0.13364  1.0000
  H   H45       1.0  0.02270  0.22285  0.26148  1.0000
  H   H46       1.0  0.03826  0.24115  0.27343  1.0000
  H   H47       1.0  0.02183  0.22497  0.32891  1.0000
  H   H48       1.0  0.30350  0.05732  0.01825  1.0000
  C   C31       1.0  0.32968  0.07579  0.08880  1.0000
  H   H49       1.0  0.05947  0.04056  0.32731  1.0000
  S   S9        1.0  0.29515  0.11900  0.00436  1.0000
  H   H50       1.0  0.26289  0.00240  0.24948  1.0000
  H   H51       1.0  0.20934  0.24141  0.49798  1.0000
  H   H52       1.0  0.20211  0.00554  0.48268  1.0000
  H   H53       1.0  0.22816  0.05139  0.55706  1.0000
  H   H54       1.0  0.22234  0.04371  0.59577  1.0000
  H   H55       1.0  0.27084  0.04484  0.59494  1.0000
  S   S10       1.0  0.29245  0.03587  0.52479  1.0000
  H   H56       1.0  0.27414  0.01272  0.56145  1.0000
  C   C32       1.0  0.20961  0.00543  0.41048  1.0000
  S   S11       1.0  0.03650  0.20841  0.49930  1.0000
  H   H57       1.0  0.17648  0.01688  0.48999  1.0000
  C   C33       1.0  0.03802  0.10886  0.37663  1.0000
  H   H58       1.0  0.22740  0.02378  0.55250  1.0000
  H   H59       1.0  0.20789  0.02223  0.41257  1.0000
  S   S12       1.0  0.24149  0.01170  0.50479  1.0000
  C   C34       1.0  0.00871  0.19225  0.57989  1.0000
  H   H60       1.0  0.03765  0.20829  0.57484  1.0000
  H   H61       1.0  0.30489  0.09214  0.46937  1.0000
  H   H62       1.0  0.22167  0.01616  0.59106  1.0000
  H   H63       1.0  0.19188  0.00697  0.38217  1.0000
  C   C35       1.0  0.02281  0.18098  0.62091  1.0000
  C   C36       1.0  0.00346  0.17438  0.61492  1.0000
  Fe  Fe7       1.0  0.27619  0.00930  0.50960  1.0000
  H   H64       1.0  0.27464  0.05039  0.56693  1.0000
  H   H65       1.0  0.03492  0.09787  0.36409  1.0000
  C   C37       1.0  0.03500  0.19329  0.60626  1.0000
  H   H66       1.0  0.24967  0.03816  0.54250  1.0000
  H   H67       1.0  0.31381  0.06820  0.54387  1.0000
  H   H68       1.0  0.02463  0.12089  0.37752  1.0000
  C   C38       1.0  0.26768  0.24760  0.49482  1.0000
  C   C39       1.0  0.31931  0.09304  0.52007  1.0000
  H   H69       1.0  0.33033  0.20395  0.62055  1.0000
  C   C40       1.0  0.28508  0.23510  0.50209  1.0000
  C   C41       1.0  0.15672  0.24516  0.51207  1.0000
  C   C42       1.0  0.05797  0.13070  0.35148  1.0000
  H   H70       1.0  0.29029  0.22083  0.49422  1.0000
  C   C43       1.0  0.31690  0.09998  0.49902  1.0000
  C   C44       1.0  0.30694  0.08697  0.48566  1.0000
  C   C45       1.0  0.29944  0.06732  0.49317  1.0000
  C   C46       1.0  0.30181  0.06038  0.51422  1.0000
  H   H71       1.0  0.02635  0.21267  0.37968  1.0000
  S   S13       1.0  0.23109  0.00428  0.44713  1.0000
  H   H72       1.0  0.04500  0.14320  0.35161  1.0000
  H   H73       1.0  0.29180  0.05757  0.48267  1.0000
  H   H74       1.0  0.15063  0.23931  0.49742  1.0000
  C   C47       1.0  0.02804  0.19889  0.58588  1.0000
  S   S14       1.0  0.00595  0.18647  0.45253  1.0000
  Fe  Fe8       1.0  0.01126  0.21230  0.47557  1.0000
  S   S15       1.0  0.01571  0.25176  0.52078  1.0000
  S   S16       1.0  0.01608  0.18098  0.35158  1.0000
  S   S17       1.0  0.32608  0.12459  0.48848  1.0000
  H   H75       1.0  0.07347  0.09102  0.35853  1.0000
  C   C48       1.0  0.00415  0.16606  0.39244  1.0000
  H   H76       1.0  0.07661  0.09307  0.38635  1.0000
  C   C49       1.0  0.23794  0.03639  0.55619  1.0000
  N   N4        1.0  0.05838  0.11883  0.37206  1.0000
  H   H77       1.0  0.32293  0.21474  0.59516  1.0000
  N   N5        1.0  0.24848  0.03124  0.57609  1.0000
  S   S18       1.0  0.31787  0.22612  0.52938  1.0000
  H   H78       1.0  0.01544  0.05335  0.65696  1.0000
  C   C50       1.0  0.01956  0.20004  0.38937  1.0000
  H   H79       1.0  0.02261  0.21550  0.41881  1.0000
  C   C51       1.0  0.26241  0.04831  0.58018  1.0000
  H   H80       1.0  0.04893  0.14619  0.38986  1.0000
  H   H81       1.0  0.25981  0.24283  0.48127  1.0000
  C   C52       1.0  0.00876  0.18551  0.42440  1.0000
  H   H82       1.0  0.18565  0.24887  0.54078  1.0000
  C   C53       1.0  0.06171  0.13345  0.38893  1.0000
  C   C54       1.0  0.19305  0.23578  0.50103  1.0000
  C   C55       1.0  0.26125  0.01126  0.57408  1.0000
  S   S19       1.0  0.03243  0.17444  0.64642  1.0000
  C   C56       1.0  0.31178  0.07340  0.52759  1.0000
  H   H83       1.0  0.25333  0.06366  0.58179  1.0000
  H   H84       1.0  0.18421  0.01254  0.46255  1.0000
  C   C57       1.0  0.23236  0.02896  0.59379  1.0000
  H   H85       1.0  0.04999  0.19848  0.61070  1.0000
  C   C58       1.0  0.01746  0.20172  0.41158  1.0000
  H   H86       1.0  0.07696  0.14124  0.38605  1.0000
  H   H87       1.0  0.09129  0.10924  0.36734  1.0000
  C   C59       1.0  0.01286  0.18227  0.37966  1.0000
  H   H88       1.0  0.06186  0.12512  0.40477  1.0000
  C   C60       1.0  0.29544  0.24095  0.51966  1.0000
  H   H89       1.0  0.19388  0.22262  0.51319  1.0000
  H   H90       1.0  0.32768  0.22934  0.48203  1.0000
  Fe  Fe9       1.0  0.01074  0.21688  0.52424  1.0000
  H   H91       1.0  0.07303  0.13851  0.34749  1.0000
  C   C61       1.0  0.07570  0.10234  0.37108  1.0000
  C   C62       1.0  0.00959  0.06476  0.66907  1.0000
  Fe  Fe10      1.0  0.03973  0.24366  0.49426  1.0000
  H   H92       1.0  0.03778  0.09968  0.39202  1.0000
  C   C63       1.0  0.18519  0.00581  0.47905  1.0000
  H   H93       1.0  0.15647  0.23207  0.52433  1.0000
  H   H94       1.0  0.23972  0.02490  0.60906  1.0000
  S   S20       1.0  0.01583  0.24681  0.46902  1.0000
  H   H95       1.0  0.26876  0.00636  0.58907  1.0000
  H   H96       1.0  0.32711  0.17878  0.58105  1.0000
  H   H97       1.0  0.18832  0.22928  0.48610  1.0000
  H   H98       1.0  0.32395  0.23894  0.45538  1.0000
  H   H99       1.0  0.32697  0.10276  0.53056  1.0000
  H   H100      1.0  0.33508  0.16807  0.60631  1.0000
  H   H101      1.0  0.05554  0.12011  0.33840  1.0000
  H   H102      1.0  0.00332  0.02315  0.33793  1.0000
  C   C64       1.0  0.24670  0.19685  0.99660  1.0000
  S   S21       1.0  0.31819  0.15359  0.97179  1.0000
  H   H103      1.0  0.16579  0.05669  0.71422  1.0000
  H   H104      1.0  0.32524  0.07507  0.82475  1.0000
  C   C65       1.0  0.32403  0.23895  0.97906  1.0000
  H   H105      1.0  0.02368  0.07095  0.67593  1.0000
  S   S22       1.0  0.29311  0.04198  0.88627  1.0000
  H   H106      1.0  0.04097  0.23102  0.76588  1.0000
  H   H107      1.0  0.09621  0.22134  0.83340  1.0000
  C   C66       1.0  0.15814  0.03449  0.76380  1.0000
  H   H108      1.0  0.29974  0.19727  0.96151  1.0000
  S   S23       1.0  0.03512  0.15036  0.70465  1.0000
  H   H109      1.0  0.25072  0.00972  0.80071  1.0000
  Fe  Fe11      1.0  0.02675  0.11625  0.70414  1.0000
  S   S24       1.0  0.04356  0.08497  0.71461  1.0000
  C   C67       1.0  0.05406  0.22122  0.84002  1.0000
  C   C68       1.0  0.06772  0.07215  0.70532  1.0000
  C   C69       1.0  0.07295  0.05161  0.71326  1.0000
  C   C70       1.0  0.09212  0.04090  0.70674  1.0000
  C   C71       1.0  0.10642  0.05073  0.69233  1.0000
  H   H110      1.0  0.06060  0.20771  0.88030  1.0000
  C   C72       1.0  0.08186  0.08184  0.69067  1.0000
  S   S25       1.0  0.26150  0.17323  0.98929  1.0000
  H   H111      1.0  0.09592  0.02515  0.71303  1.0000
  H   H112      1.0  0.02941  0.20178  0.74523  1.0000
  H   H113      1.0  0.06216  0.04398  0.72465  1.0000
  H   H114      1.0  0.31335  0.21729  0.94608  1.0000
  H   H115      1.0  0.07811  0.09763  0.68443  1.0000
  C   C73       1.0  0.01975  0.20718  0.75878  1.0000
  C   C74       1.0  0.15899  0.07148  0.75350  1.0000
  H   H116      1.0  0.11209  0.07901  0.67322  1.0000
  Fe  Fe12      1.0  0.00311  0.15694  0.72128  1.0000
  C   C75       1.0  0.09020  0.21837  0.85010  1.0000
  H   H117      1.0  0.27921  0.07918  0.90844  1.0000
  Fe  Fe13      1.0  0.30437  0.01180  0.86939  1.0000
  N   N6        1.0  0.30719  0.22381  0.97901  1.0000
  H   H118      1.0  0.12878  0.06236  0.72793  1.0000
  C   C76       1.0  0.16833  0.04524  0.72777  1.0000
  S   S26       1.0  0.13156  0.03874  0.68479  1.0000
  C   C77       1.0  0.32976  0.06139  0.83536  1.0000
  C   C78       1.0  0.02628  0.22384  0.77059  1.0000
  H   H119      1.0  0.22360  0.02084  0.77515  1.0000
  H   H120      1.0  0.27390  0.22406  0.97471  1.0000
  H   H121      1.0  0.32597  0.02898  0.99983  1.0000
  C   C79       1.0  0.32127  0.07713  0.93966  1.0000
  C   C80       1.0  0.30228  0.08438  0.93112  1.0000
  C   C81       1.0  0.29382  0.07329  0.91502  1.0000
  C   C82       1.0  0.30403  0.05469  0.90738  1.0000
  H   H122      1.0  0.15510  0.01837  0.75893  1.0000
  S   S27       1.0  0.30655  0.01313  0.83359  1.0000
  H   H123      1.0  0.08956  0.20101  0.85293  1.0000
  Fe  Fe14      1.0  0.32253  0.11883  0.97995  1.0000
  H   H124      1.0  0.03805  0.22895  0.84273  1.0000
  C   C83       1.0  0.22840  0.00433  0.77710  1.0000
  H   H125      1.0  0.33088  0.03293  0.91065  1.0000
  C   C84       1.0  0.23002  0.20450  0.98418  1.0000
  C   C85       1.0  0.32290  0.04730  0.91612  1.0000
  C   C86       1.0  0.01404  0.23126  0.78834  1.0000
  H   H126      1.0  0.16516  0.02949  0.72226  1.0000
  H   H127      1.0  0.17571  0.07191  0.75775  1.0000
  C   C87       1.0  0.13212  0.05051  0.74096  1.0000
  C   C88       1.0  0.06188  0.22485  0.87657  1.0000
  C   C89       1.0  0.00692  0.03662  0.69577  1.0000
  H   H128      1.0  0.05243  0.20394  0.84244  1.0000
  C   C90       1.0  0.28671  0.23522  0.97554  1.0000
  H   H129      1.0  0.10199  0.22402  0.86058  1.0000
  H   H130      1.0  0.28190  0.24592  0.98862  1.0000
  H   H131      1.0  0.12826  0.03492  0.73528  1.0000
  C   C91       1.0  0.30590  0.21196  0.99961  1.0000
  C   C92       1.0  0.10114  0.07122  0.68434  1.0000
  H   H132      1.0  0.12100  0.05419  0.75470  1.0000
  N   N7        1.0  0.06924  0.22910  0.85424  1.0000
  N   N8        1.0  0.15438  0.05044  0.74653  1.0000
  H   H133      1.0  0.14784  0.03774  0.77824  1.0000
  H   H134      1.0  0.14870  0.07593  0.76763  1.0000
  H   H135      1.0  0.29419  0.09863  0.93678  1.0000
  H   H136      1.0  0.20587  0.22925  0.97871  1.0000
  H   H137      1.0  0.22615  0.19566  0.97085  1.0000
  C   C93       1.0  0.21845  0.22359  0.98861  1.0000
  H   H138      1.0  0.07270  0.23110  0.88772  1.0000
  H   H139      1.0  0.18531  0.04471  0.73132  1.0000
  H   H140      1.0  0.15634  0.08382  0.74075  1.0000
  H   H141      1.0  0.05890  0.22450  0.82303  1.0000
  S   S28       1.0  0.01172  0.12007  0.67280  1.0000
  H   H142      1.0  0.04607  0.23269  0.88025  1.0000
  Fe  Fe15      1.0  0.29227  0.15452  0.99791  1.0000
  H   H143      1.0  0.02138  0.04156  0.70300  1.0000
  H   H144      1.0  0.01204  0.02457  0.68406  1.0000
  Fe  Fe16      1.0  0.14611  0.00580  0.69240  1.0000
  Fe  Fe17      1.0  0.01797  0.15449  0.67409  1.0000
  H   H145      1.0  0.17487  0.03390  0.76827  1.0000
  S   S29       1.0  0.18176  0.00385  0.68978  1.0000
  H   H146      1.0  0.32083  0.25025  0.99193  1.0000
  C   C94       1.0  0.31217  0.20896  0.96189  1.0000
  H   H147      1.0  0.31575  0.07539  0.99935  1.0000
  H   H148      1.0  0.31512  0.05647  0.84444  1.0000
  H   H149      1.0  0.29448  0.19934  0.99960  1.0000
  H   H150      1.0  0.32746  0.19995  0.96412  1.0000
  C   C95       1.0  0.33150  0.05853  0.93201  1.0000
  H   H151      1.0  0.28727  0.24484  0.96042  1.0000
  H   H152      1.0  0.32306  0.07935  0.87272  1.0000
  S   S30       1.0  0.33323  0.09071  0.95950  1.0000
  H   H153      1.0  0.00271  0.07526  0.71014  1.0000
  H   H154      1.0  0.32557  0.24818  0.96375  1.0000
  H   H155      1.0  0.33335  0.09838  0.85357  1.0000
  H   H156      1.0  0.33551  0.04820  0.82512  1.0000
  H   H157      1.0  0.32142  0.20416  0.00330  1.0000
  H   H158      1.0  0.22640  0.43474  0.03956  1.0000
  H   H159      1.0  0.27784  0.43087  0.06450  1.0000
  H   H160      1.0  0.05102  0.35499  0.17151  1.0000
  H   H161      1.0  0.25254  0.39131  0.07099  1.0000
  S   S31       1.0  0.30119  0.47698  0.23148  1.0000
  N   N9        1.0  0.24486  0.42437  0.06579  1.0000
  S   S32       1.0  0.05038  0.49145  0.29834  1.0000
  S   S33       1.0  0.23793  0.47963  0.02518  1.0000
  C   C96       1.0  0.26445  0.49343  0.29477  1.0000
  H   H162      1.0  0.06053  0.44362  0.24903  1.0000
  H   H163      1.0  0.08479  0.49874  0.26582  1.0000
  H   H164      1.0  0.26358  0.44248  0.04319  1.0000
  Fe  Fe18      1.0  0.13508  0.29185  0.01862  1.0000
  S   S34       1.0  0.10649  0.27973  0.03828  1.0000
  S   S35       1.0  0.16670  0.30079  0.02848  1.0000
  Fe  Fe19      1.0  0.02851  0.29669  0.14108  1.0000
  S   S36       1.0  0.06282  0.30091  0.12911  1.0000
  H   H165      1.0  0.26450  0.46042  0.25368  1.0000
  H   H166      1.0  0.22323  0.44061  0.08783  1.0000
  S   S37       1.0  0.02039  0.30188  0.17590  1.0000
  H   H167      1.0  0.30755  0.47635  0.13715  1.0000
  S   S38       1.0  0.03850  0.48520  0.23690  1.0000
  H   H168      1.0  0.23257  0.40215  0.08933  1.0000
  C   C97       1.0  0.18696  0.40104  0.00737  1.0000
  S   S39       1.0  0.02388  0.42778  0.23095  1.0000
  H   H169      1.0  0.06691  0.46207  0.26794  1.0000
  H   H170      1.0  0.27030  0.41479  0.04364  1.0000
  H   H171      1.0  0.18331  0.25390  0.04879  1.0000
  C   C98       1.0  0.08150  0.43329  0.29674  1.0000
  C   C99       1.0  0.04516  0.43170  0.28814  1.0000
  H   H172      1.0  0.24491  0.46833  0.28790  1.0000
  H   H173      1.0  0.14672  0.25674  0.03979  1.0000
  C   C100      1.0  0.09423  0.28707  0.06309  1.0000
  C   C101      1.0  0.10435  0.29876  0.07732  1.0000
  C   C102      1.0  0.09446  0.30295  0.09739  1.0000
  C   C103      1.0  0.07424  0.29583  0.10335  1.0000
  C   C104      1.0  0.06397  0.28454  0.08895  1.0000
  C   C105      1.0  0.07401  0.28003  0.06905  1.0000
  H   H174      1.0  0.11994  0.30418  0.07303  1.0000
  H   H175      1.0  0.10262  0.31157  0.10844  1.0000
  H   H176      1.0  0.04848  0.27887  0.09330  1.0000
  C   C106      1.0  0.33237  0.49492  0.09159  1.0000
  C   C107      1.0  0.26506  0.42817  0.05378  1.0000
  C   C108      1.0  0.32928  0.48935  0.11332  1.0000
  H   H177      1.0  0.31938  0.49625  0.06062  1.0000
  S   S40       1.0  0.00547  0.32218  0.13062  1.0000
  H   H178      1.0  0.07802  0.44904  0.30355  1.0000
  H   H179      1.0  0.23289  0.40703  0.04109  1.0000
  H   H180      1.0  0.04119  0.44753  0.29460  1.0000
  N   N10       1.0  0.06734  0.42988  0.27966  1.0000
  C   C109      1.0  0.24755  0.40552  0.08006  1.0000
  H   H181      1.0  0.06893  0.33872  0.15521  1.0000
  H   H182      1.0  0.03611  0.38457  0.22293  1.0000
  H   H183      1.0  0.07252  0.34576  0.11663  1.0000
  H   H184      1.0  0.25980  0.40767  0.09154  1.0000
  H   H185      1.0  0.07049  0.39210  0.12856  1.0000
  H   H186      1.0  0.11605  0.49002  0.33602  1.0000
  H   H187      1.0  0.18886  0.49371  0.27202  1.0000
  C   C110      1.0  0.28720  0.48415  0.25574  1.0000
  H   H188      1.0  0.03177  0.38912  0.12667  1.0000
  C   C111      1.0  0.25824  0.47740  0.28242  1.0000
  H   H189      1.0  0.30800  0.44429  0.26342  1.0000
  H   H190      1.0  0.06939  0.39613  0.28391  1.0000
  Fe  Fe20      1.0  0.01290  0.46174  0.23910  1.0000
  C   C112      1.0  0.01464  0.37355  0.20117  1.0000
  C   C113      1.0  0.01304  0.40926  0.21479  1.0000
  S   S41       1.0  0.27732  0.47853  0.06717  1.0000
  N   N11       1.0  0.05339  0.36478  0.13848  1.0000
  C   C114      1.0  0.03264  0.37650  0.13937  1.0000
  C   C115      1.0  0.05367  0.34823  0.15561  1.0000
  C   C116      1.0  0.07019  0.37943  0.14126  1.0000
  C   C117      1.0  0.05708  0.35495  0.11774  1.0000
  H   H191      1.0  0.31061  0.44092  0.29139  1.0000
  S   S42       1.0  0.25057  0.50042  0.31909  1.0000
  S   S43       1.0  0.20994  0.26004  0.01172  1.0000
  H   H192      1.0  0.04112  0.33701  0.15401  1.0000
  C   C118      1.0  0.29459  0.47761  0.10617  1.0000
  H   H193      1.0  0.07731  0.48834  0.33327  1.0000
  H   H194      1.0  0.08604  0.37100  0.14078  1.0000
  H   H195      1.0  0.06781  0.38713  0.15675  1.0000
  H   H196      1.0  0.06606  0.27091  0.05821  1.0000
  H   H197      1.0  0.17147  0.40708  0.01297  1.0000
  H   H198      1.0  0.02195  0.35781  0.20085  1.0000
  H   H199      1.0  0.01959  0.36587  0.13748  1.0000
  H   H200      1.0  0.05698  0.36689  0.10437  1.0000
  H   H201      1.0  0.25057  0.44618  0.08959  1.0000
  H   H202      1.0  0.03402  0.42940  0.27561  1.0000
  C   C119      1.0  0.22852  0.42093  0.05082  1.0000
  H   H203      1.0  0.04480  0.34363  0.11519  1.0000
  S   S44       1.0  0.00369  0.46761  0.27345  1.0000
  C   C120      1.0  0.23836  0.44286  0.07844  1.0000
  H   H204      1.0  0.02929  0.38402  0.15486  1.0000
  S   S45       1.0  0.00549  0.27106  0.13865  1.0000
  C   C121      1.0  0.29767  0.48319  0.08444  1.0000
  S   S46       1.0  0.19754  0.46710  0.33011  1.0000
  C   C122      1.0  0.31669  0.49190  0.07724  1.0000
  H   H205      1.0  0.21721  0.49156  0.27237  1.0000
  C   C123      1.0  0.31023  0.48070  0.12052  1.0000
  C   C124      1.0  0.10937  0.49183  0.32069  1.0000
  Fe  Fe21      1.0  0.27178  0.48481  0.03176  1.0000
  H   H206      1.0  0.06133  0.40582  0.25839  1.0000
  H   H207      1.0  0.21293  0.41826  0.05918  1.0000
  H   H208      1.0  0.07964  0.42130  0.30997  1.0000
  H   H209      1.0  0.23621  0.45740  0.06815  1.0000
  H   H210      1.0  0.08848  0.40676  0.26472  1.0000
  C   C125      1.0  0.07073  0.44592  0.26235  1.0000
  H   H211      1.0  0.09838  0.43266  0.29084  1.0000
  C   C126      1.0  0.26947  0.47290  0.26303  1.0000
  H   H212      1.0  0.08740  0.44540  0.25587  1.0000
  H   H213      1.0  0.04196  0.41980  0.30118  1.0000
  C   C127      1.0  0.02259  0.38877  0.21375  1.0000
  C   C128      1.0  0.07189  0.40867  0.27132  1.0000
  Fe  Fe22      1.0  0.02852  0.49187  0.27067  1.0000
  Fe  Fe23      1.0  0.33224  0.48518  0.21271  1.0000
  H   H214      1.0  0.27996  0.47092  0.11200  1.0000
  C   C129      1.0  0.08736  0.49091  0.31907  1.0000
  C   C130      1.0  0.20283  0.50089  0.27799  1.0000
  S   S47       1.0  0.28416  0.46258  0.00681  1.0000
  H   H215      1.0  0.12354  0.50048  0.26860  1.0000
  C   C131      1.0  0.12261  0.49535  0.30254  1.0000
  S   S48       1.0  0.16847  0.36275  0.00778  1.0000
  H   H216      1.0  0.31710  0.41927  0.27433  1.0000
  C   C132      1.0  0.31798  0.43658  0.27567  1.0000
  Fe  Fe24      1.0  0.17149  0.49261  0.33196  1.0000
  C   C133      1.0  0.07824  0.49339  0.29932  1.0000
  C   C134      1.0  0.11351  0.49771  0.28276  1.0000
  H   H217      1.0  0.20077  0.43148  0.00727  1.0000
  S   S49       1.0  0.15048  0.49710  0.30361  1.0000
  C   C135      1.0  0.29347  0.50011  0.26815  1.0000
  H   H218      1.0  0.20150  0.49895  0.29554  1.0000
  H   H219      1.0  0.33167  0.47514  0.26321  1.0000
  H   H220      1.0  0.33322  0.47061  0.29121  1.0000
  C   C136      1.0  0.09150  0.49670  0.28112  1.0000
  C   C137      1.0  0.20359  0.41494  0.00419  1.0000
  H   H221      1.0  0.23176  0.43863  0.53984  1.0000
  C   C138      1.0  0.15997  0.47620  0.45859  1.0000
  Fe  Fe25      1.0  0.19739  0.46499  0.63552  1.0000
  S   S50       1.0  0.18318  0.44317  0.61300  1.0000
  H   H222      1.0  0.02733  0.28436  0.48650  1.0000
  Fe  Fe26      1.0  0.21948  0.31162  0.50496  1.0000
  S   S51       1.0  0.19939  0.31294  0.53534  1.0000
  S   S52       1.0  0.23805  0.28107  0.49502  1.0000
  Fe  Fe27      1.0  0.20180  0.35629  0.48982  1.0000
  S   S53       1.0  0.17987  0.35928  0.51912  1.0000
  S   S54       1.0  0.20938  0.38670  0.47047  1.0000
  Fe  Fe28      1.0  0.20770  0.34680  0.53678  1.0000
  S   S55       1.0  0.22068  0.36173  0.56514  1.0000
  Fe  Fe29      1.0  0.17299  0.32513  0.51507  1.0000
  S   S56       1.0  0.14152  0.31029  0.52533  1.0000
  S   S57       1.0  0.22998  0.34453  0.50784  1.0000
  S   S58       1.0  0.19282  0.32302  0.48432  1.0000
  H   H223      1.0  0.17429  0.27444  0.53358  1.0000
  H   H224      1.0  0.17076  0.46316  0.46453  1.0000
  Fe  Fe30      1.0  0.19182  0.46260  0.36565  1.0000
  S   S59       1.0  0.18513  0.43037  0.38151  1.0000
  H   H225      1.0  0.04642  0.31939  0.52524  1.0000
  C   C139      1.0  0.18315  0.48234  0.42760  1.0000
  C   C140      1.0  0.18515  0.26128  0.52784  1.0000
  H   H226      1.0  0.32016  0.27539  0.46675  1.0000
  C   C141      1.0  0.20258  0.39825  0.44548  1.0000
  C   C142      1.0  0.21165  0.41720  0.43829  1.0000
  C   C143      1.0  0.20676  0.42709  0.41866  1.0000
  C   C144      1.0  0.19252  0.41825  0.40604  1.0000
  C   C145      1.0  0.18341  0.39934  0.41325  1.0000
  C   C146      1.0  0.18840  0.38937  0.43283  1.0000
  H   H227      1.0  0.22278  0.42413  0.44783  1.0000
  H   H228      1.0  0.21419  0.44139  0.41315  1.0000
  H   H229      1.0  0.17242  0.39233  0.40359  1.0000
  H   H230      1.0  0.18129  0.37483  0.43809  1.0000
  C   C147      1.0  0.12197  0.29643  0.51339  1.0000
  C   C148      1.0  0.12183  0.29442  0.49147  1.0000
  C   C149      1.0  0.10597  0.28323  0.48290  1.0000
  C   C150      1.0  0.09011  0.27378  0.49602  1.0000
  C   C151      1.0  0.09042  0.27554  0.51795  1.0000
  C   C152      1.0  0.10617  0.28689  0.52652  1.0000
  H   H231      1.0  0.13372  0.30175  0.48110  1.0000
  H   H232      1.0  0.10588  0.28202  0.46590  1.0000
  H   H233      1.0  0.10616  0.28823  0.54351  1.0000
  C   C153      1.0  0.19405  0.42051  0.60001  1.0000
  C   C154      1.0  0.21409  0.41151  0.60388  1.0000
  C   C155      1.0  0.22182  0.39332  0.59335  1.0000
  C   C156      1.0  0.20975  0.38404  0.57870  1.0000
  C   C157      1.0  0.18970  0.39303  0.57486  1.0000
  C   C158      1.0  0.18191  0.41113  0.58549  1.0000
  H   H234      1.0  0.22356  0.41846  0.61510  1.0000
  H   H235      1.0  0.23731  0.38642  0.59655  1.0000
  H   H236      1.0  0.18015  0.38601  0.56376  1.0000
  H   H237      1.0  0.16636  0.41791  0.58243  1.0000
  C   C159      1.0  0.27066  0.27196  0.52249  1.0000
  C   C160      1.0  0.26028  0.26611  0.50495  1.0000
  H   H238      1.0  0.26523  0.28609  0.53053  1.0000
  C   C161      1.0  0.04619  0.30908  0.51152  1.0000
  H   H239      1.0  0.12556  0.46448  0.65680  1.0000
  H   H240      1.0  0.03126  0.34847  0.50202  1.0000
  S   S60       1.0  0.06995  0.26084  0.48402  1.0000
  H   H241      1.0  0.17044  0.42447  0.65769  1.0000
  C   C162      1.0  0.02884  0.30084  0.48033  1.0000
  C   C163      1.0  0.28809  0.25948  0.52975  1.0000
  N   N12       1.0  0.13738  0.43271  0.66350  1.0000
  H   H242      1.0  0.20128  0.26738  0.52539  1.0000
  H   H243      1.0  0.06176  0.30987  0.50251  1.0000
  H   H244      1.0  0.19463  0.46973  0.43300  1.0000
  C   C164      1.0  0.17771  0.27012  0.49152  1.0000
  H   H245      1.0  0.27127  0.49376  0.64871  1.0000
  N   N13       1.0  0.16130  0.47798  0.43520  1.0000
  H   H246      1.0  0.20683  0.41279  0.50986  1.0000
  H   H247      1.0  0.11518  0.40837  0.66832  1.0000
  H   H248      1.0  0.24368  0.40315  0.55335  1.0000
  H   H249      1.0  0.16567  0.44444  0.43223  1.0000
  H   H250      1.0  0.10345  0.43464  0.66579  1.0000
  H   H251      1.0  0.32338  0.26632  0.49363  1.0000
  H   H252      1.0  0.04500  0.29254  0.51788  1.0000
  H   H253      1.0  0.07848  0.26826  0.52832  1.0000
  H   H254      1.0  0.15696  0.45854  0.40898  1.0000
  S   S61       1.0  0.16428  0.48637  0.36674  1.0000
  C   C165      1.0  0.15473  0.41812  0.65565  1.0000
  N   N14       1.0  0.02864  0.31538  0.49790  1.0000
  H   H255      1.0  0.21544  0.38797  0.52163  1.0000
  H   H256      1.0  0.15394  0.41564  0.63841  1.0000
  H   H257      1.0  0.13897  0.45180  0.63453  1.0000
  H   H258      1.0  0.00584  0.29825  0.51728  1.0000
  H   H259      1.0  0.00750  0.32523  0.52391  1.0000
  N   N15       1.0  0.23833  0.41165  0.52080  1.0000
  C   C166      1.0  0.24780  0.40675  0.49956  1.0000
  C   C167      1.0  0.23872  0.43452  0.52386  1.0000
  C   C168      1.0  0.25051  0.39999  0.53712  1.0000
  H   H260      1.0  0.24729  0.38964  0.49665  1.0000
  H   H261      1.0  0.26456  0.41104  0.49758  1.0000
  H   H262      1.0  0.23904  0.41533  0.48682  1.0000
  H   H263      1.0  0.25513  0.43994  0.52244  1.0000
  H   H264      1.0  0.22947  0.44375  0.51191  1.0000
  H   H265      1.0  0.26725  0.40437  0.53627  1.0000
  H   H266      1.0  0.25043  0.38264  0.53535  1.0000
  H   H267      1.0  0.18477  0.48344  0.41000  1.0000
  C   C169      1.0  0.21625  0.40530  0.52269  1.0000
  H   H268      1.0  0.20830  0.40964  0.53812  1.0000
  H   H269      1.0  0.04393  0.30105  0.47040  1.0000
  H   H270      1.0  0.04644  0.33825  0.47952  1.0000
  H   H271      1.0  0.13878  0.45449  0.43146  1.0000
  N   N16       1.0  0.17814  0.25305  0.50812  1.0000
  H   H272      1.0  0.17182  0.26476  0.47658  1.0000
  S   S62       1.0  0.21575  0.48575  0.37289  1.0000
  C   C170      1.0  0.33214  0.27128  0.47859  1.0000
  C   C171      1.0  0.13890  0.45334  0.65199  1.0000
  C   C172      1.0  0.00832  0.31444  0.51050  1.0000
  S   S63       1.0  0.22821  0.48090  0.63405  1.0000
  H   H273      1.0  0.29589  0.26424  0.54335  1.0000
  S   S64       1.0  0.17780  0.49555  0.63891  1.0000
  H   H274      1.0  0.19375  0.27601  0.48772  1.0000
  H   H275      1.0  0.01554  0.30464  0.46992  1.0000
  H   H276      1.0  0.14368  0.47296  0.46490  1.0000
  C   C173      1.0  0.15538  0.45802  0.42663  1.0000
  H   H277      1.0  0.11507  0.42194  0.64277  1.0000
  H   H278      1.0  0.16726  0.28377  0.49666  1.0000
  H   H279      1.0  0.15434  0.40245  0.66414  1.0000
  C   C174      1.0  0.11686  0.42400  0.65994  1.0000
  H   H280      1.0  0.15371  0.46079  0.65525  1.0000
  H   H281      1.0  0.01826  0.34227  0.47879  1.0000
  C   C175      1.0  0.03126  0.33708  0.48917  1.0000
  Fe  Fe31      1.0  0.22759  0.47669  0.66974  1.0000
  H   H282      1.0  0.13010  0.49274  0.43340  1.0000
  H   H283      1.0  0.14529  0.25784  0.51781  1.0000
  H   H284      1.0  0.16444  0.49103  0.46549  1.0000
  H   H285      1.0  0.18799  0.49762  0.43322  1.0000
  H   H286      1.0  0.14748  0.49728  0.41039  1.0000
  C   C176      1.0  0.14675  0.49540  0.42799  1.0000
  Fe  Fe32      1.0  0.21928  0.49228  0.33724  1.0000
  Fe  Fe33      1.0  0.01165  0.27125  0.83188  1.0000
  H   H287      1.0  0.12877  0.36546  0.98352  1.0000
  H   H288      1.0  0.01105  0.32429  0.80278  1.0000
  H   H289      1.0  0.07597  0.25601  0.83351  1.0000
  S   S65       1.0  0.25881  0.46613  0.68467  1.0000
  C   C177      1.0  0.02226  0.36842  0.80775  1.0000
  H   H290      1.0  0.29022  0.42678  0.97562  1.0000
  C   C178      1.0  0.22693  0.38582  0.99297  1.0000
  S   S66       1.0  0.25082  0.48556  0.97450  1.0000
  H   H291      1.0  0.29393  0.39674  0.93904  1.0000
  C   C179      1.0  0.30178  0.42971  0.96201  1.0000
  Fe  Fe34      1.0  0.01499  0.45551  0.76036  1.0000
  S   S67       1.0  0.18053  0.30799  0.97775  1.0000
  H   H292      1.0  0.30005  0.43560  0.90844  1.0000
  S   S68       1.0  0.05330  0.49719  0.69963  1.0000
  H   H293      1.0  0.31999  0.42154  0.92333  1.0000
  Fe  Fe35      1.0  0.14747  0.29914  0.97129  1.0000
  S   S69       1.0  0.13623  0.30485  0.93765  1.0000
  S   S70       1.0  0.00968  0.25881  0.86566  1.0000
  Fe  Fe36      1.0  0.02850  0.28623  0.87360  1.0000
  C   C180      1.0  0.29767  0.49550  0.92014  1.0000
  S   S71       1.0  0.05273  0.27530  0.89792  1.0000
  C   C181      1.0  0.22373  0.40740  0.99701  1.0000
  H   H294      1.0  0.24242  0.37973  0.98746  1.0000
  S   S72       1.0  0.03230  0.29770  0.83927  1.0000
  Fe  Fe37      1.0  0.02986  0.48856  0.72704  1.0000
  S   S73       1.0  0.03940  0.48008  0.75993  1.0000
  H   H295      1.0  0.03230  0.35459  0.81124  1.0000
  C   C182      1.0  0.02973  0.38449  0.79358  1.0000
  S   S74       1.0  0.15380  0.48788  0.70045  1.0000
  H   H296      1.0  0.04551  0.38283  0.78620  1.0000
  H   H297      1.0  0.28629  0.49738  0.88863  1.0000
  H   H298      1.0  0.15267  0.34260  0.96094  1.0000
  H   H299      1.0  0.27380  0.41014  0.92392  1.0000
  N   N17       1.0  0.29147  0.43037  0.94166  1.0000
  H   H300      1.0  0.11996  0.39627  0.93325  1.0000
  C   C183      1.0  0.28186  0.41007  0.93906  1.0000
  H   H301      1.0  0.14335  0.38762  0.97433  1.0000
  H   H302      1.0  0.16705  0.36495  0.95189  1.0000
  H   H303      1.0  0.12610  0.44632  0.69283  1.0000
  C   C184      1.0  0.11595  0.49912  0.68188  1.0000
  H   H304      1.0  0.26202  0.44445  0.95400  1.0000
  C   C185      1.0  0.12996  0.37800  0.97072  1.0000
  C   C186      1.0  0.11212  0.29754  0.92758  1.0000
  C   C187      1.0  0.09967  0.28231  0.93794  1.0000
  C   C188      1.0  0.08141  0.27605  0.92876  1.0000
  C   C189      1.0  0.07498  0.28525  0.90939  1.0000
  C   C190      1.0  0.08715  0.30086  0.89925  1.0000
  C   C191      1.0  0.10571  0.30678  0.90820  1.0000
  H   H305      1.0  0.10435  0.27499  0.95280  1.0000
  H   H306      1.0  0.08257  0.30799  0.88428  1.0000
  H   H307      1.0  0.11526  0.31845  0.89991  1.0000
  C   C192      1.0  0.27482  0.44749  0.94162  1.0000
  C   C193      1.0  0.30733  0.43431  0.92404  1.0000
  C   C194      1.0  0.21028  0.37193  0.99611  1.0000
  H   H308      1.0  0.02863  0.31674  0.78090  1.0000
  C   C195      1.0  0.11341  0.48354  0.71740  1.0000
  C   C196      1.0  0.09119  0.48509  0.71749  1.0000
  Fe  Fe38      1.0  0.25052  0.45877  0.99914  1.0000
  S   S75       1.0  0.32174  0.49070  0.85931  1.0000
  H   H309      1.0  0.12097  0.47670  0.73114  1.0000
  C   C197      1.0  0.01706  0.40280  0.78900  1.0000
  H   H310      1.0  0.13736  0.37962  0.91705  1.0000
  C   C198      1.0  0.27162  0.47488  0.70688  1.0000
  H   H311      1.0  0.15418  0.44237  0.68965  1.0000
  H   H312      1.0  0.21305  0.35539  0.99298  1.0000
  C   C199      1.0  0.33532  0.48886  0.92189  1.0000
  C   C200      1.0  0.30247  0.47216  0.72878  1.0000
  C   C201      1.0  0.29129  0.46526  0.71192  1.0000
  H   H313      1.0  0.29796  0.45232  0.70273  1.0000
  H   H314      1.0  0.31752  0.46455  0.73241  1.0000
  C   C202      1.0  0.26328  0.49160  0.71898  1.0000
  H   H315      1.0  0.11520  0.38819  0.97194  1.0000
  C   C203      1.0  0.27457  0.49866  0.73565  1.0000
  S   S76       1.0  0.31307  0.49140  0.96053  1.0000
  H   H316      1.0  0.28132  0.46279  0.94493  1.0000
  C   C204      1.0  0.31528  0.49228  0.93233  1.0000
  H   H317      1.0  0.01243  0.29762  0.79463  1.0000
  H   H318      1.0  0.28220  0.49850  0.92784  1.0000
  S   S77       1.0  0.02721  0.42221  0.77055  1.0000
  C   C205      1.0  0.08121  0.49401  0.69990  1.0000
  H   H319      1.0  0.14804  0.39621  0.93558  1.0000
  H   H320      1.0  0.31511  0.44933  0.92587  1.0000
  Fe  Fe39      1.0  0.17993  0.48894  0.67398  1.0000
  C   C206      1.0  0.32004  0.49126  0.88744  1.0000
  H   H321      1.0  0.15628  0.34835  0.93319  1.0000
  H   H322      1.0  0.31455  0.41707  0.96263  1.0000
  H   H323      1.0  0.01384  0.30788  0.74702  1.0000
  H   H324      1.0  0.08179  0.47932  0.73112  1.0000
  S   S78       1.0  0.14892  0.27025  0.99329  1.0000
  C   C207      1.0  0.12592  0.49045  0.69959  1.0000
  H   H325      1.0  0.30901  0.44492  0.96456  1.0000
  C   C208      1.0  0.29421  0.48900  0.74076  1.0000
  Fe  Fe40      1.0  0.28379  0.49041  0.98358  1.0000
  N   N18       1.0  0.13335  0.36889  0.94962  1.0000
  C   C209      1.0  0.11552  0.35580  0.94580  1.0000
  C   C210      1.0  0.13474  0.38603  0.93314  1.0000
  C   C211      1.0  0.15325  0.35571  0.94880  1.0000
  S   S79       1.0  0.02331  0.25244  0.80258  1.0000
  H   H326      1.0  0.11411  0.34255  0.95782  1.0000
  H   H327      1.0  0.11765  0.34853  0.93007  1.0000
  H   H328      1.0  0.10020  0.36514  0.94633  1.0000
  H   H329      1.0  0.26981  0.40674  0.95219  1.0000
  H   H330      1.0  0.01271  0.34527  0.75898  1.0000
  H   H331      1.0  0.26748  0.44942  0.92609  1.0000
  C   C212      1.0  0.09371  0.50094  0.68209  1.0000
  H   H332      1.0  0.05544  0.26054  0.85367  1.0000
  C   C213      1.0  0.30006  0.49492  0.89787  1.0000
  C   C214      1.0  0.01273  0.31436  0.78872  1.0000
  S   S80       1.0  0.30776  0.49910  0.76181  1.0000
  H   H333      1.0  0.08219  0.25860  0.86073  1.0000
  H   H334      1.0  0.13815  0.42022  0.69565  1.0000
  H   H335      1.0  0.24808  0.49905  0.71563  1.0000
  Fe  Fe41      1.0  0.18068  0.28060  0.00191  1.0000
  H   H336      1.0  0.07221  0.26392  0.93674  1.0000
  S   S81       1.0  0.24561  0.42393  0.99330  1.0000
  C   C215      1.0  0.13902  0.43545  0.68641  1.0000
  S   S82       1.0  0.00653  0.46302  0.72652  1.0000
  S   S83       1.0  0.13191  0.31981  0.99605  1.0000
  C   C216      1.0  0.19016  0.37944  0.00339  1.0000
  S   S84       1.0  0.19836  0.45789  0.67058  1.0000
  Fe  Fe42      1.0  0.16485  0.32739  0.00362  1.0000
  C   C217      1.0  0.07089  0.25204  0.85028  1.0000
  S   S85       1.0  0.14424  0.65364  0.01343  1.0000
  N   N19       1.0  0.06537  0.61637  0.15788  1.0000
  H   H337      1.0  0.07037  0.61819  0.19108  1.0000
  H   H338      1.0  0.09331  0.59742  0.16491  1.0000
  H   H339      1.0  0.05277  0.61597  0.12710  1.0000
  Fe  Fe43      1.0  0.02630  0.67575  0.13587  1.0000
  S   S86       1.0  0.05071  0.66162  0.11179  1.0000
  H   H340      1.0  0.08580  0.59658  0.13804  1.0000
  S   S87       1.0  0.03059  0.67771  0.17083  1.0000
  H   H341      1.0  0.28718  0.51712  0.29685  1.0000
  S   S88       1.0  0.18183  0.68413  0.02346  1.0000
  H   H342      1.0  0.19363  0.51820  0.24013  1.0000
  H   H343      1.0  0.24617  0.68927  0.02196  1.0000
  Fe  Fe44      1.0  0.14639  0.68458  0.02888  1.0000
  S   S89       1.0  0.13131  0.69752  0.05965  1.0000
  S   S90       1.0  0.01665  0.53349  0.19992  1.0000
  S   S91       1.0  0.00677  0.70622  0.13434  1.0000
  C   C218      1.0  0.05737  0.61691  0.18029  1.0000
  C   C219      1.0  0.22181  0.53245  0.28063  1.0000
  H   H344      1.0  0.00596  0.72234  0.22779  1.0000
  S   S92       1.0  0.01119  0.73970  0.18366  1.0000
  C   C220      1.0  0.18396  0.53483  0.27806  1.0000
  C   C221      1.0  0.07237  0.67266  0.09690  1.0000
  C   C222      1.0  0.08047  0.69177  0.10178  1.0000
  C   C223      1.0  0.09845  0.69922  0.09016  1.0000
  C   C224      1.0  0.10832  0.68783  0.07339  1.0000
  C   C225      1.0  0.10003  0.66888  0.06837  1.0000
  C   C226      1.0  0.08228  0.66128  0.08018  1.0000
  H   H345      1.0  0.07309  0.70065  0.11466  1.0000
  H   H346      1.0  0.10476  0.71386  0.09425  1.0000
  H   H347      1.0  0.10745  0.65993  0.05555  1.0000
  H   H348      1.0  0.07617  0.64648  0.07627  1.0000
  H   H349      1.0  0.20761  0.54184  0.24202  1.0000
  H   H350      1.0  0.18412  0.55187  0.27331  1.0000
  Fe  Fe45      1.0  0.00839  0.70678  0.17004  1.0000
  S   S93       1.0  0.00487  0.51812  0.26174  1.0000
  N   N20       1.0  0.20386  0.52334  0.27112  1.0000
  H   H351      1.0  0.03621  0.62952  0.14643  1.0000
  C   C227      1.0  0.07711  0.63545  0.15213  1.0000
  C   C228      1.0  0.01230  0.56130  0.20060  1.0000
  H   H352      1.0  0.18111  0.53357  0.29558  1.0000
  H   H353      1.0  0.17005  0.52825  0.27129  1.0000
  H   H354      1.0  0.04902  0.60242  0.18534  1.0000
  H   H355      1.0  0.22031  0.53108  0.29826  1.0000
  H   H356      1.0  0.04592  0.63057  0.18299  1.0000
  C   C229      1.0  0.07956  0.59743  0.15483  1.0000
  H   H357      1.0  0.03846  0.60124  0.14771  1.0000
  H   H358      1.0  0.07116  0.58274  0.15899  1.0000
  H   H359      1.0  0.21066  0.73152  0.02437  1.0000
  H   H360      1.0  0.22770  0.67098  0.01429  1.0000
  H   H361      1.0  0.12870  0.73626  0.03075  1.0000
  H   H362      1.0  0.06683  0.65004  0.15414  1.0000
  C   C230      1.0  0.04742  0.61566  0.14420  1.0000
  H   H363      1.0  0.01497  0.56309  0.23416  1.0000
  C   C231      1.0  0.28218  0.50467  0.28749  1.0000
  C   C232      1.0  0.20683  0.52510  0.24779  1.0000
  H   H364      1.0  0.00418  0.73958  0.26241  1.0000
  C   C233      1.0  0.00973  0.75117  0.20919  1.0000
  Fe  Fe46      1.0  0.01317  0.50975  0.22808  1.0000
  H   H365      1.0  0.22179  0.51662  0.24210  1.0000
  C   C234      1.0  0.00709  0.73923  0.22820  1.0000
  C   C235      1.0  0.00608  0.74910  0.24789  1.0000
  H   H366      1.0  0.30696  0.50904  0.26282  1.0000
  H   H367      1.0  0.15971  0.73525  0.06510  1.0000
  H   H368      1.0  0.09084  0.63657  0.16203  1.0000
  H   H369      1.0  0.00919  0.56506  0.16690  1.0000
  H   H370      1.0  0.23708  0.52417  0.27567  1.0000
  H   H371      1.0  0.08312  0.63571  0.13520  1.0000
  H   H372      1.0  0.22302  0.54943  0.27601  1.0000
  H   H373      1.0  0.15974  0.74621  0.00717  1.0000
  C   C236      1.0  0.00905  0.57310  0.18162  1.0000
  C   C237      1.0  0.16565  0.73925  0.04856  1.0000
  C   C238      1.0  0.13041  0.75077  0.03953  1.0000
  C   C239      1.0  0.00526  0.59518  0.18157  1.0000
  H   H374      1.0  0.16527  0.72464  0.03963  1.0000
  C   C240      1.0  0.01203  0.57188  0.21951  1.0000
  C   C241      1.0  0.21875  0.74306  0.01433  1.0000
  H   H375      1.0  0.18243  0.74332  0.04897  1.0000
  S   S94       1.0  0.27397  0.51343  0.00929  1.0000
  H   H376      1.0  0.00814  0.60196  0.23419  1.0000
  C   C242      1.0  0.00827  0.59394  0.21946  1.0000
  H   H377      1.0  0.22377  0.69862  0.00765  1.0000
  H   H378      1.0  0.12417  0.74730  0.05608  1.0000
  C   C243      1.0  0.00492  0.60574  0.20051  1.0000
  C   C244      1.0  0.23596  0.68552  0.00910  1.0000
  H   H379      1.0  0.00236  0.60400  0.16693  1.0000
  Fe  Fe47      1.0  0.17914  0.65496  0.00497  1.0000
  S   S95       1.0  0.20730  0.63099  0.00463  1.0000
  H   H380      1.0  0.17459  0.60002  0.00403  1.0000
  H   H381      1.0  0.27480  0.66726  0.00373  1.0000
  Fe  Fe48      1.0  0.22190  0.65752  0.50350  1.0000
  S   S96       1.0  0.19218  0.65706  0.52490  1.0000
  S   S97       1.0  0.24376  0.68564  0.50185  1.0000
  Fe  Fe49      1.0  0.20655  0.62218  0.47660  1.0000
  S   S98       1.0  0.17557  0.62014  0.49561  1.0000
  S   S99       1.0  0.21929  0.60458  0.44724  1.0000
  Fe  Fe50      1.0  0.17424  0.65556  0.49562  1.0000
  S   S100      1.0  0.14735  0.68050  0.49131  1.0000
  Fe  Fe51      1.0  0.19527  0.62155  0.52407  1.0000
  S   S101      1.0  0.18194  0.60099  0.55177  1.0000
  S   S102      1.0  0.20364  0.65763  0.47412  1.0000
  S   S103      1.0  0.22656  0.62179  0.50500  1.0000
  S   S104      1.0  0.22295  0.53985  0.62272  1.0000
  H   H382      1.0  0.28903  0.50700  0.63011  1.0000
  S   S105      1.0  0.17780  0.53110  0.40015  1.0000
  H   H383      1.0  0.06001  0.67265  0.46850  1.0000
  Fe  Fe52      1.0  0.02533  0.71239  0.51028  1.0000
  S   S106      1.0  0.04803  0.68353  0.51366  1.0000
  H   H384      1.0  0.26191  0.68696  0.43320  1.0000
  C   C245      1.0  0.26150  0.67909  0.44924  1.0000
  N   N21       1.0  0.26943  0.65682  0.44856  1.0000
  H   H385      1.0  0.07213  0.71662  0.41672  1.0000
  H   H386      1.0  0.05925  0.72948  0.45179  1.0000
  H   H387      1.0  0.29787  0.63917  0.43877  1.0000
  C   C246      1.0  0.26803  0.69757  0.50623  1.0000
  C   C247      1.0  0.27046  0.71886  0.49977  1.0000
  C   C248      1.0  0.28936  0.72894  0.50271  1.0000
  C   C249      1.0  0.30624  0.71786  0.51215  1.0000
  C   C250      1.0  0.30385  0.69651  0.51844  1.0000
  C   C251      1.0  0.28495  0.68644  0.51552  1.0000
  H   H388      1.0  0.25756  0.72771  0.49257  1.0000
  H   H389      1.0  0.26928  0.55136  0.63644  1.0000
  H   H390      1.0  0.31671  0.68772  0.52578  1.0000
  H   H391      1.0  0.28346  0.67013  0.52068  1.0000
  C   C252      1.0  0.19420  0.58316  0.57029  1.0000
  C   C253      1.0  0.18161  0.56891  0.58232  1.0000
  C   C254      1.0  0.19028  0.55514  0.59797  1.0000
  C   C255      1.0  0.21160  0.55575  0.60209  1.0000
  C   C256      1.0  0.22421  0.56998  0.59006  1.0000
  C   C257      1.0  0.21563  0.58349  0.57411  1.0000
  H   H392      1.0  0.16501  0.56854  0.57955  1.0000
  H   H393      1.0  0.18036  0.54436  0.60714  1.0000
  H   H394      1.0  0.24071  0.57065  0.59315  1.0000
  H   H395      1.0  0.22548  0.59444  0.56510  1.0000
  C   C258      1.0  0.20762  0.58392  0.43457  1.0000
  C   C259      1.0  0.21863  0.57448  0.41715  1.0000
  C   C260      1.0  0.20990  0.55825  0.40647  1.0000
  C   C261      1.0  0.18993  0.55131  0.41304  1.0000
  C   C262      1.0  0.17895  0.56070  0.43050  1.0000
  C   C263      1.0  0.18771  0.57685  0.44123  1.0000
  H   H396      1.0  0.23403  0.57978  0.41183  1.0000
  H   H397      1.0  0.21858  0.55125  0.39310  1.0000
  H   H398      1.0  0.16347  0.55556  0.43572  1.0000
  H   H399      1.0  0.17901  0.58392  0.45455  1.0000
  C   C264      1.0  0.11996  0.68074  0.49856  1.0000
  C   C265      1.0  0.10865  0.70027  0.50018  1.0000
  C   C266      1.0  0.08676  0.70139  0.50537  1.0000
  C   C267      1.0  0.07584  0.68292  0.50868  1.0000
  C   C268      1.0  0.08717  0.66335  0.50726  1.0000
  C   C269      1.0  0.10911  0.66224  0.50213  1.0000
  H   H400      1.0  0.11694  0.71467  0.49747  1.0000
  H   H401      1.0  0.07833  0.71655  0.50668  1.0000
  H   H402      1.0  0.07884  0.64896  0.50970  1.0000
  H   H403      1.0  0.11756  0.64712  0.50042  1.0000
  N   N22       1.0  0.13501  0.64693  0.56243  1.0000
  C   C270      1.0  0.11609  0.64446  0.57691  1.0000
  C   C271      1.0  0.13535  0.63129  0.54583  1.0000
  C   C272      1.0  0.15417  0.64349  0.57454  1.0000
  C   C273      1.0  0.13440  0.66842  0.55246  1.0000
  H   H404      1.0  0.10133  0.64691  0.56827  1.0000
  H   H405      1.0  0.11532  0.65601  0.58966  1.0000
  H   H406      1.0  0.11609  0.62836  0.58462  1.0000
  H   H407      1.0  0.14917  0.63304  0.53434  1.0000
  H   H408      1.0  0.13659  0.61486  0.55269  1.0000
  H   H409      1.0  0.12088  0.63297  0.53676  1.0000
  H   H410      1.0  0.15456  0.65497  0.58723  1.0000
  H   H411      1.0  0.16877  0.64504  0.56409  1.0000
  H   H412      1.0  0.15525  0.62731  0.58207  1.0000
  H   H413      1.0  0.13505  0.68065  0.56439  1.0000
  H   H414      1.0  0.11974  0.67182  0.54391  1.0000
  H   H415      1.0  0.14794  0.67055  0.54065  1.0000
  H   H416      1.0  0.27872  0.65570  0.48075  1.0000
  C   C274      1.0  0.26884  0.64726  0.47027  1.0000
  H   H417      1.0  0.23920  0.64588  0.44178  1.0000
  H   H418      1.0  0.09381  0.70216  0.42862  1.0000
  S   S107      1.0  0.33059  0.72965  0.51651  1.0000
  H   H419      1.0  0.27440  0.63037  0.47047  1.0000
  H   H420      1.0  0.27100  0.68824  0.45949  1.0000
  H   H421      1.0  0.06996  0.66339  0.44326  1.0000
  H   H422      1.0  0.30192  0.66443  0.44910  1.0000
  H   H423      1.0  0.08674  0.67701  0.45935  1.0000
  H   H424      1.0  0.24489  0.68043  0.45598  1.0000
  H   H425      1.0  0.29082  0.74532  0.49777  1.0000
  H   H426      1.0  0.25252  0.64807  0.47760  1.0000
  Fe  Fe53      1.0  0.20882  0.51097  0.63984  1.0000
  H   H427      1.0  0.08112  0.71529  0.46344  1.0000
  H   H428      1.0  0.26133  0.51449  0.63127  1.0000
  C   C275      1.0  0.04120  0.69592  0.43810  1.0000
  H   H429      1.0  0.07638  0.68881  0.41305  1.0000
  H   H430      1.0  0.05460  0.71096  0.47358  1.0000
  H   H431      1.0  0.03519  0.71122  0.43086  1.0000
  H   H432      1.0  0.26103  0.62813  0.43502  1.0000
  C   C276      1.0  0.29141  0.65577  0.43944  1.0000
  H   H433      1.0  0.29705  0.54414  0.63531  1.0000
  C   C277      1.0  0.25595  0.64516  0.43541  1.0000
  H   H434      1.0  0.29249  0.66288  0.42305  1.0000
  C   C278      1.0  0.07701  0.70131  0.42471  1.0000
  H   H435      1.0  0.25617  0.65167  0.41881  1.0000
  H   H436      1.0  0.03052  0.69230  0.45225  1.0000
  C   C279      1.0  0.06464  0.71393  0.45884  1.0000
  N   N23       1.0  0.06329  0.69692  0.44393  1.0000
  C   C280      1.0  0.07032  0.67659  0.45415  1.0000
  Fe  Fe54      1.0  0.18848  0.50994  0.37261  1.0000
  H   H437      1.0  0.15093  0.51077  0.43397  1.0000
  H   H438      1.0  0.03958  0.68350  0.42656  1.0000
  H   H439      1.0  0.24514  0.53377  0.66207  1.0000
  C   C281      1.0  0.27483  0.50939  0.64105  1.0000
  C   C282      1.0  0.28263  0.54545  0.64615  1.0000
  H   H440      1.0  0.00499  0.74670  0.66644  1.0000
  H   H441      1.0  0.31093  0.51560  0.65971  1.0000
  N   N24       1.0  0.27812  0.52499  0.65699  1.0000
  S   S108      1.0  0.03467  0.74514  0.50116  1.0000
  Fe  Fe55      1.0  0.00945  0.74551  0.47761  1.0000
  H   H442      1.0  0.12536  0.50469  0.66815  1.0000
  H   H443      1.0  0.28501  0.55764  0.65772  1.0000
  H   H444      1.0  0.08613  0.50788  0.66841  1.0000
  C   C283      1.0  0.29601  0.51749  0.66972  1.0000
  S   S109      1.0  0.19350  0.51818  0.33777  1.0000
  H   H445      1.0  0.22512  0.66414  0.97625  1.0000
  Fe  Fe56      1.0  0.13992  0.67360  0.98329  1.0000
  S   S110      1.0  0.11270  0.66226  0.96526  1.0000
  S   S111      1.0  0.17479  0.67308  0.97411  1.0000
  Fe  Fe57      1.0  0.04130  0.67436  0.86177  1.0000
  H   H446      1.0  0.15243  0.64685  0.94298  1.0000
  S   S112      1.0  0.07296  0.68117  0.87521  1.0000
  Fe  Fe58      1.0  0.01993  0.64816  0.82992  1.0000
  S   S113      1.0  0.02176  0.62463  0.80309  1.0000
  H   H447      1.0  0.01599  0.70938  0.69675  1.0000
  Fe  Fe59      1.0  0.24082  0.50701  0.00136  1.0000
  S   S114      1.0  0.03970  0.67678  0.82599  1.0000
  Fe  Fe60      1.0  0.17604  0.70223  0.99315  1.0000
  H   H448      1.0  0.09424  0.51667  0.78126  1.0000
  C   C284      1.0  0.19148  0.56958  0.00178  1.0000
  H   H449      1.0  0.04044  0.71884  0.70436  1.0000
  Fe  Fe61      1.0  0.01294  0.50283  0.77065  1.0000
  C   C285      1.0  0.01905  0.59693  0.80227  1.0000
  H   H450      1.0  0.13141  0.59569  0.93121  1.0000
  H   H451      1.0  0.26921  0.70060  0.96776  1.0000
  C   C286      1.0  0.22792  0.59184  0.00303  1.0000
  N   N25       1.0  0.24833  0.68274  0.98881  1.0000
  H   H452      1.0  0.24480  0.56136  0.00136  1.0000
  C   C287      1.0  0.25950  0.70215  0.98289  1.0000
  C   C288      1.0  0.32480  0.54817  0.85941  1.0000
  C   C289      1.0  0.10147  0.66874  0.94049  1.0000
  C   C290      1.0  0.11136  0.68150  0.92472  1.0000
  C   C291      1.0  0.10233  0.68518  0.90495  1.0000
  C   C292      1.0  0.08321  0.67638  0.90071  1.0000
  C   C293      1.0  0.07328  0.66372  0.91655  1.0000
  C   C294      1.0  0.08243  0.65983  0.93622  1.0000
  H   H453      1.0  0.12602  0.68843  0.92765  1.0000
  H   H454      1.0  0.11018  0.69498  0.89282  1.0000
  H   H455      1.0  0.05865  0.65675  0.91354  1.0000
  H   H456      1.0  0.07465  0.64985  0.94823  1.0000
  H   H457      1.0  0.01539  0.55947  0.76546  1.0000
  H   H458      1.0  0.32181  0.53761  0.84646  1.0000
  H   H459      1.0  0.06642  0.51246  0.78351  1.0000
  C   C295      1.0  0.05658  0.53378  0.74775  1.0000
  H   H460      1.0  0.06839  0.56842  0.76498  1.0000
  S   S115      1.0  0.14059  0.70447  0.99930  1.0000
  N   N26       1.0  0.07580  0.53559  0.75942  1.0000
  H   H461      1.0  0.03383  0.72135  0.67712  1.0000
  H   H462      1.0  0.13212  0.63451  0.93054  1.0000
  H   H463      1.0  0.15867  0.63306  0.91904  1.0000
  C   C296      1.0  0.07997  0.51585  0.77204  1.0000
  C   C297      1.0  0.23395  0.67858  0.97216  1.0000
  H   H464      1.0  0.08258  0.50211  0.76173  1.0000
  H   H465      1.0  0.27341  0.66206  0.97617  1.0000
  H   H466      1.0  0.25459  0.51228  0.67889  1.0000
  S   S116      1.0  0.20928  0.50722  0.67551  1.0000
  N   N27       1.0  0.15341  0.61304  0.94705  1.0000
  C   C298      1.0  0.14022  0.61340  0.96711  1.0000
  C   C299      1.0  0.17596  0.61129  0.95179  1.0000
  C   C300      1.0  0.14905  0.63268  0.93431  1.0000
  H   H467      1.0  0.12308  0.61508  0.96417  1.0000
  H   H468      1.0  0.14364  0.62700  0.97656  1.0000
  H   H469      1.0  0.14300  0.59881  0.97714  1.0000
  H   H470      1.0  0.18011  0.62433  0.96172  1.0000
  H   H471      1.0  0.17996  0.59623  0.96066  1.0000
  H   H472      1.0  0.25568  0.64985  0.99566  1.0000
  C   C301      1.0  0.22948  0.56969  0.00184  1.0000
  H   H473      1.0  0.04269  0.53070  0.75877  1.0000
  C   C302      1.0  0.09390  0.53929  0.74414  1.0000
  C   C303      1.0  0.07263  0.55337  0.77375  1.0000
  C   C304      1.0  0.02718  0.72220  0.69376  1.0000
  H   H474      1.0  0.05964  0.55057  0.78602  1.0000
  C   C305      1.0  0.01737  0.56167  0.81884  1.0000
  S   S117      1.0  0.02355  0.64437  0.86520  1.0000
  C   C306      1.0  0.00819  0.74358  0.71989  1.0000
  C   C307      1.0  0.14834  0.59477  0.93502  1.0000
  H   H475      1.0  0.31471  0.56284  0.85717  1.0000
  C   C308      1.0  0.01788  0.58793  0.78245  1.0000
  H   H476      1.0  0.18644  0.61179  0.93707  1.0000
  S   S118      1.0  0.01583  0.52476  0.79797  1.0000
  H   H477      1.0  0.26793  0.51162  0.74483  1.0000
  H   H478      1.0  0.05273  0.54842  0.73815  1.0000
  H   H479      1.0  0.15801  0.59399  0.91979  1.0000
  H   H480      1.0  0.24816  0.71596  0.98072  1.0000
  C   C309      1.0  0.01860  0.58364  0.82049  1.0000
  H   H481      1.0  0.09131  0.55417  0.73450  1.0000
  S   S119      1.0  0.19661  0.72941  0.98095  1.0000
  Fe  Fe62      1.0  0.00970  0.69660  0.83170  1.0000
  C   C310      1.0  0.26378  0.66469  0.99118  1.0000
  H   H482      1.0  0.15135  0.57966  0.94420  1.0000
  C   C311      1.0  0.21487  0.74514  0.99279  1.0000
  H   H483      1.0  0.24271  0.67634  0.95661  1.0000
  H   H484      1.0  0.02098  0.74045  0.73107  1.0000
  C   C312      1.0  0.01635  0.56600  0.78082  1.0000
  C   C313      1.0  0.01635  0.55269  0.79903  1.0000
  C   C314      1.0  0.02840  0.74121  0.78642  1.0000
  N   N28       1.0  0.01665  0.74307  0.69764  1.0000
  S   S120      1.0  0.00491  0.51301  0.73766  1.0000
  H   H485      1.0  0.03868  0.72944  0.79399  1.0000
  H   H486      1.0  0.26089  0.53867  0.68379  1.0000
  H   H487      1.0  0.22205  0.69189  0.96998  1.0000
  H   H488      1.0  0.09647  0.52629  0.73289  1.0000
  H   H489      1.0  0.08708  0.55572  0.78226  1.0000
  H   H490      1.0  0.01956  0.59028  0.83583  1.0000
  H   H491      1.0  0.05848  0.52061  0.73668  1.0000
  H   H492      1.0  0.10881  0.54036  0.75231  1.0000
  H   H493      1.0  0.01743  0.55157  0.83306  1.0000
  H   H494      1.0  0.31922  0.53997  0.87449  1.0000
  H   H495      1.0  0.27015  0.70610  0.99531  1.0000
  C   C315      1.0  0.00683  0.74245  0.79255  1.0000
  S   S121      1.0  0.21232  0.53052  0.99886  1.0000
  S   S122      1.0  0.01235  0.69613  0.86726  1.0000
  H   H496      1.0  0.01816  0.59806  0.76826  1.0000
  H   H497      1.0  0.29859  0.52854  0.68235  1.0000
  C   C316      1.0  0.21126  0.55840  0.00112  1.0000
  C   C317      1.0  0.18990  0.59172  0.00322  1.0000
  H   H498      1.0  0.17728  0.56099  0.00139  1.0000
  H   H499      1.0  0.29306  0.50188  0.67776  1.0000
  C   C318      1.0  0.20816  0.60300  0.00368  1.0000
  H   H500      1.0  0.24216  0.60034  0.00348  1.0000
  C   C319      1.0  0.25884  0.52758  0.67107  1.0000
  H   H501      1.0  0.05771  0.82910  0.26466  1.0000
  S   S123      1.0  0.29156  0.97597  0.14618  1.0000
  C   C320      1.0  0.10209  0.88330  0.30531  1.0000
  Fe  Fe63      1.0  0.30211  0.98352  0.17830  1.0000
  C   C321      1.0  0.30117  0.91237  0.07491  1.0000
  S   S124      1.0  0.01134  0.86149  0.32805  1.0000
  Fe  Fe64      1.0  0.30795  0.85142  0.02665  1.0000
  H   H502      1.0  0.01103  0.79994  0.23041  1.0000
  H   H503      1.0  0.04949  0.89648  0.30731  1.0000
  S   S125      1.0  0.31224  0.81637  0.03384  1.0000
  H   H504      1.0  0.13051  0.90739  0.24330  1.0000
  S   S126      1.0  0.16932  0.95184  0.31539  1.0000
  H   H505      1.0  0.28971  0.92054  0.06514  1.0000
  Fe  Fe65      1.0  0.13547  0.96409  0.31501  1.0000
  S   S127      1.0  0.10467  0.94713  0.31212  1.0000
  Fe  Fe66      1.0  0.17701  0.97780  0.29095  1.0000
  H   H506      1.0  0.15316  0.91609  0.22752  1.0000
  H   H507      1.0  0.11717  0.95885  0.26743  1.0000
  S   S128      1.0  0.02911  0.81365  0.31845  1.0000
  Fe  Fe67      1.0  0.03637  0.84658  0.30629  1.0000
  S   S129      1.0  0.07101  0.85498  0.30147  1.0000
  S   S130      1.0  0.26164  0.78742  0.02242  1.0000
  H   H508      1.0  0.12703  0.92530  0.22084  1.0000
  C   C322      1.0  0.09598  0.92109  0.31000  1.0000
  C   C323      1.0  0.10994  0.90339  0.30786  1.0000
  H   H509      1.0  0.23585  0.75442  0.03970  1.0000
  C   C324      1.0  0.08023  0.88055  0.30518  1.0000
  C   C325      1.0  0.06632  0.89823  0.30748  1.0000
  C   C326      1.0  0.07416  0.91831  0.30973  1.0000
  C   C327      1.0  0.25199  0.99260  0.24253  1.0000
  C   C328      1.0  0.05578  0.81507  0.25515  1.0000
  H   H510      1.0  0.16837  0.92845  0.25967  1.0000
  H   H511      1.0  0.06982  0.80500  0.29354  1.0000
  H   H512      1.0  0.31754  0.89572  0.00609  1.0000
  C   C329      1.0  0.06779  0.79150  0.28332  1.0000
  H   H513      1.0  0.15312  0.94627  0.27607  1.0000
  C   C330      1.0  0.22376  0.96720  0.22518  1.0000
  H   H514      1.0  0.10608  0.95030  0.24409  1.0000
  S   S131      1.0  0.14273  0.98881  0.28939  1.0000
  H   H515      1.0  0.09582  0.80980  0.23955  1.0000
  C   C331      1.0  0.21836  0.97550  0.24522  1.0000
  S   S132      1.0  0.33079  0.96096  0.17563  1.0000
  H   H516      1.0  0.06320  0.93184  0.31129  1.0000
  H   H517      1.0  0.07950  0.76611  0.25121  1.0000
  H   H518      1.0  0.24704  0.96476  0.19872  1.0000
  C   C332      1.0  0.32152  0.91142  0.10638  1.0000
  S   S133      1.0  0.01535  0.84604  0.27894  1.0000
  H   H519      1.0  0.21296  0.95723  0.21835  1.0000
  C   C333      1.0  0.30959  0.89226  0.06938  1.0000
  H   H520      1.0  0.29679  0.92231  0.02581  1.0000
  C   C334      1.0  0.30716  0.92194  0.09317  1.0000
  H   H521      1.0  0.14565  0.91964  0.27554  1.0000
  H   H522      1.0  0.07912  0.77848  0.28812  1.0000
  C   C335      1.0  0.23264  0.98832  0.25376  1.0000
  Fe  Fe68      1.0  0.00672  0.81381  0.29193  1.0000
  N   N29       1.0  0.13830  0.93919  0.24803  1.0000
  C   C336      1.0  0.14726  0.95717  0.23559  1.0000
  C   C337      1.0  0.11687  0.94541  0.25679  1.0000
  C   C338      1.0  0.15194  0.93298  0.26556  1.0000
  C   C339      1.0  0.13719  0.92118  0.23427  1.0000
  H   H523      1.0  0.16360  0.95314  0.22908  1.0000
  H   H524      1.0  0.14842  0.97098  0.24561  1.0000
  H   H525      1.0  0.13748  0.96236  0.22217  1.0000
  H   H526      1.0  0.10970  0.93228  0.26644  1.0000
  H   H527      1.0  0.05157  0.78593  0.28696  1.0000
  H   H528      1.0  0.22884  0.99484  0.26911  1.0000
  N   N30       1.0  0.07112  0.79770  0.26064  1.0000
  Fe  Fe69      1.0  0.28662  0.81151  0.01144  1.0000
  C   C340      1.0  0.24314  0.97146  0.21395  1.0000
  S   S134      1.0  0.28222  0.99037  0.20925  1.0000
  S   S135      1.0  0.19362  0.96935  0.25864  1.0000
  H   H529      1.0  0.12673  0.90515  0.30830  1.0000
  H   H530      1.0  0.15090  0.77337  0.00859  1.0000
  H   H531      1.0  0.14862  0.77346  0.06759  1.0000
  C   C341      1.0  0.00998  0.78306  0.23000  1.0000
  H   H532      1.0  0.14457  0.78934  0.04380  1.0000
  C   C342      1.0  0.09277  0.80491  0.25651  1.0000
  S   S136      1.0  0.30121  0.88119  0.04604  1.0000
  H   H533      1.0  0.09538  0.81874  0.26613  1.0000
  C   C343      1.0  0.25749  0.98414  0.22261  1.0000
  N   N31       1.0  0.15267  0.75662  0.03883  1.0000
  H   H534      1.0  0.12004  0.76348  0.03242  1.0000
  H   H535      1.0  0.01315  0.78266  0.19579  1.0000
  H   H536      1.0  0.06986  0.78366  0.23044  1.0000
  Fe  Fe70      1.0  0.32168  0.95566  0.14229  1.0000
  C   C344      1.0  0.01115  0.77316  0.21031  1.0000
  H   H537      1.0  0.30039  0.93731  0.09723  1.0000
  H   H538      1.0  0.03927  0.81021  0.25820  1.0000
  C   C345      1.0  0.32413  0.88182  0.08246  1.0000
  H   H539      1.0  0.17085  0.78075  0.05039  1.0000
  C   C346      1.0  0.06804  0.77945  0.24769  1.0000
  H   H540      1.0  0.27799  0.89418  0.01052  1.0000
  H   H541      1.0  0.10482  0.79228  0.26061  1.0000
  H   H542      1.0  0.17716  0.76504  0.01542  1.0000
  H   H543      1.0  0.05190  0.77353  0.25086  1.0000
  H   H544      1.0  0.30873  0.94224  0.00893  1.0000
  C   C347      1.0  0.15423  0.77591  0.05069  1.0000
  H   H545      1.0  0.11304  0.86977  0.30367  1.0000
  C   C348      1.0  0.00746  0.77108  0.24903  1.0000
  H   H546      1.0  0.05768  0.82016  0.23814  1.0000
  S   S137      1.0  0.32918  0.92249  0.13000  1.0000
  C   C349      1.0  0.29521  0.93177  0.01070  1.0000
  H   H547      1.0  0.28038  0.94180  0.01248  1.0000
  S   S138      1.0  0.00684  0.78241  0.27458  1.0000
  H   H548      1.0  0.33070  0.86634  0.07854  1.0000
  S   S139      1.0  0.28059  0.84653  0.00664  1.0000
  C   C350      1.0  0.16043  0.76051  0.01656  1.0000
  C   C351      1.0  0.32997  0.89132  0.10087  1.0000
  C   C352      1.0  0.23313  0.75604  0.02298  1.0000
  S   S140      1.0  0.18299  0.00107  0.31557  1.0000
  C   C353      1.0  0.24412  0.77113  0.01026  1.0000
  Fe  Fe71      1.0  0.33470  0.81579  0.00469  1.0000
  H   H549      1.0  0.27362  0.86688  0.51649  1.0000
  S   S141      1.0  0.30756  0.83538  0.51309  1.0000
  C   C354      1.0  0.19077  0.98437  0.58788  1.0000
  H   H550      1.0  0.17490  0.87062  0.65740  1.0000
  Fe  Fe72      1.0  0.00890  0.75606  0.52478  1.0000
  Fe  Fe73      1.0  0.27842  0.96173  0.50061  1.0000
  S   S142      1.0  0.24347  0.96129  0.49549  1.0000
  S   S143      1.0  0.30449  0.93546  0.49736  1.0000
  H   H551      1.0  0.20554  0.97011  0.46716  1.0000
  H   H552      1.0  0.30952  0.87371  0.45475  1.0000
  Fe  Fe74      1.0  0.23918  0.98143  0.52424  1.0000
  H   H553      1.0  0.23484  0.95149  0.61567  1.0000
  C   C355      1.0  0.03307  0.83137  0.49047  1.0000
  S   S144      1.0  0.27361  0.97973  0.53056  1.0000
  S   S145      1.0  0.20197  0.96050  0.64758  1.0000
  H   H554      1.0  0.23873  0.95971  0.57691  1.0000
  S   S146      1.0  0.19083  0.96312  0.36911  1.0000
  S   S147      1.0  0.21044  0.98294  0.54793  1.0000
  C   C356      1.0  0.19090  0.90735  0.66594  1.0000
  N   N32       1.0  0.16845  0.90209  0.66795  1.0000
  H   H555      1.0  0.03426  0.80475  0.44488  1.0000
  C   C357      1.0  0.15417  0.98574  0.47783  1.0000
  H   H556      1.0  0.15979  0.92762  0.64612  1.0000
  S   S148      1.0  0.01272  0.78490  0.54426  1.0000
  H   H557      1.0  0.30918  0.81571  0.45802  1.0000
  H   H558      1.0  0.00827  0.79908  0.49905  1.0000
  H   H559      1.0  0.29172  0.85847  0.44140  1.0000
  Fe  Fe75      1.0  0.24825  0.99165  0.47641  1.0000
  C   C358      1.0  0.18865  0.97998  0.60995  1.0000
  H   H560      1.0  0.04669  0.79158  0.50051  1.0000
  H   H561      1.0  0.02647  0.79168  0.37380  1.0000
  N   N33       1.0  0.17699  0.98447  0.48132  1.0000
  C   C359      1.0  0.00966  0.76738  0.58550  1.0000
  C   C360      1.0  0.01748  0.79053  0.38885  1.0000
  H   H562      1.0  0.06460  0.80305  0.48069  1.0000
  C   C361      1.0  0.22305  0.97084  0.42199  1.0000
  C   C362      1.0  0.21378  0.96223  0.40480  1.0000
  C   C363      1.0  0.20247  0.97512  0.39024  1.0000
  N   N34       1.0  0.32279  0.84375  0.44432  1.0000
  H   H563      1.0  0.17826  0.99335  0.58016  1.0000
  H   H564      1.0  0.23179  0.96069  0.43288  1.0000
  H   H565      1.0  0.21549  0.94543  0.40265  1.0000
  C   C364      1.0  0.20884  0.97718  0.57576  1.0000
  C   C365      1.0  0.22483  0.96555  0.58600  1.0000
  C   C366      1.0  0.22255  0.96086  0.60800  1.0000
  C   C367      1.0  0.20445  0.96798  0.62012  1.0000
  H   H566      1.0  0.14817  0.88070  0.65489  1.0000
  H   H567      1.0  0.03088  0.82718  0.50775  1.0000
  H   H568      1.0  0.31050  0.83554  0.58253  1.0000
  C   C368      1.0  0.02394  0.77576  0.40479  1.0000
  H   H569      1.0  0.18547  0.97689  0.44903  1.0000
  C   C369      1.0  0.18050  0.97551  0.50285  1.0000
  C   C370      1.0  0.30719  0.86325  0.50920  1.0000
  H   H570      1.0  0.02061  0.84367  0.48657  1.0000
  Fe  Fe76      1.0  0.33479  0.81071  0.50844  1.0000
  C   C371      1.0  0.30488  0.90771  0.50231  1.0000
  C   C372      1.0  0.28667  0.89706  0.50848  1.0000
  C   C373      1.0  0.28785  0.87495  0.51187  1.0000
  H   H571      1.0  0.14521  0.99574  0.48964  1.0000
  S   S149      1.0  0.00689  0.78867  0.64561  1.0000
  H   H572      1.0  0.27168  0.90585  0.51050  1.0000
  H   H573      1.0  0.20153  0.89358  0.67028  1.0000
  C   C374      1.0  0.04862  0.79675  0.48345  1.0000
  S   S150      1.0  0.28346  0.99129  0.47994  1.0000
  H   H574      1.0  0.17288  0.98568  0.51531  1.0000
  C   C375      1.0  0.22095  0.99254  0.42500  1.0000
  C   C376      1.0  0.32543  0.87391  0.50322  1.0000
  H   H575      1.0  0.17459  0.98550  0.61900  1.0000
  C   C377      1.0  0.31993  0.83824  0.56737  1.0000
  C   C378      1.0  0.16497  0.88508  0.65361  1.0000
  H   H576      1.0  0.04864  0.83857  0.48775  1.0000
  H   H577      1.0  0.01366  0.81938  0.57223  1.0000
  H   H578      1.0  0.15110  0.99267  0.46176  1.0000
  C   C379      1.0  0.01245  0.77393  0.42446  1.0000
  C   C380      1.0  0.30477  0.85739  0.45242  1.0000
  N   N35       1.0  0.03189  0.81264  0.47766  1.0000
  H   H579      1.0  0.01158  0.82152  0.61145  1.0000
  C   C381      1.0  0.32424  0.89598  0.49973  1.0000
  C   C382      1.0  0.03478  0.81869  0.45488  1.0000
  C   C383      1.0  0.31594  0.82208  0.44253  1.0000
  C   C384      1.0  0.01150  0.78564  0.57248  1.0000
  H   H580      1.0  0.13814  0.91737  0.66250  1.0000
  H   H581      1.0  0.16887  0.89000  0.63678  1.0000
  H   H582      1.0  0.31194  0.85146  0.55827  1.0000
  H   H583      1.0  0.05027  0.82578  0.45106  1.0000
  C   C385      1.0  0.33069  0.85203  0.42330  1.0000
  H   H584      1.0  0.02216  0.83030  0.44978  1.0000
  H   H585      1.0  0.32943  0.81113  0.43745  1.0000
  S   S151      1.0  0.00523  0.85018  0.66827  1.0000
  H   H586      1.0  0.03794  0.76565  0.40178  1.0000
  H   H587      1.0  0.14754  0.96985  0.47912  1.0000
  H   H588      1.0  0.04828  0.78248  0.47389  1.0000
  H   H589      1.0  0.00976  0.78927  0.47280  1.0000
  H   H590      1.0  0.00691  0.75444  0.61763  1.0000
  Fe  Fe77      1.0  0.01067  0.81476  0.66904  1.0000
  C   C386      1.0  0.01105  0.80362  0.48194  1.0000
  S   S152      1.0  0.02200  0.75553  0.44416  1.0000
  H   H591      1.0  0.19568  0.91289  0.64948  1.0000
  C   C387      1.0  0.00829  0.76868  0.60776  1.0000
  H   H592      1.0  0.30358  0.82152  0.43089  1.0000
  H   H593      1.0  0.29815  0.85120  0.46804  1.0000
  H   H594      1.0  0.31915  0.82393  0.55797  1.0000
  H   H595      1.0  0.31822  0.85248  0.41165  1.0000
  H   H596      1.0  0.25142  0.99825  0.56995  1.0000
  C   C388      1.0  0.18816  0.97084  0.46549  1.0000
  C   C389      1.0  0.00902  0.78817  0.61738  1.0000
  H   H597      1.0  0.07735  0.91534  0.66064  1.0000
  H   H598      1.0  0.33452  0.83693  0.47501  1.0000
  H   H599      1.0  0.17426  0.95953  0.50535  1.0000
  C   C390      1.0  0.01219  0.80513  0.58207  1.0000
  H   H600      1.0  0.18288  0.95442  0.46703  1.0000
  C   C391      1.0  0.15510  0.92094  0.66218  1.0000
  C   C392      1.0  0.20048  0.99682  0.39320  1.0000
  C   C393      1.0  0.01102  0.80640  0.60436  1.0000
  H   H601      1.0  0.19763  0.97399  0.50574  1.0000
  S   S153      1.0  0.33478  0.78576  0.48430  1.0000
  Fe  Fe78      1.0  0.17319  0.97591  0.34008  1.0000
  H   H602      1.0  0.00956  0.75224  0.57842  1.0000
  S   S154      1.0  0.13857  0.98639  0.34136  1.0000
  Fe  Fe79      1.0  0.00233  0.82859  0.33826  1.0000
  H   H603      1.0  0.33468  0.87565  0.57532  1.0000
  H   H604      1.0  0.33368  0.85940  0.59930  1.0000
  H   H605      1.0  0.32010  0.90179  0.86699  1.0000
  S   S155      1.0  0.30908  0.80980  0.98263  1.0000
  N   N36       1.0  0.00643  0.91468  0.71028  1.0000
  C   C394      1.0  0.09814  0.92250  0.68483  1.0000
  Fe  Fe80      1.0  0.30475  0.84531  0.97918  1.0000
  S   S156      1.0  0.29337  0.86453  0.95006  1.0000
  H   H606      1.0  0.10392  0.93636  0.67632  1.0000
  Fe  Fe81      1.0  0.29265  0.98131  0.83533  1.0000
  S   S157      1.0  0.14422  0.98874  0.72428  1.0000
  C   C395      1.0  0.16276  0.89509  0.69007  1.0000
  Fe  Fe82      1.0  0.32080  0.96578  0.87167  1.0000
  S   S158      1.0  0.28794  0.98093  0.87122  1.0000
  Fe  Fe83      1.0  0.02245  0.81251  0.71560  1.0000
  H   H607      1.0  0.26867  0.91164  0.82634  1.0000
  H   H608      1.0  0.27648  0.89329  0.98244  1.0000
  S   S159      1.0  0.17973  0.95469  0.70503  1.0000
  H   H609      1.0  0.26538  0.88802  0.85924  1.0000
  C   C396      1.0  0.03677  0.75536  0.77060  1.0000
  Fe  Fe84      1.0  0.17994  0.98553  0.72117  1.0000
  H   H610      1.0  0.32352  0.91721  0.84269  1.0000
  Fe  Fe85      1.0  0.14417  0.95921  0.70555  1.0000
  S   S160      1.0  0.12539  0.93039  0.71631  1.0000
  S   S161      1.0  0.26937  0.96758  0.81333  1.0000
  C   C397      1.0  0.32642  0.88936  0.93535  1.0000
  S   S162      1.0  0.04167  0.81582  0.68438  1.0000
  C   C398      1.0  0.00291  0.90362  0.69088  1.0000
  H   H611      1.0  0.22311  0.76194  0.96335  1.0000
  Fe  Fe86      1.0  0.03504  0.85096  0.68613  1.0000
  C   C399      1.0  0.22589  0.76013  0.98004  1.0000
  C   C400      1.0  0.10569  0.91650  0.70463  1.0000
  S   S163      1.0  0.14356  0.97662  0.67375  1.0000
  H   H612      1.0  0.27604  0.93230  0.84228  1.0000
  C   C401      1.0  0.07503  0.89259  0.68686  1.0000
  C   C402      1.0  0.08238  0.88674  0.70677  1.0000
  C   C403      1.0  0.09766  0.89857  0.71552  1.0000
  H   H613      1.0  0.30656  0.92712  0.86399  1.0000
  S   S164      1.0  0.32493  0.96425  0.83603  1.0000
  H   H614      1.0  0.07642  0.87301  0.71539  1.0000
  H   H615      1.0  0.10332  0.89376  0.73087  1.0000
  N   N37       1.0  0.29359  0.90279  0.84717  1.0000
  C   C404      1.0  0.31173  0.91259  0.85555  1.0000
  C   C405      1.0  0.28232  0.91839  0.83334  1.0000
  C   C406      1.0  0.25030  0.97676  0.79463  1.0000
  C   C407      1.0  0.30127  0.88443  0.83485  1.0000
  S   S165      1.0  0.05556  0.87854  0.67500  1.0000
  H   H616      1.0  0.03292  0.89377  0.71779  1.0000
  C   C408      1.0  0.22567  0.96825  0.76790  1.0000
  H   H617      1.0  0.27264  0.90945  0.87426  1.0000
  H   H618      1.0  0.31219  0.88921  0.82125  1.0000
  H   H619      1.0  0.27811  0.94120  0.97341  1.0000
  H   H620      1.0  0.24869  0.78447  0.97862  1.0000
  H   H621      1.0  0.03193  0.91855  0.73048  1.0000
  C   C409      1.0  0.08301  0.91056  0.67599  1.0000
  C   C410      1.0  0.27907  0.89586  0.86496  1.0000
  C   C411      1.0  0.30496  0.88561  0.93501  1.0000
  S   S166      1.0  0.19925  0.99858  0.74718  1.0000
  C   C412      1.0  0.29290  0.93100  0.97279  1.0000
  C   C413      1.0  0.32210  0.91968  0.91038  1.0000
  C   C414      1.0  0.30053  0.91627  0.91045  1.0000
  C   C415      1.0  0.29210  0.89909  0.92239  1.0000
  H   H622      1.0  0.05348  0.75420  0.76613  1.0000
  H   H623      1.0  0.29289  0.92452  0.82004  1.0000
  H   H624      1.0  0.29038  0.92684  0.90129  1.0000
  H   H625      1.0  0.27544  0.89643  0.92217  1.0000
  H   H626      1.0  0.21879  0.95658  0.75891  1.0000
  C   C416      1.0  0.24101  0.96196  0.78261  1.0000
  H   H627      1.0  0.28798  0.87661  0.82831  1.0000
  H   H628      1.0  0.24571  0.94544  0.78466  1.0000
  S   S167      1.0  0.03522  0.78748  0.73972  1.0000
  H   H629      1.0  0.17227  0.88071  0.69499  1.0000
  S   S168      1.0  0.01861  0.84781  0.71847  1.0000
  H   H630      1.0  0.02463  0.77538  0.69666  1.0000
  C   C417      1.0  0.21914  0.98953  0.76505  1.0000
  Fe  Fe87      1.0  0.17907  0.97341  0.67383  1.0000
  C   C418      1.0  0.02377  0.77092  0.76051  1.0000
  H   H631      1.0  0.31467  0.89325  0.97843  1.0000
  C   C419      1.0  0.24047  0.77296  0.98865  1.0000
  H   H632      1.0  0.30644  0.94133  0.96964  1.0000
  C   C420      1.0  0.24389  0.99807  0.79166  1.0000
  H   H633      1.0  0.29250  0.92097  0.95892  1.0000
  H   H634      1.0  0.03969  0.91716  0.70278  1.0000
  H   H635      1.0  0.28722  0.88455  0.87612  1.0000
  H   H636      1.0  0.31001  0.87249  0.84486  1.0000
  C   C421      1.0  0.02869  0.91093  0.71563  1.0000
  H   H637      1.0  0.00536  0.88633  0.69347  1.0000
  C   C422      1.0  0.03208  0.75954  0.69356  1.0000
  H   H638      1.0  0.03852  0.76005  0.67680  1.0000
  H   H639      1.0  0.01402  0.90839  0.67744  1.0000
  S   S169      1.0  0.33399  0.93999  0.89440  1.0000
  H   H640      1.0  0.16535  0.90754  0.70135  1.0000
  H   H641      1.0  0.01194  0.94396  0.69317  1.0000
  H   H642      1.0  0.04551  0.75722  0.70410  1.0000
  C   C423      1.0  0.27696  0.90417  0.99570  1.0000
  S   S170      1.0  0.33208  0.85124  0.99881  1.0000
  H   H643      1.0  0.00435  0.94638  0.72085  1.0000
  H   H644      1.0  0.14576  0.89155  0.69226  1.0000
  H   H645      1.0  0.15642  0.93351  0.67354  1.0000
  N   N38       1.0  0.29498  0.91797  0.99255  1.0000
  H   H646      1.0  0.19400  0.92034  0.67638  1.0000
  H   H647      1.0  0.32881  0.91455  0.98739  1.0000
  C   C424      1.0  0.31490  0.90486  0.99101  1.0000
  H   H648      1.0  0.26162  0.91344  0.99682  1.0000
  C   C425      1.0  0.33493  0.90620  0.92298  1.0000
  H   H649      1.0  0.51573  0.24073  0.23723  1.0000
  C   C426      1.0  0.53991  0.24723  0.18816  1.0000
  H   H650      1.0  0.48508  0.22792  0.29685  1.0000
  S   S171      1.0  0.52225  0.22950  0.32247  1.0000
  C   C427      1.0  0.35522  0.06886  0.01361  1.0000
  H   H651      1.0  0.56616  0.11360  0.32618  1.0000
  S   S172      1.0  0.50552  0.02798  0.30050  1.0000
  H   H652      1.0  0.50408  0.21526  0.21300  1.0000
  H   H653      1.0  0.46047  0.07096  0.26075  1.0000
  S   S173      1.0  0.50750  0.22323  0.03399  1.0000
  H   H654      1.0  0.35296  0.03269  0.03762  1.0000
  C   C428      1.0  0.50620  0.08750  0.32203  1.0000
  H   H655      1.0  0.62141  0.00385  0.23177  1.0000
  H   H656      1.0  0.54813  0.23461  0.07810  1.0000
  H   H657      1.0  0.42825  0.05464  0.29500  1.0000
  S   S174      1.0  0.53807  0.17249  0.33305  1.0000
  H   H658      1.0  0.39426  0.15625  0.00760  1.0000
  H   H659      1.0  0.58850  0.22241  0.04890  1.0000
  H   H660      1.0  0.43881  0.05262  0.23651  1.0000
  H   H661      1.0  0.50219  0.09500  0.33684  1.0000
  C   C429      1.0  0.58846  0.23552  0.06009  1.0000
  C   C430      1.0  0.55049  0.23990  0.06118  1.0000
  H   H662      1.0  0.66645  0.07762  0.08853  1.0000
  H   H663      1.0  0.41267  0.04140  0.27744  1.0000
  C   C431      1.0  0.60106  0.18314  0.01556  1.0000
  H   H664      1.0  0.43157  0.16008  0.01587  1.0000
  H   H665      1.0  0.42207  0.06698  0.26986  1.0000
  N   N39       1.0  0.33750  0.05465  0.01599  1.0000
  H   H666      1.0  0.34430  0.08248  0.09234  1.0000
  H   H667      1.0  0.46636  0.05871  0.28603  1.0000
  C   C432      1.0  0.49445  0.24074  0.29059  1.0000
  H   H668      1.0  0.43784  0.01020  0.27891  1.0000
  S   S175      1.0  0.51594  0.12731  0.30495  1.0000
  C   C433      1.0  0.51307  0.09963  0.30420  1.0000
  H   H669      1.0  0.42924  0.02713  0.24431  1.0000
  C   C434      1.0  0.50420  0.06560  0.32060  1.0000
  C   C435      1.0  0.50903  0.05553  0.30139  1.0000
  C   C436      1.0  0.51594  0.06765  0.28359  1.0000
  C   C437      1.0  0.51793  0.08955  0.28502  1.0000
  H   H670      1.0  0.46518  0.01343  0.27229  1.0000
  C   C438      1.0  0.51316  0.24467  0.29997  1.0000
  H   H671      1.0  0.51976  0.06019  0.26871  1.0000
  H   H672      1.0  0.52327  0.09876  0.27112  1.0000
  N   N40       1.0  0.44573  0.04158  0.26814  1.0000
  H   H673      1.0  0.53120  0.20882  0.20507  1.0000
  H   H674      1.0  0.47846  0.04824  0.26230  1.0000
  C   C439      1.0  0.43151  0.19339  0.00790  1.0000
  Fe  Fe88      1.0  0.53206  0.22289  0.00663  1.0000
  H   H675      1.0  0.63170  0.16649  0.01592  1.0000
  H   H676      1.0  0.57089  0.07530  0.33294  1.0000
  S   S176      1.0  0.56202  0.20395  0.01617  1.0000
  H   H677      1.0  0.56547  0.21147  0.32966  1.0000
  H   H678      1.0  0.45671  0.02981  0.23785  1.0000
  Fe  Fe89      1.0  0.51214  0.14992  0.33236  1.0000
  C   C440      1.0  0.33819  0.04280  0.03660  1.0000
  H   H679      1.0  0.54297  0.23555  0.22907  1.0000
  C   C441      1.0  0.51738  0.21967  0.20164  1.0000
  H   H680      1.0  0.37073  0.05998  0.01439  1.0000
  H   H681      1.0  0.55443  0.23722  0.19103  1.0000
  N   N41       1.0  0.52232  0.24193  0.20351  1.0000
  S   S177      1.0  0.45863  0.19493  0.01335  1.0000
  C   C442      1.0  0.46347  0.05554  0.26931  1.0000
  Fe  Fe90      1.0  0.51028  0.00458  0.27378  1.0000
  H   H682      1.0  0.45369  0.02351  0.29643  1.0000
  H   H683      1.0  0.35416  0.08052  0.02634  1.0000
  C   C443      1.0  0.42630  0.05162  0.27806  1.0000
  Fe  Fe91      1.0  0.48330  0.22017  0.00975  1.0000
  C   C444      1.0  0.45072  0.02133  0.27953  1.0000
  S   S178      1.0  0.50192  0.01164  0.24004  1.0000
  H   H684      1.0  0.59382  0.20956  0.32923  1.0000
  C   C445      1.0  0.44246  0.03773  0.24573  1.0000
  H   H685      1.0  0.59690  0.17905  0.03200  1.0000
  C   C446      1.0  0.52845  0.24517  0.22524  1.0000
  H   H686      1.0  0.51271  0.21668  0.18542  1.0000
  C   C447      1.0  0.62082  0.17595  0.00648  1.0000
  H   H687      1.0  0.49869  0.05641  0.33444  1.0000
  H   H688      1.0  0.53573  0.24517  0.17157  1.0000
  H   H689      1.0  0.60379  0.24314  0.05720  1.0000
  H   H690      1.0  0.58786  0.22828  0.07642  1.0000
  H   H691      1.0  0.55021  0.22569  0.05166  1.0000
  H   H692      1.0  0.50788  0.25126  0.08540  1.0000
  C   C448      1.0  0.42225  0.17373  0.01032  1.0000
  S   S179      1.0  0.48640  0.17567  0.33611  1.0000
  H   H693      1.0  0.33760  0.05365  0.04995  1.0000
  H   H694      1.0  0.57075  0.24686  0.02342  1.0000
  H   H695      1.0  0.47285  0.25071  0.26659  1.0000
  C   C449      1.0  0.40104  0.17150  0.00563  1.0000
  H   H696      1.0  0.53665  0.25034  0.05703  1.0000
  N   N42       1.0  0.57039  0.25074  0.05700  1.0000
  Fe  Fe92      1.0  0.65098  0.17887  0.52445  1.0000
  S   S180      1.0  0.65299  0.20672  0.50140  1.0000
  S   S181      1.0  0.63780  0.18870  0.55719  1.0000
  Fe  Fe93      1.0  0.64200  0.18495  0.47749  1.0000
  S   S182      1.0  0.61301  0.19696  0.45952  1.0000
  S   S183      1.0  0.63827  0.15779  0.50117  1.0000
  Fe  Fe94      1.0  0.53034  0.17347  0.63286  1.0000
  S   S184      1.0  0.51276  0.20520  0.63317  1.0000
  S   S185      1.0  0.55454  0.15822  0.60898  1.0000
  Fe  Fe95      1.0  0.48335  0.18668  0.63888  1.0000
  S   S186      1.0  0.45499  0.19892  0.62018  1.0000
  S   S187      1.0  0.50081  0.15504  0.63679  1.0000
  Fe  Fe96      1.0  0.37494  0.16776  0.53161  1.0000
  S   S188      1.0  0.37272  0.20035  0.51653  1.0000
  S   S189      1.0  0.39523  0.15572  0.55879  1.0000
  H   H697      1.0  0.59399  0.24724  0.33788  1.0000
  Fe  Fe97      1.0  0.37366  0.18433  0.48546  1.0000
  S   S190      1.0  0.38940  0.20002  0.45593  1.0000
  S   S191      1.0  0.37843  0.15180  0.50027  1.0000
  Fe  Fe98      1.0  0.53730  0.16666  0.36831  1.0000
  S   S192      1.0  0.51326  0.19316  0.37463  1.0000
  S   S193      1.0  0.56934  0.15845  0.38226  1.0000
  H   H698      1.0  0.34589  0.20865  0.56327  1.0000
  Fe  Fe99      1.0  0.48881  0.16913  0.37152  1.0000
  S   S194      1.0  0.46401  0.15824  0.39692  1.0000
  S   S195      1.0  0.51321  0.14223  0.36716  1.0000
  C   C450      1.0  0.41110  0.18877  0.44042  1.0000
  C   C451      1.0  0.41941  0.20019  0.42254  1.0000
  C   C452      1.0  0.43608  0.19145  0.40938  1.0000
  C   C453      1.0  0.44444  0.17104  0.41384  1.0000
  C   C454      1.0  0.43622  0.15973  0.43184  1.0000
  C   C455      1.0  0.41982  0.16859  0.44517  1.0000
  H   H699      1.0  0.41283  0.21584  0.41871  1.0000
  H   H700      1.0  0.44214  0.20029  0.39554  1.0000
  H   H701      1.0  0.44269  0.14399  0.43551  1.0000
  H   H702      1.0  0.41392  0.15976  0.45907  1.0000
  C   C456      1.0  0.44050  0.18631  0.60152  1.0000
  C   C457      1.0  0.42912  0.19882  0.58674  1.0000
  C   C458      1.0  0.41617  0.18968  0.57266  1.0000
  C   C459      1.0  0.41388  0.16787  0.57366  1.0000
  C   C460      1.0  0.42537  0.15536  0.58834  1.0000
  C   C461      1.0  0.43877  0.16446  0.60201  1.0000
  H   H703      1.0  0.43037  0.21574  0.58619  1.0000
  H   H704      1.0  0.40773  0.19957  0.56135  1.0000
  H   H705      1.0  0.42370  0.13850  0.58936  1.0000
  H   H706      1.0  0.44725  0.15461  0.61337  1.0000
  C   C462      1.0  0.61416  0.18040  0.57082  1.0000
  C   C463      1.0  0.60402  0.19317  0.58638  1.0000
  C   C464      1.0  0.58551  0.18692  0.59793  1.0000
  C   C465      1.0  0.57714  0.16761  0.59427  1.0000
  C   C466      1.0  0.58727  0.15487  0.57867  1.0000
  C   C467      1.0  0.60559  0.16125  0.56693  1.0000
  H   H707      1.0  0.61056  0.20797  0.58961  1.0000
  H   H708      1.0  0.57797  0.19686  0.60991  1.0000
  H   H709      1.0  0.58101  0.13985  0.57576  1.0000
  H   H710      1.0  0.61341  0.15108  0.55530  1.0000
  C   C468      1.0  0.60075  0.18522  0.43869  1.0000
  C   C469      1.0  0.58066  0.19321  0.43304  1.0000
  C   C470      1.0  0.57050  0.18478  0.41633  1.0000
  C   C471      1.0  0.58055  0.16855  0.40465  1.0000
  C   C472      1.0  0.60062  0.16055  0.41031  1.0000
  C   C473      1.0  0.61059  0.16868  0.42731  1.0000
  H   H711      1.0  0.57286  0.20600  0.44168  1.0000
  H   H712      1.0  0.55491  0.19089  0.41253  1.0000
  H   H713      1.0  0.60861  0.14802  0.40145  1.0000
  H   H714      1.0  0.62605  0.16238  0.43139  1.0000
  H   H715      1.0  0.35954  0.09513  0.43082  1.0000
  C   C474      1.0  0.36262  0.24919  0.48769  1.0000
  H   H716      1.0  0.34704  0.22265  0.46119  1.0000
  H   H717      1.0  0.59210  0.08758  0.37265  1.0000
  C   C475      1.0  0.38124  0.11506  0.45830  1.0000
  H   H718      1.0  0.52863  0.09629  0.63675  1.0000
  H   H719      1.0  0.39458  0.12427  0.46277  1.0000
  H   H720      1.0  0.60467  0.20226  0.53000  1.0000
  Fe  Fe100     1.0  0.34291  0.15108  0.50289  1.0000
  H   H721      1.0  0.66723  0.22175  0.54311  1.0000
  H   H722      1.0  0.36949  0.11456  0.47211  1.0000
  H   H723      1.0  0.38104  0.13178  0.40652  1.0000
  C   C476      1.0  0.56331  0.19517  0.53648  1.0000
  N   N43       1.0  0.57861  0.22318  0.35707  1.0000
  H   H724      1.0  0.57265  0.11295  0.62126  1.0000
  S   S196      1.0  0.53439  0.17323  0.66786  1.0000
  H   H725      1.0  0.52404  0.11618  0.65601  1.0000
  H   H726      1.0  0.38056  0.17762  0.60071  1.0000
  C   C477      1.0  0.38773  0.12481  0.42126  1.0000
  H   H727      1.0  0.37430  0.23638  0.48269  1.0000
  C   C478      1.0  0.55091  0.09966  0.37711  1.0000
  H   H728      1.0  0.57868  0.19171  0.34601  1.0000
  C   C479      1.0  0.33601  0.23551  0.46726  1.0000
  H   H729      1.0  0.54475  0.22530  0.36114  1.0000
  H   H730      1.0  0.59283  0.17311  0.49580  1.0000
  C   C480      1.0  0.53532  0.11029  0.64323  1.0000
  C   C481      1.0  0.36350  0.14620  0.44314  1.0000
  H   H731      1.0  0.54022  0.11388  0.33880  1.0000
  N   N44       1.0  0.37163  0.12443  0.43914  1.0000
  H   H732      1.0  0.40117  0.13441  0.42469  1.0000
  C   C482      1.0  0.56134  0.07714  0.34815  1.0000
  H   H733      1.0  0.53586  0.12277  0.63035  1.0000
  C   C483      1.0  0.56370  0.12386  0.66130  1.0000
  H   H734      1.0  0.58872  0.11559  0.36806  1.0000
  H   H735      1.0  0.53388  0.09803  0.37461  1.0000
  C   C484      1.0  0.36971  0.19015  0.60763  1.0000
  H   H736      1.0  0.37624  0.15621  0.44753  1.0000
  C   C485      1.0  0.35403  0.11168  0.43389  1.0000
  H   H737      1.0  0.58755  0.09566  0.63867  1.0000
  H   H738      1.0  0.37013  0.19313  0.56497  1.0000
  C   C486      1.0  0.58355  0.17357  0.51131  1.0000
  H   H739      1.0  0.55235  0.11526  0.38412  1.0000
  H   H740      1.0  0.36785  0.21890  0.57540  1.0000
  H   H741      1.0  0.39435  0.10867  0.41784  1.0000
  C   C487      1.0  0.57141  0.09961  0.63329  1.0000
  Fe  Fe101     1.0  0.51274  0.19793  0.33881  1.0000
  N   N45       1.0  0.56398  0.09787  0.35706  1.0000
  C   C488      1.0  0.58638  0.10008  0.36120  1.0000
  H   H742      1.0  0.54892  0.19434  0.49735  1.0000
  C   C489      1.0  0.56278  0.20399  0.49896  1.0000
  H   H743      1.0  0.55682  0.22043  0.50194  1.0000
  H   H744      1.0  0.35639  0.15388  0.42895  1.0000
  H   H745      1.0  0.59397  0.16668  0.52362  1.0000
  H   H746      1.0  0.57024  0.16303  0.51049  1.0000
  H   H747      1.0  0.59677  0.20181  0.37701  1.0000
  N   N46       1.0  0.55645  0.10526  0.65120  1.0000
  H   H748      1.0  0.37923  0.20413  0.60925  1.0000
  H   H749      1.0  0.56451  0.13769  0.64988  1.0000
  N   N47       1.0  0.57595  0.19531  0.51607  1.0000
  C   C490      1.0  0.59423  0.20851  0.51746  1.0000
  H   H750      1.0  0.57198  0.20430  0.48338  1.0000
  H   H751      1.0  0.54957  0.18507  0.53620  1.0000
  H   H752      1.0  0.60405  0.20906  0.50229  1.0000
  H   H753      1.0  0.57291  0.18899  0.54974  1.0000
  H   H754      1.0  0.55716  0.21130  0.54050  1.0000
  H   H755      1.0  0.59668  0.09907  0.34638  1.0000
  H   H756      1.0  0.49146  0.10052  0.66899  1.0000
  H   H757      1.0  0.58916  0.22501  0.52118  1.0000
  H   H758      1.0  0.36449  0.18426  0.62381  1.0000
  C   C491      1.0  0.55886  0.22103  0.37035  1.0000
  H   H759      1.0  0.54950  0.07317  0.66003  1.0000
  H   H760      1.0  0.55571  0.08731  0.38913  1.0000
  H   H761      1.0  0.48697  0.00445  0.66690  1.0000
  H   H762      1.0  0.38745  0.09860  0.45590  1.0000
  C   C492      1.0  0.59687  0.21827  0.37018  1.0000
  C   C493      1.0  0.35919  0.20441  0.57360  1.0000
  N   N48       1.0  0.35161  0.19517  0.59433  1.0000
  H   H763      1.0  0.61210  0.21988  0.36075  1.0000
  H   H764      1.0  0.56627  0.08581  0.62510  1.0000
  H   H765      1.0  0.34437  0.22529  0.60781  1.0000
  H   H766      1.0  0.59673  0.22888  0.38372  1.0000
  H   H767      1.0  0.35110  0.14646  0.45633  1.0000
  H   H768      1.0  0.34624  0.11834  0.41962  1.0000
  H   H769      1.0  0.55939  0.13063  0.34773  1.0000
  C   C494      1.0  0.57921  0.20833  0.33971  1.0000
  H   H770      1.0  0.56619  0.06396  0.35925  1.0000
  H   H771      1.0  0.55812  0.23135  0.38414  1.0000
  H   H772      1.0  0.55742  0.20454  0.37661  1.0000
  C   C495      1.0  0.55529  0.08741  0.66695  1.0000
  H   H773      1.0  0.37065  0.24904  0.44565  1.0000
  C   C496      1.0  0.57931  0.24498  0.34805  1.0000
  H   H774      1.0  0.35180  0.16384  0.58285  1.0000
  H   H775      1.0  0.35442  0.24375  0.50285  1.0000
  H   H776      1.0  0.54457  0.07515  0.34473  1.0000
  S   S197      1.0  0.33948  0.16517  0.53509  1.0000
  C   C497      1.0  0.33664  0.21045  0.60496  1.0000
  C   C498      1.0  0.34087  0.17562  0.59103  1.0000
  H   H777      1.0  0.34166  0.11104  0.44716  1.0000
  H   H778      1.0  0.56564  0.24899  0.33807  1.0000
  H   H779      1.0  0.57969  0.12076  0.66734  1.0000
  Fe  Fe102     1.0  0.33747  0.19700  0.51765  1.0000
  C   C499      1.0  0.55720  0.11474  0.34178  1.0000
  S   S198      1.0  0.33837  0.18283  0.48581  1.0000
  Fe  Fe103     1.0  0.51436  0.20366  0.66893  1.0000
  H   H780      1.0  0.66043  0.13693  0.94870  1.0000
  H   H781      1.0  0.48263  0.18768  0.73155  1.0000
  S   S199      1.0  0.50604  0.13068  0.69845  1.0000
  H   H782      1.0  0.35525  0.07793  0.99813  1.0000
  S   S200      1.0  0.52680  0.22882  0.68983  1.0000
  H   H783      1.0  0.34922  0.08798  0.87464  1.0000
  H   H784      1.0  0.49273  0.17504  0.76753  1.0000
  H   H785      1.0  0.34619  0.05274  0.93845  1.0000
  S   S201      1.0  0.34669  0.12460  0.00348  1.0000
  H   H786      1.0  0.33965  0.23064  0.98164  1.0000
  H   H787      1.0  0.44294  0.19492  0.96314  1.0000
  S   S202      1.0  0.50813  0.21699  0.98295  1.0000
  C   C500      1.0  0.38879  0.18892  0.99826  1.0000
  H   H788      1.0  0.48418  0.24450  0.70557  1.0000
  S   S203      1.0  0.49926  0.03029  0.70455  1.0000
  H   H789      1.0  0.42528  0.21391  0.93378  1.0000
  Fe  Fe104     1.0  0.50412  0.15643  0.67190  1.0000
  C   C501      1.0  0.62639  0.18090  0.98519  1.0000
  C   C502      1.0  0.33923  0.03980  0.99859  1.0000
  H   H790      1.0  0.65930  0.11356  0.93413  1.0000
  H   H791      1.0  0.51244  0.02468  0.84402  1.0000
  H   H792      1.0  0.45139  0.25100  0.94593  1.0000
  C   C503      1.0  0.59215  0.20037  0.98227  1.0000
  H   H793      1.0  0.43557  0.23415  0.96323  1.0000
  H   H794      1.0  0.49119  0.21329  0.73719  1.0000
  H   H795      1.0  0.36150  0.08714  0.82653  1.0000
  H   H796      1.0  0.64614  0.15937  0.92019  1.0000
  Fe  Fe105     1.0  0.50492  0.00665  0.73242  1.0000
  C   C504      1.0  0.44111  0.21647  0.92581  1.0000
  S   S204      1.0  0.50273  0.00978  0.76782  1.0000
  H   H797      1.0  0.36327  0.05134  0.87485  1.0000
  H   H798      1.0  0.54424  0.09137  0.68072  1.0000
  H   H799      1.0  0.37160  0.06018  0.82680  1.0000
  H   H800      1.0  0.50207  0.20047  0.77248  1.0000
  H   H801      1.0  0.58123  0.20975  0.97282  1.0000
  S   S205      1.0  0.65105  0.17205  0.97291  1.0000
  H   H802      1.0  0.51641  0.01777  0.81676  1.0000
  C   C505      1.0  0.50357  0.10282  0.69978  1.0000
  C   C506      1.0  0.49643  0.09191  0.68310  1.0000
  C   C507      1.0  0.49527  0.06978  0.68484  1.0000
  C   C508      1.0  0.50099  0.05823  0.70333  1.0000
  C   C509      1.0  0.50804  0.06915  0.72002  1.0000
  C   C510      1.0  0.50932  0.09127  0.71823  1.0000
  C   C511      1.0  0.51730  0.24742  0.70923  1.0000
  H   H803      1.0  0.61610  0.19715  0.95671  1.0000
  H   H804      1.0  0.51251  0.06054  0.73433  1.0000
  H   H805      1.0  0.51483  0.09945  0.73128  1.0000
  H   H806      1.0  0.65759  0.15796  0.89356  1.0000
  C   C512      1.0  0.36506  0.07310  0.83708  1.0000
  H   H807      1.0  0.52516  0.16834  0.71723  1.0000
  H   H808      1.0  0.48306  0.20790  0.91985  1.0000
  C   C513      1.0  0.61195  0.19318  0.97317  1.0000
  C   C514      1.0  0.45840  0.19800  0.95462  1.0000
  H   H809      1.0  0.44503  0.20320  0.91515  1.0000
  C   C515      1.0  0.50667  0.18498  0.76553  1.0000
  S   S206      1.0  0.36216  0.18689  0.99125  1.0000
  C   C516      1.0  0.49652  0.19768  0.73098  1.0000
  H   H810      1.0  0.66437  0.05902  0.92506  1.0000
  H   H811      1.0  0.46310  0.18416  0.94497  1.0000
  N   N49       1.0  0.51388  0.18766  0.74298  1.0000
  C   C517      1.0  0.52006  0.16686  0.73437  1.0000
  H   H812      1.0  0.37772  0.07701  0.84742  1.0000
  H   H813      1.0  0.47889  0.00822  0.81644  1.0000
  C   C518      1.0  0.41915  0.21090  0.00085  1.0000
  N   N50       1.0  0.45726  0.21779  0.94146  1.0000
  C   C519      1.0  0.47801  0.22109  0.93026  1.0000
  H   H814      1.0  0.50666  0.15618  0.73573  1.0000
  H   H815      1.0  0.49051  0.22247  0.94160  1.0000
  H   H816      1.0  0.53863  0.20271  0.72429  1.0000
  C   C520      1.0  0.53220  0.20114  0.74101  1.0000
  H   H817      1.0  0.52783  0.21737  0.74625  1.0000
  Fe  Fe106     1.0  0.34024  0.15927  0.99737  1.0000
  S   S207      1.0  0.36539  0.01084  0.81608  1.0000
  C   C521      1.0  0.48005  0.00238  0.83323  1.0000
  H   H818      1.0  0.47477  0.01555  0.84357  1.0000
  H   H819      1.0  0.53335  0.15886  0.74274  1.0000
  H   H820      1.0  0.43526  0.00928  0.77764  1.0000
  H   H821      1.0  0.39875  0.02378  0.78634  1.0000
  H   H822      1.0  0.54530  0.19455  0.75058  1.0000
  H   H823      1.0  0.51932  0.17726  0.77505  1.0000
  C   C522      1.0  0.45146  0.23566  0.95514  1.0000
  C   C523      1.0  0.33760  0.08390  0.86322  1.0000
  C   C524      1.0  0.58658  0.19533  0.00354  1.0000
  H   H824      1.0  0.43978  0.23125  0.91575  1.0000
  H   H825      1.0  0.50161  0.20038  0.71400  1.0000
  N   N51       1.0  0.34601  0.06662  0.84973  1.0000
  C   C525      1.0  0.40453  0.00957  0.79458  1.0000
  C   C526      1.0  0.35154  0.04791  0.86330  1.0000
  C   C527      1.0  0.39802  0.20862  0.99586  1.0000
  H   H826      1.0  0.47008  0.19861  0.96697  1.0000
  S   S208      1.0  0.48412  0.18685  0.67473  1.0000
  H   H827      1.0  0.33876  0.04838  0.98285  1.0000
  H   H828      1.0  0.58210  0.00943  0.82464  1.0000
  C   C528      1.0  0.65447  0.14860  0.90859  1.0000
  H   H829      1.0  0.35836  0.03467  0.85370  1.0000
  H   H830      1.0  0.38869  0.22226  0.99037  1.0000
  H   H831      1.0  0.57099  0.08305  0.67323  1.0000
  H   H832      1.0  0.35429  0.03005  0.99864  1.0000
  C   C529      1.0  0.51650  0.01139  0.83345  1.0000
  H   H833      1.0  0.42582  0.22621  0.99951  1.0000
  H   H834      1.0  0.33737  0.04222  0.87249  1.0000
  H   H835      1.0  0.64343  0.13626  0.90544  1.0000
  H   H836      1.0  0.55275  0.12851  0.67493  1.0000
  H   H837      1.0  0.53309  0.00566  0.83597  1.0000
  H   H838      1.0  0.47774  0.23600  0.92030  1.0000
  H   H839      1.0  0.46292  0.23664  0.96762  1.0000
  H   H840      1.0  0.48961  0.06156  0.67189  1.0000
  H   H841      1.0  0.66792  0.01577  0.93483  1.0000
  C   C530      1.0  0.52499  0.26157  0.29157  1.0000
  S   S209      1.0  0.64324  0.47053  0.23075  1.0000
  Fe  Fe107     1.0  0.64603  0.45618  0.19878  1.0000
  S   S210      1.0  0.62985  0.42864  0.18483  1.0000
  C   C531      1.0  0.66104  0.41620  0.12954  1.0000
  Fe  Fe108     1.0  0.37662  0.46483  0.20220  1.0000
  H   H842      1.0  0.55835  0.27129  0.03216  1.0000
  S   S211      1.0  0.39700  0.43756  0.21649  1.0000
  C   C532      1.0  0.51724  0.43801  0.21064  1.0000
  H   H843      1.0  0.53418  0.44171  0.21076  1.0000
  H   H844      1.0  0.54336  0.40836  0.19332  1.0000
  S   S212      1.0  0.64266  0.48739  0.18043  1.0000
  S   S213      1.0  0.36378  0.48813  0.22635  1.0000
  Fe  Fe109     1.0  0.50334  0.31193  0.22004  1.0000
  S   S214      1.0  0.53587  0.30887  0.20423  1.0000
  S   S215      1.0  0.48981  0.28627  0.24301  1.0000
  Fe  Fe110     1.0  0.49071  0.34987  0.18957  1.0000
  S   S216      1.0  0.52250  0.34828  0.17161  1.0000
  S   S217      1.0  0.46797  0.37452  0.17474  1.0000
  Fe  Fe111     1.0  0.51975  0.31299  0.17327  1.0000
  S   S218      1.0  0.52426  0.28665  0.14956  1.0000
  Fe  Fe112     1.0  0.53553  0.34453  0.20397  1.0000
  S   S219      1.0  0.55945  0.36460  0.21844  1.0000
  S   S220      1.0  0.48726  0.31494  0.18909  1.0000
  S   S221      1.0  0.50363  0.34737  0.22187  1.0000
  S   S222      1.0  0.50541  0.28440  0.05137  1.0000
  H   H845      1.0  0.54057  0.40866  0.23248  1.0000
  H   H846      1.0  0.51981  0.41073  0.17876  1.0000
  C   C533      1.0  0.51852  0.28649  0.12237  1.0000
  C   C534      1.0  0.51779  0.30486  0.10939  1.0000
  C   C535      1.0  0.51362  0.30389  0.08780  1.0000
  C   C536      1.0  0.51023  0.28456  0.07883  1.0000
  C   C537      1.0  0.51088  0.26620  0.09186  1.0000
  C   C538      1.0  0.51519  0.26716  0.11341  1.0000
  H   H847      1.0  0.52085  0.31976  0.11589  1.0000
  H   H848      1.0  0.51328  0.31819  0.07786  1.0000
  C   C539      1.0  0.52629  0.40506  0.19405  1.0000
  C   C540      1.0  0.41678  0.42035  0.20447  1.0000
  C   C541      1.0  0.42728  0.40497  0.21728  1.0000
  C   C542      1.0  0.44294  0.39080  0.20851  1.0000
  C   C543      1.0  0.44832  0.39188  0.18675  1.0000
  C   C544      1.0  0.43789  0.40728  0.17394  1.0000
  C   C545      1.0  0.42223  0.42145  0.18272  1.0000
  H   H849      1.0  0.42315  0.40393  0.23412  1.0000
  H   H850      1.0  0.45068  0.37896  0.21858  1.0000
  H   H851      1.0  0.44192  0.40830  0.15708  1.0000
  H   H852      1.0  0.41431  0.43318  0.17266  1.0000
  H   H853      1.0  0.53144  0.26200  0.22751  1.0000
  C   C546      1.0  0.60947  0.41182  0.19447  1.0000
  C   C547      1.0  0.60273  0.41004  0.21589  1.0000
  C   C548      1.0  0.58744  0.39554  0.22285  1.0000
  C   C549      1.0  0.57843  0.38283  0.20851  1.0000
  C   C550      1.0  0.58476  0.38498  0.18700  1.0000
  C   C551      1.0  0.60030  0.39924  0.18009  1.0000
  H   H854      1.0  0.60969  0.41946  0.22719  1.0000
  H   H855      1.0  0.58279  0.39399  0.23955  1.0000
  H   H856      1.0  0.57807  0.37532  0.17575  1.0000
  H   H857      1.0  0.60540  0.40041  0.16348  1.0000
  C   C552      1.0  0.49928  0.27074  0.26509  1.0000
  C   C553      1.0  0.51823  0.27440  0.27417  1.0000
  H   H858      1.0  0.52750  0.28733  0.26805  1.0000
  C   C554      1.0  0.52334  0.40625  0.23218  1.0000
  H   H859      1.0  0.52534  0.38764  0.19522  1.0000
  C   C555      1.0  0.66557  0.45101  0.14145  1.0000
  H   H860      1.0  0.48504  0.41709  0.19738  1.0000
  H   H861      1.0  0.64835  0.41343  0.14220  1.0000
  C   C556      1.0  0.34855  0.43819  0.25121  1.0000
  C   C557      1.0  0.57086  0.26810  0.07171  1.0000
  H   H862      1.0  0.52149  0.38895  0.23409  1.0000
  H   H863      1.0  0.50675  0.27257  0.20029  1.0000
  H   H864      1.0  0.53944  0.26488  0.29867  1.0000
  S   S223      1.0  0.34477  0.46069  0.18953  1.0000
  H   H865      1.0  0.48970  0.39349  0.21319  1.0000
  H   H866      1.0  0.51102  0.44511  0.19572  1.0000
  N   N52       1.0  0.45755  0.33162  0.12880  1.0000
  C   C558      1.0  0.44594  0.33706  0.10960  1.0000
  C   C559      1.0  0.47650  0.34417  0.12842  1.0000
  C   C560      1.0  0.46402  0.30892  0.12929  1.0000
  C   C561      1.0  0.44376  0.33638  0.14784  1.0000
  H   H867      1.0  0.44086  0.35410  0.10874  1.0000
  H   H868      1.0  0.43154  0.32787  0.10933  1.0000
  H   H869      1.0  0.45591  0.33368  0.09492  1.0000
  H   H870      1.0  0.47217  0.36137  0.12872  1.0000
  H   H871      1.0  0.48588  0.34016  0.14247  1.0000
  H   H872      1.0  0.48701  0.34142  0.11400  1.0000
  H   H873      1.0  0.47381  0.30444  0.14297  1.0000
  H   H874      1.0  0.47357  0.30459  0.11465  1.0000
  H   H875      1.0  0.45011  0.29894  0.13055  1.0000
  H   H876      1.0  0.45208  0.33263  0.16262  1.0000
  H   H877      1.0  0.42927  0.32725  0.14872  1.0000
  H   H878      1.0  0.43872  0.35344  0.14805  1.0000
  H   H879      1.0  0.50863  0.44605  0.22411  1.0000
  C   C562      1.0  0.49209  0.41073  0.21219  1.0000
  S   S224      1.0  0.47831  0.25528  0.00523  1.0000
  H   H880      1.0  0.54392  0.26398  0.18910  1.0000
  H   H881      1.0  0.48277  0.41785  0.22577  1.0000
  N   N53       1.0  0.51473  0.41502  0.21227  1.0000
  H   H882      1.0  0.56995  0.26215  0.08853  1.0000
  C   C563      1.0  0.48752  0.25377  0.27341  1.0000
  H   H883      1.0  0.51530  0.41363  0.24630  1.0000
  H   H884      1.0  0.36502  0.44323  0.24839  1.0000
  S   S225      1.0  0.38506  0.49015  0.17765  1.0000
  H   H885      1.0  0.51574  0.25281  0.12325  1.0000
  Fe  Fe113     1.0  0.35199  0.48797  0.16660  1.0000
  H   H886      1.0  0.33901  0.44642  0.23884  1.0000
  C   C564      1.0  0.50350  0.25569  0.19902  1.0000
  S   S226      1.0  0.34974  0.49354  0.13062  1.0000
  H   H887      1.0  0.34880  0.42102  0.24849  1.0000
  Fe  Fe114     1.0  0.50448  0.25819  0.02744  1.0000
  H   H888      1.0  0.65326  0.42286  0.11526  1.0000
  C   C565      1.0  0.57159  0.25948  0.03495  1.0000
  H   H889      1.0  0.58661  0.26739  0.03106  1.0000
  H   H890      1.0  0.35693  0.47139  0.27410  1.0000
  H   H891      1.0  0.55720  0.27965  0.06973  1.0000
  H   H892      1.0  0.58556  0.27683  0.06893  1.0000
  H   H893      1.0  0.36974  0.43619  0.28661  1.0000
  H   H894      1.0  0.34703  0.43518  0.30500  1.0000
  C   C566      1.0  0.34049  0.46604  0.27552  1.0000
  H   H895      1.0  0.65886  0.45892  0.12717  1.0000
  H   H896      1.0  0.65228  0.44912  0.15342  1.0000
  C   C567      1.0  0.35300  0.43169  0.28856  1.0000
  N   N54       1.0  0.33999  0.44312  0.27275  1.0000
  H   H897      1.0  0.35301  0.41434  0.28692  1.0000
  H   H898      1.0  0.48996  0.25241  0.21050  1.0000
  H   H899      1.0  0.49844  0.25382  0.18271  1.0000
  H   H900      1.0  0.34702  0.50158  0.08576  1.0000
  H   H901      1.0  0.66868  0.40060  0.12563  1.0000
  H   H902      1.0  0.34802  0.26548  0.43862  1.0000
  H   H903      1.0  0.36785  0.27578  0.45383  1.0000
  C   C568      1.0  0.35897  0.26155  0.45145  1.0000
  H   H904      1.0  0.37164  0.26304  0.49107  1.0000
  H   H905      1.0  0.57868  0.25661  0.36073  1.0000
  N   N55       1.0  0.34743  0.25442  0.47124  1.0000
  H   H906      1.0  0.34014  0.28589  0.48163  1.0000
  Fe  Fe115     1.0  0.50779  0.31637  0.78503  1.0000
  S   S227      1.0  0.49005  0.31592  0.81717  1.0000
  S   S228      1.0  0.49440  0.29565  0.76018  1.0000
  Fe  Fe116     1.0  0.53569  0.35181  0.79854  1.0000
  S   S229      1.0  0.51923  0.35365  0.83085  1.0000
  S   S230      1.0  0.56497  0.36983  0.78729  1.0000
  Fe  Fe117     1.0  0.52132  0.31818  0.83152  1.0000
  S   S231      1.0  0.53671  0.29929  0.85873  1.0000
  Fe  Fe118     1.0  0.48921  0.35148  0.81401  1.0000
  S   S232      1.0  0.45851  0.36907  0.82540  1.0000
  S   S233      1.0  0.53924  0.31623  0.79966  1.0000
  S   S234      1.0  0.50542  0.35205  0.78137  1.0000
  H   H907      1.0  0.46351  0.32489  0.78009  1.0000
  H   H908      1.0  0.45750  0.35191  0.78605  1.0000
  C   C569      1.0  0.49577  0.25202  0.71406  1.0000
  Fe  Fe119     1.0  0.37758  0.46892  0.79802  1.0000
  S   S235      1.0  0.40587  0.44810  0.78547  1.0000
  H   H909      1.0  0.43726  0.33339  0.78922  1.0000
  S   S236      1.0  0.64216  0.48792  0.79118  1.0000
  Fe  Fe120     1.0  0.64289  0.46223  0.81686  1.0000
  H   H910      1.0  0.55084  0.48136  0.81534  1.0000
  S   S237      1.0  0.61387  0.44307  0.82690  1.0000
  S   S238      1.0  0.52974  0.25818  0.00075  1.0000
  N   N56       1.0  0.59046  0.33681  0.84200  1.0000
  C   C570      1.0  0.57772  0.39092  0.79811  1.0000
  C   C571      1.0  0.57023  0.40021  0.81694  1.0000
  C   C572      1.0  0.58153  0.41608  0.82543  1.0000
  C   C573      1.0  0.60032  0.42311  0.81515  1.0000
  C   C574      1.0  0.60768  0.41401  0.79620  1.0000
  C   C575      1.0  0.59649  0.39799  0.78782  1.0000
  H   H911      1.0  0.55572  0.39522  0.82498  1.0000
  H   H912      1.0  0.57565  0.42296  0.84010  1.0000
  H   H913      1.0  0.62208  0.41919  0.78806  1.0000
  H   H914      1.0  0.60248  0.39097  0.77324  1.0000
  C   C576      1.0  0.44452  0.39144  0.81421  1.0000
  C   C577      1.0  0.42628  0.39974  0.82528  1.0000
  C   C578      1.0  0.41436  0.41718  0.81688  1.0000
  C   C579      1.0  0.42047  0.42641  0.79716  1.0000
  C   C580      1.0  0.43871  0.41810  0.78605  1.0000
  C   C581      1.0  0.45075  0.40079  0.79455  1.0000
  H   H915      1.0  0.42131  0.39262  0.84048  1.0000
  H   H916      1.0  0.40036  0.42333  0.82559  1.0000
  H   H917      1.0  0.44358  0.42511  0.77077  1.0000
  H   H918      1.0  0.46481  0.39468  0.78591  1.0000
  C   C582      1.0  0.52441  0.29105  0.88358  1.0000
  C   C583      1.0  0.53668  0.28007  0.89872  1.0000
  C   C584      1.0  0.52757  0.27325  0.91861  1.0000
  C   C585      1.0  0.50601  0.27730  0.92358  1.0000
  C   C586      1.0  0.49375  0.28818  0.90839  1.0000
  C   C587      1.0  0.50286  0.29506  0.88856  1.0000
  C   C588      1.0  0.52543  0.27224  0.73613  1.0000
  H   H919      1.0  0.53722  0.26487  0.93006  1.0000
  C   C589      1.0  0.45714  0.48449  0.77595  1.0000
  H   H920      1.0  0.49321  0.30351  0.87715  1.0000
  H   H921      1.0  0.55157  0.48226  0.84367  1.0000
  C   C590      1.0  0.50391  0.27696  0.74085  1.0000
  C   C591      1.0  0.58852  0.49737  0.80581  1.0000
  H   H922      1.0  0.56494  0.35789  0.83270  1.0000
  H   H923      1.0  0.44909  0.46927  0.77686  1.0000
  H   H924      1.0  0.46916  0.48337  0.78807  1.0000
  H   H925      1.0  0.42459  0.31775  0.75703  1.0000
  H   H926      1.0  0.61177  0.31503  0.85803  1.0000
  H   H927      1.0  0.60275  0.36013  0.81959  1.0000
  H   H928      1.0  0.60150  0.31231  0.82107  1.0000
  H   H929      1.0  0.55793  0.33904  0.85352  1.0000
  C   C592      1.0  0.46495  0.34981  0.74436  1.0000
  H   H930      1.0  0.60981  0.36292  0.84625  1.0000
  C   C593      1.0  0.60712  0.35114  0.83434  1.0000
  H   H931      1.0  0.57282  0.36119  0.85902  1.0000
  C   C594      1.0  0.45127  0.33801  0.77901  1.0000
  H   H932      1.0  0.58204  0.33074  0.81055  1.0000
  H   H933      1.0  0.45125  0.31068  0.74791  1.0000
  C   C595      1.0  0.56152  0.48146  0.82862  1.0000
  Fe  Fe121     1.0  0.34473  0.48845  0.82995  1.0000
  H   H934      1.0  0.41459  0.35502  0.76568  1.0000
  H   H935      1.0  0.47708  0.29148  0.91204  1.0000
  C   C596      1.0  0.43096  0.49974  0.80068  1.0000
  C   C597      1.0  0.53201  0.25768  0.72043  1.0000
  H   H936      1.0  0.42479  0.36400  0.73989  1.0000
  S   S239      1.0  0.64844  0.48473  0.84231  1.0000
  S   S240      1.0  0.38011  0.49117  0.82455  1.0000
  S   S241      1.0  0.37098  0.49482  0.77331  1.0000
  H   H937      1.0  0.47085  0.36431  0.75070  1.0000
  H   H938      1.0  0.35316  0.48528  0.89185  1.0000
  H   H939      1.0  0.59953  0.33537  0.87420  1.0000
  C   C598      1.0  0.48919  0.26665  0.72969  1.0000
  C   C599      1.0  0.58695  0.32208  0.82530  1.0000
  H   H940      1.0  0.59757  0.48189  0.80519  1.0000
  H   H941      1.0  0.62240  0.34232  0.83062  1.0000
  C   C600      1.0  0.43870  0.32365  0.74780  1.0000
  H   H942      1.0  0.43451  0.32666  0.73109  1.0000
  H   H943      1.0  0.47810  0.33746  0.74470  1.0000
  C   C601      1.0  0.42913  0.35976  0.75637  1.0000
  C   C602      1.0  0.57068  0.34930  0.84707  1.0000
  H   H944      1.0  0.53704  0.28000  0.74438  1.0000
  H   H945      1.0  0.34907  0.48634  0.93116  1.0000
  N   N57       1.0  0.44598  0.34281  0.75686  1.0000
  H   H946      1.0  0.43415  0.37434  0.76336  1.0000
  H   H947      1.0  0.46167  0.35331  0.72747  1.0000
  C   C603      1.0  0.59691  0.32473  0.86123  1.0000
  H   H948      1.0  0.57430  0.31118  0.83050  1.0000
  H   H949      1.0  0.58451  0.31382  0.86726  1.0000
  H   H950      1.0  0.59963  0.48344  0.84434  1.0000
  S   S242      1.0  0.49332  0.26882  0.94814  1.0000
  S   S243      1.0  0.34260  0.46412  0.80515  1.0000
  N   N58       1.0  0.57568  0.49919  0.82596  1.0000
  H   H951      1.0  0.55335  0.27682  0.89505  1.0000
  H   H952      1.0  0.47250  0.27012  0.73303  1.0000
  Fe  Fe122     1.0  0.50397  0.25240  0.97899  1.0000
  H   H953      1.0  0.46557  0.48591  0.76006  1.0000
  H   H954      1.0  0.57073  0.46601  0.82898  1.0000
  H   H955      1.0  0.57856  0.49875  0.79191  1.0000
  C   C604      1.0  0.58977  0.49846  0.84374  1.0000
  H   H956      1.0  0.44218  0.49979  0.81349  1.0000
  Fe  Fe123     1.0  0.33645  0.49157  0.78206  1.0000
  C   C605      1.0  0.33771  0.48826  0.89959  1.0000
  H   H957      1.0  0.41753  0.48833  0.76359  1.0000
  H   H958      1.0  0.42294  0.48457  0.80235  1.0000
  H   H959      1.0  0.58068  0.49975  0.85924  1.0000
  H   H960      1.0  0.54871  0.25444  0.71686  1.0000
  Fe  Fe124     1.0  0.48996  0.61421  0.19580  1.0000
  S   S244      1.0  0.51339  0.62191  0.16863  1.0000
  S   S245      1.0  0.47356  0.58329  0.19120  1.0000
  Fe  Fe125     1.0  0.50522  0.65059  0.22192  1.0000
  S   S246      1.0  0.53001  0.65924  0.19654  1.0000
  S   S247      1.0  0.49641  0.66872  0.25246  1.0000
  Fe  Fe126     1.0  0.50473  0.65607  0.17352  1.0000
  S   S248      1.0  0.49620  0.68346  0.15019  1.0000
  Fe  Fe127     1.0  0.53678  0.62413  0.19373  1.0000
  S   S249      1.0  0.56953  0.60869  0.18547  1.0000
  S   S250      1.0  0.47949  0.64841  0.19899  1.0000
  S   S251      1.0  0.51382  0.61546  0.22079  1.0000
  S   S252      1.0  0.61499  0.52491  0.22478  1.0000
  S   S253      1.0  0.38172  0.54600  0.20562  1.0000
  H   H961      1.0  0.48961  0.71930  0.30982  1.0000
  Fe  Fe128     1.0  0.51088  0.71965  0.02458  1.0000
  S   S254      1.0  0.51986  0.69489  0.05049  1.0000
  C   C606      1.0  0.54401  0.56458  0.16020  1.0000
  H   H962      1.0  0.58725  0.71816  0.30330  1.0000
  C   C607      1.0  0.50453  0.69102  0.26578  1.0000
  C   C608      1.0  0.52123  0.70321  0.25792  1.0000
  C   C609      1.0  0.52625  0.72127  0.26852  1.0000
  C   C610      1.0  0.51496  0.72735  0.28734  1.0000
  C   C611      1.0  0.49851  0.71497  0.29541  1.0000
  C   C612      1.0  0.49331  0.69707  0.28465  1.0000
  H   H963      1.0  0.53036  0.69873  0.24371  1.0000
  H   H964      1.0  0.53908  0.73058  0.26209  1.0000
  H   H965      1.0  0.46430  0.74238  0.18733  1.0000
  H   H966      1.0  0.48037  0.68785  0.29099  1.0000
  C   C613      1.0  0.58283  0.58609  0.19718  1.0000
  C   C614      1.0  0.59899  0.57522  0.18518  1.0000
  C   C615      1.0  0.60919  0.55660  0.19337  1.0000
  C   C616      1.0  0.60345  0.54872  0.21378  1.0000
  C   C617      1.0  0.58752  0.55977  0.22588  1.0000
  C   C618      1.0  0.57734  0.57837  0.21771  1.0000
  H   H967      1.0  0.60355  0.58116  0.16937  1.0000
  H   H968      1.0  0.62149  0.54835  0.18392  1.0000
  H   H969      1.0  0.58307  0.55391  0.24175  1.0000
  H   H970      1.0  0.56524  0.58672  0.22731  1.0000
  C   C619      1.0  0.44781  0.57343  0.19549  1.0000
  C   C620      1.0  0.44487  0.55237  0.19076  1.0000
  C   C621      1.0  0.42488  0.54366  0.19390  1.0000
  C   C622      1.0  0.40747  0.55594  0.20179  1.0000
  C   C623      1.0  0.41035  0.57704  0.20633  1.0000
  C   C624      1.0  0.43037  0.58574  0.20326  1.0000
  H   H971      1.0  0.45821  0.54267  0.18475  1.0000
  H   H972      1.0  0.42300  0.52741  0.19036  1.0000
  H   H973      1.0  0.39702  0.58673  0.21243  1.0000
  H   H974      1.0  0.43231  0.60193  0.20698  1.0000
  C   C625      1.0  0.50288  0.68625  0.12243  1.0000
  C   C626      1.0  0.49502  0.70418  0.11097  1.0000
  C   C627      1.0  0.49992  0.70710  0.08898  1.0000
  C   C628      1.0  0.51282  0.69209  0.07816  1.0000
  C   C629      1.0  0.52079  0.67424  0.08965  1.0000
  C   C630      1.0  0.51584  0.67129  0.11161  1.0000
  H   H975      1.0  0.48495  0.71586  0.11911  1.0000
  H   H976      1.0  0.49363  0.72091  0.08042  1.0000
  H   H977      1.0  0.53075  0.66249  0.08149  1.0000
  H   H978      1.0  0.52204  0.65743  0.12015  1.0000
  H   H979      1.0  0.55843  0.57200  0.16477  1.0000
  N   N59       1.0  0.53372  0.55298  0.17843  1.0000
  C   C631      1.0  0.54873  0.53658  0.18682  1.0000
  C   C632      1.0  0.51484  0.54318  0.17156  1.0000
  C   C633      1.0  0.52716  0.56777  0.19518  1.0000
  C   C634      1.0  0.38511  0.57340  0.14599  1.0000
  H   H980      1.0  0.54165  0.52784  0.20088  1.0000
  H   H981      1.0  0.58858  0.69245  0.02203  1.0000
  H   H982      1.0  0.50643  0.53470  0.18504  1.0000
  H   H983      1.0  0.51904  0.53182  0.15895  1.0000
  H   H984      1.0  0.50330  0.55535  0.16522  1.0000
  H   H985      1.0  0.51856  0.55990  0.20893  1.0000
  H   H986      1.0  0.51660  0.58075  0.18912  1.0000
  H   H987      1.0  0.54080  0.57527  0.20111  1.0000
  C   C635      1.0  0.57139  0.71347  0.30961  1.0000
  C   C636      1.0  0.57629  0.70538  0.02442  1.0000
  C   C637      1.0  0.56373  0.73501  0.04500  1.0000
  H   H988      1.0  0.38856  0.55666  0.10739  1.0000
  N   N60       1.0  0.48252  0.71890  0.20486  1.0000
  N   N61       1.0  0.37609  0.55383  0.13967  1.0000
  H   H989      1.0  0.40640  0.53710  0.13668  1.0000
  C   C638      1.0  0.39055  0.53564  0.14491  1.0000
  H   H990      1.0  0.58290  0.71333  0.07629  1.0000
  H   H991      1.0  0.56278  0.74502  0.03020  1.0000
  H   H992      1.0  0.61412  0.71495  0.03730  1.0000
  H   H993      1.0  0.56317  0.54363  0.19195  1.0000
  H   H994      1.0  0.38727  0.57296  0.16337  1.0000
  H   H995      1.0  0.37466  0.58751  0.14227  1.0000
  C   C639      1.0  0.48034  0.73442  0.18695  1.0000
  H   H996      1.0  0.56666  0.74542  0.05805  1.0000
  H   H997      1.0  0.54794  0.72850  0.04861  1.0000
  C   C640      1.0  0.58009  0.70429  0.06216  1.0000
  C   C641      1.0  0.50399  0.70875  0.20355  1.0000
  H   H998      1.0  0.45042  0.70974  0.20466  1.0000
  H   H999      1.0  0.49088  0.74146  0.22689  1.0000
  H   H1000     1.0  0.46812  0.69068  0.21706  1.0000
  H   H1001     1.0  0.57603  0.71532  0.00946  1.0000
  S   S255      1.0  0.33739  0.51205  0.18879  1.0000
  H   H1002     1.0  0.46303  0.73766  0.22661  1.0000
  H   H1003     1.0  0.48013  0.71802  0.23890  1.0000
  H   H1004     1.0  0.40087  0.57574  0.13782  1.0000
  H   H1005     1.0  0.51627  0.72024  0.20533  1.0000
  H   H1006     1.0  0.57000  0.69652  0.30653  1.0000
  H   H1007     1.0  0.55742  0.74989  0.32666  1.0000
  H   H1008     1.0  0.55399  0.52502  0.17468  1.0000
  H   H1009     1.0  0.53334  0.57753  0.15390  1.0000
  H   H1010     1.0  0.39283  0.53425  0.16221  1.0000
  H   H1011     1.0  0.50753  0.70131  0.18807  1.0000
  H   H1012     1.0  0.46915  0.69428  0.18866  1.0000
  C   C642      1.0  0.37326  0.55488  0.11664  1.0000
  N   N62       1.0  0.58035  0.71799  0.04266  1.0000
  S   S256      1.0  0.52233  0.75036  0.29995  1.0000
  H   H1013     1.0  0.38427  0.52060  0.14026  1.0000
  H   H1014     1.0  0.55954  0.72258  0.30014  1.0000
  H   H1015     1.0  0.48294  0.72665  0.17146  1.0000
  C   C643      1.0  0.46684  0.70271  0.20376  1.0000
  H   H1016     1.0  0.59235  0.69118  0.06100  1.0000
  H   H1017     1.0  0.49207  0.74677  0.18719  1.0000
  H   H1018     1.0  0.50580  0.69614  0.21612  1.0000
  H   H1019     1.0  0.36639  0.54023  0.11159  1.0000
  C   C644      1.0  0.35540  0.55127  0.15122  1.0000
  H   H1020     1.0  0.54888  0.55402  0.14706  1.0000
  Fe  Fe129     1.0  0.37014  0.51313  0.20068  1.0000
  H   H1021     1.0  0.56076  0.69799  0.02676  1.0000
  H   H1022     1.0  0.56450  0.69707  0.06524  1.0000
  C   C645      1.0  0.47897  0.72954  0.22517  1.0000
  H   H1023     1.0  0.36239  0.56840  0.11207  1.0000
  C   C646      1.0  0.60113  0.72732  0.03898  1.0000
  H   H1024     1.0  0.35692  0.55058  0.16867  1.0000
  H   H1025     1.0  0.60459  0.73730  0.05223  1.0000
  H   H1026     1.0  0.60174  0.73755  0.02421  1.0000
  H   H1027     1.0  0.34399  0.56460  0.14751  1.0000
  H   H1028     1.0  0.53407  0.71979  0.33156  1.0000
  S   S257      1.0  0.48114  0.72428  0.00669  1.0000
  H   H1029     1.0  0.34828  0.53647  0.14706  1.0000
  N   N63       1.0  0.56791  0.71752  0.33240  1.0000
  H   H1030     1.0  0.58514  0.74591  0.33020  1.0000
  C   C647      1.0  0.56935  0.74027  0.33557  1.0000
  Fe  Fe130     1.0  0.64144  0.50193  0.21232  1.0000
  C   C648      1.0  0.48530  0.71972  0.65425  1.0000
  H   H1031     1.0  0.42962  0.74918  0.59552  1.0000
  H   H1032     1.0  0.54495  0.69385  0.33769  1.0000
  H   H1033     1.0  0.58205  0.75070  0.63106  1.0000
  H   H1034     1.0  0.60487  0.74096  0.64451  1.0000
  H   H1035     1.0  0.48986  0.70497  0.64592  1.0000
  H   H1036     1.0  0.44406  0.72268  0.64704  1.0000
  H   H1037     1.0  0.54361  0.71363  0.35727  1.0000
  H   H1038     1.0  0.58199  0.70848  0.36166  1.0000
  H   H1039     1.0  0.56661  0.74390  0.35257  1.0000
  H   H1040     1.0  0.48120  0.73218  0.64203  1.0000
  H   H1041     1.0  0.58348  0.68827  0.34252  1.0000
  H   H1042     1.0  0.49951  0.72459  0.66189  1.0000
  C   C649      1.0  0.58415  0.70553  0.34441  1.0000
  H   H1043     1.0  0.60032  0.71018  0.33903  1.0000
  C   C650      1.0  0.54674  0.71086  0.34009  1.0000
  H   H1044     1.0  0.58922  0.75145  0.58189  1.0000
  H   H1045     1.0  0.45241  0.69540  0.65097  1.0000
  H   H1046     1.0  0.45675  0.74933  0.66907  1.0000
  N   N64       1.0  0.46746  0.71669  0.67001  1.0000
  C   C651      1.0  0.44895  0.71041  0.65919  1.0000
  H   H1047     1.0  0.41402  0.51641  0.76556  1.0000
  S   S258      1.0  0.38862  0.54733  0.79219  1.0000
  H   H1048     1.0  0.46067  0.69773  0.69842  1.0000
  Fe  Fe131     1.0  0.50139  0.65642  0.79263  1.0000
  S   S259      1.0  0.48431  0.65270  0.82505  1.0000
  S   S260      1.0  0.49035  0.68603  0.77278  1.0000
  Fe  Fe132     1.0  0.53159  0.61773  0.80201  1.0000
  S   S261      1.0  0.51739  0.61258  0.83499  1.0000
  S   S262      1.0  0.55656  0.59532  0.78615  1.0000
  Fe  Fe133     1.0  0.48599  0.61765  0.82006  1.0000
  S   S263      1.0  0.46194  0.59390  0.83312  1.0000
  Fe  Fe134     1.0  0.51665  0.64788  0.83751  1.0000
  S   S264      1.0  0.52997  0.66599  0.86392  1.0000
  S   S265      1.0  0.50022  0.62160  0.78675  1.0000
  S   S266      1.0  0.53369  0.65271  0.80536  1.0000
  N   N65       1.0  0.44179  0.50247  0.77950  1.0000
  S   S267      1.0  0.63220  0.54055  0.82720  1.0000
  Fe  Fe135     1.0  0.37230  0.51658  0.80006  1.0000
  H   H1049     1.0  0.57334  0.53307  0.82367  1.0000
  H   H1050     1.0  0.65463  0.52696  0.86297  1.0000
  H   H1051     1.0  0.66312  0.55911  0.89417  1.0000
  Fe  Fe136     1.0  0.50211  0.72261  0.97648  1.0000
  S   S268      1.0  0.48845  0.70718  0.94841  1.0000
  C   C652      1.0  0.57708  0.57983  0.79815  1.0000
  C   C653      1.0  0.58178  0.58198  0.81923  1.0000
  C   C654      1.0  0.59873  0.56987  0.82782  1.0000
  C   C655      1.0  0.61096  0.55526  0.81557  1.0000
  C   C656      1.0  0.60608  0.55289  0.79460  1.0000
  C   C657      1.0  0.58928  0.56515  0.78595  1.0000
  H   H1052     1.0  0.57259  0.59325  0.82878  1.0000
  H   H1053     1.0  0.60238  0.57193  0.84404  1.0000
  H   H1054     1.0  0.61554  0.54200  0.78484  1.0000
  H   H1055     1.0  0.58587  0.56348  0.76959  1.0000
  C   C658      1.0  0.51802  0.67712  0.88741  1.0000
  C   C659      1.0  0.49626  0.67715  0.89245  1.0000
  C   C660      1.0  0.48758  0.68641  0.91113  1.0000
  C   C661      1.0  0.50046  0.69570  0.92510  1.0000
  C   C662      1.0  0.52219  0.69581  0.91997  1.0000
  C   C663      1.0  0.53086  0.68663  0.90123  1.0000
  H   H1056     1.0  0.48615  0.66989  0.88205  1.0000
  H   H1057     1.0  0.47076  0.68614  0.91492  1.0000
  H   H1058     1.0  0.53234  0.70287  0.93047  1.0000
  H   H1059     1.0  0.54771  0.68671  0.89756  1.0000
  C   C664      1.0  0.40945  0.55952  0.80366  1.0000
  C   C665      1.0  0.41907  0.57637  0.79240  1.0000
  C   C666      1.0  0.43554  0.58673  0.80088  1.0000
  C   C667      1.0  0.44231  0.58057  0.82093  1.0000
  C   C668      1.0  0.43271  0.56364  0.83216  1.0000
  C   C669      1.0  0.41650  0.55304  0.82353  1.0000
  H   H1060     1.0  0.41371  0.58156  0.77703  1.0000
  H   H1061     1.0  0.44267  0.59978  0.79212  1.0000
  H   H1062     1.0  0.43782  0.55882  0.84772  1.0000
  H   H1063     1.0  0.40927  0.54014  0.83241  1.0000
  C   C670      1.0  0.51544  0.72826  0.71586  1.0000
  C   C671      1.0  0.49657  0.73369  0.72740  1.0000
  C   C672      1.0  0.48922  0.72054  0.74461  1.0000
  C   C673      1.0  0.50065  0.70188  0.75080  1.0000
  C   C674      1.0  0.51967  0.69662  0.73946  1.0000
  C   C675      1.0  0.52693  0.70966  0.72211  1.0000
  H   H1064     1.0  0.60012  0.50989  0.80378  1.0000
  H   H1065     1.0  0.47456  0.72493  0.75331  1.0000
  H   H1066     1.0  0.52871  0.68237  0.74393  1.0000
  H   H1067     1.0  0.54156  0.70520  0.71342  1.0000
  H   H1068     1.0  0.51709  0.74070  0.84503  1.0000
  H   H1069     1.0  0.37133  0.56643  0.83838  1.0000
  H   H1070     1.0  0.54169  0.70922  0.84892  1.0000
  H   H1071     1.0  0.34145  0.58206  0.87470  1.0000
  H   H1072     1.0  0.65557  0.56474  0.86749  1.0000
  H   H1073     1.0  0.43514  0.70816  0.67061  1.0000
  N   N66       1.0  0.34741  0.55263  0.85946  1.0000
  H   H1074     1.0  0.53205  0.74959  0.82160  1.0000
  H   H1075     1.0  0.47275  0.75020  0.94065  1.0000
  C   C676      1.0  0.35994  0.53265  0.86281  1.0000
  H   H1076     1.0  0.37718  0.53514  0.86202  1.0000
  C   C677      1.0  0.51905  0.73942  0.82752  1.0000
  H   H1077     1.0  0.41872  0.51260  0.80357  1.0000
  C   C678      1.0  0.46207  0.73666  0.68058  1.0000
  H   H1078     1.0  0.54714  0.69236  0.82725  1.0000
  H   H1079     1.0  0.49094  0.70964  0.82249  1.0000
  H   H1080     1.0  0.34510  0.57788  0.83573  1.0000
  C   C679      1.0  0.44321  0.74217  0.97141  1.0000
  S   S269      1.0  0.52514  0.74365  0.69324  1.0000
  H   H1081     1.0  0.47753  0.68474  0.67861  1.0000
  S   S270      1.0  0.53117  0.71505  0.99440  1.0000
  C   C680      1.0  0.35060  0.56677  0.87676  1.0000
  N   N67       1.0  0.52362  0.71731  0.82176  1.0000
  H   H1082     1.0  0.46449  0.52269  0.79068  1.0000
  H   H1083     1.0  0.46146  0.52489  0.76257  1.0000
  H   H1084     1.0  0.55698  0.71838  0.82574  1.0000
  C   C681      1.0  0.50594  0.70449  0.82985  1.0000
  H   H1085     1.0  0.35564  0.52490  0.87848  1.0000
  C   C682      1.0  0.52618  0.71621  0.79846  1.0000
  H   H1086     1.0  0.52931  0.69966  0.79359  1.0000
  H   H1087     1.0  0.55315  0.52140  0.84059  1.0000
  H   H1088     1.0  0.50928  0.68771  0.82627  1.0000
  H   H1089     1.0  0.42805  0.73698  0.97913  1.0000
  C   C683      1.0  0.35433  0.56284  0.83894  1.0000
  H   H1090     1.0  0.43361  0.50544  0.74697  1.0000
  H   H1091     1.0  0.50332  0.70504  0.84738  1.0000
  C   C684      1.0  0.45286  0.52239  0.77825  1.0000
  H   H1092     1.0  0.48767  0.74808  0.72323  1.0000
  H   H1093     1.0  0.44155  0.53622  0.78053  1.0000
  C   C685      1.0  0.42607  0.50320  0.76317  1.0000
  H   H1094     1.0  0.48768  0.70434  0.69416  1.0000
  C   C686      1.0  0.54325  0.70906  0.83128  1.0000
  Fe  Fe137     1.0  0.64913  0.50993  0.81632  1.0000
  H   H1095     1.0  0.45372  0.72782  0.96906  1.0000
  H   H1096     1.0  0.36755  0.57028  0.87731  1.0000
  Fe  Fe138     1.0  0.53540  0.74997  0.99465  1.0000
  H   H1097     1.0  0.53949  0.72552  0.79170  1.0000
  C   C687      1.0  0.43285  0.73984  0.93568  1.0000
  H   H1098     1.0  0.35700  0.52127  0.85066  1.0000
  H   H1099     1.0  0.51161  0.72225  0.79076  1.0000
  H   H1100     1.0  0.44480  0.72662  0.93268  1.0000
  C   C688      1.0  0.47356  0.70013  0.68596  1.0000
  H   H1101     1.0  0.44916  0.73489  0.69313  1.0000
  H   H1102     1.0  0.41782  0.73275  0.94148  1.0000
  H   H1103     1.0  0.34547  0.55956  0.89247  1.0000
  H   H1104     1.0  0.50424  0.74601  0.82068  1.0000
  H   H1105     1.0  0.58377  0.74539  0.67910  1.0000
  H   H1106     1.0  0.66385  0.52022  0.88877  1.0000
  S   S271      1.0  0.33739  0.51550  0.80707  1.0000
  H   H1107     1.0  0.55239  0.52069  0.81226  1.0000
  H   H1108     1.0  0.35239  0.55256  0.82550  1.0000
  H   H1109     1.0  0.60075  0.51157  0.84219  1.0000
  C   C689      1.0  0.56304  0.51942  0.82563  1.0000
  H   H1110     1.0  0.47594  0.74225  0.68821  1.0000
  H   H1111     1.0  0.43021  0.74828  0.92022  1.0000
  C   C690      1.0  0.40138  0.77157  0.01143  1.0000
  C   C691      1.0  0.55463  0.92880  0.21816  1.0000
  H   H1112     1.0  0.57121  0.96171  0.23346  1.0000
  C   C692      1.0  0.37738  0.93181  0.16441  1.0000
  C   C693      1.0  0.40105  0.98959  0.18553  1.0000
  H   H1113     1.0  0.57092  0.90554  0.25012  1.0000
  Fe  Fe139     1.0  0.51804  0.95651  0.26672  1.0000
  S   S272      1.0  0.50919  0.96089  0.23287  1.0000
  S   S273      1.0  0.53286  0.92412  0.27658  1.0000
  H   H1114     1.0  0.36120  0.92778  0.16071  1.0000
  H   H1115     1.0  0.48092  0.89104  0.32736  1.0000
  Fe  Fe140     1.0  0.34854  0.98810  0.16109  1.0000
  S   S274      1.0  0.38388  0.99291  0.16417  1.0000
  S   S275      1.0  0.53932  0.98396  0.26498  1.0000
  S   S276      1.0  0.48998  0.97646  0.27849  1.0000
  S   S277      1.0  0.51614  0.75443  0.02530  1.0000
  S   S278      1.0  0.44670  0.98275  0.24012  1.0000
  H   H1116     1.0  0.40387  0.90657  0.12392  1.0000
  H   H1117     1.0  0.56685  0.94328  0.25514  1.0000
  H   H1118     1.0  0.58467  0.98684  0.16846  1.0000
  S   S279      1.0  0.64033  0.80926  0.02666  1.0000
  C   C694      1.0  0.60073  0.79384  0.02538  1.0000
  S   S280      1.0  0.46340  0.78688  0.00703  1.0000
  H   H1119     1.0  0.59730  0.80185  0.04002  1.0000
  H   H1120     1.0  0.60756  0.93440  0.21194  1.0000
  H   H1121     1.0  0.58165  0.89567  0.22538  1.0000
  H   H1122     1.0  0.38236  0.92095  0.17765  1.0000
  C   C695      1.0  0.50785  0.86981  0.32049  1.0000
  C   C696      1.0  0.59267  0.99040  0.18238  1.0000
  C   C697      1.0  0.62110  0.79450  0.01532  1.0000
  Fe  Fe141     1.0  0.48242  0.98295  0.24429  1.0000
  C   C698      1.0  0.42277  0.99257  0.18142  1.0000
  S   S281      1.0  0.53816  0.79557  0.33268  1.0000
  C   C699      1.0  0.58080  0.99358  0.20159  1.0000
  C   C700      1.0  0.58459  0.78334  0.01644  1.0000
  C   C701      1.0  0.38501  0.94499  0.12855  1.0000
  H   H1123     1.0  0.54966  0.94404  0.21009  1.0000
  C   C702      1.0  0.39380  0.98413  0.20625  1.0000
  C   C703      1.0  0.62535  0.99670  0.19874  1.0000
  C   C704      1.0  0.59113  0.93336  0.20706  1.0000
  H   H1124     1.0  0.54958  0.88229  0.28667  1.0000
  H   H1125     1.0  0.41322  0.95193  0.15694  1.0000
  C   C705      1.0  0.42975  0.98502  0.21853  1.0000
  S   S282      1.0  0.36266  0.79119  0.00443  1.0000
  Fe  Fe142     1.0  0.51561  0.76940  0.33031  1.0000
  H   H1126     1.0  0.41933  0.92481  0.16424  1.0000
  H   H1127     1.0  0.42860  0.99686  0.16548  1.0000
  C   C706      1.0  0.49590  0.88903  0.31845  1.0000
  C   C707      1.0  0.50314  0.90573  0.30495  1.0000
  C   C708      1.0  0.52256  0.90346  0.29342  1.0000
  C   C709      1.0  0.53451  0.88424  0.29545  1.0000
  C   C710      1.0  0.52719  0.86748  0.30883  1.0000
  S   S283      1.0  0.34045  0.98204  0.12767  1.0000
  H   H1128     1.0  0.49378  0.92038  0.30359  1.0000
  H   H1129     1.0  0.58677  0.94852  0.19854  1.0000
  H   H1130     1.0  0.36895  0.94153  0.12399  1.0000
  N   N68       1.0  0.39221  0.93018  0.14560  1.0000
  H   H1131     1.0  0.39577  0.94412  0.11406  1.0000
  H   H1132     1.0  0.66443  0.91049  0.08693  1.0000
  C   C711      1.0  0.41344  0.93554  0.15129  1.0000
  C   C712      1.0  0.57699  0.94635  0.24051  1.0000
  H   H1133     1.0  0.43155  0.75520  0.01637  1.0000
  H   H1134     1.0  0.39258  0.75752  0.01427  1.0000
  H   H1135     1.0  0.56893  0.78340  0.02418  1.0000
  C   C713      1.0  0.43522  0.78810  0.00839  1.0000
  H   H1136     1.0  0.34099  0.88293  0.11099  1.0000
  C   C714      1.0  0.58207  0.90892  0.23621  1.0000
  H   H1137     1.0  0.37635  0.94806  0.17038  1.0000
  H   H1138     1.0  0.42510  0.93455  0.13749  1.0000
  H   H1139     1.0  0.53659  0.85285  0.31026  1.0000
  H   H1140     1.0  0.59119  0.92072  0.19547  1.0000
  H   H1141     1.0  0.38428  0.96156  0.13358  1.0000
  H   H1142     1.0  0.59329  0.94820  0.24536  1.0000
  H   H1143     1.0  0.54295  0.92582  0.23165  1.0000
  Fe  Fe143     1.0  0.52963  0.98893  0.23154  1.0000
  H   H1144     1.0  0.55343  0.91616  0.20677  1.0000
  H   H1145     1.0  0.37694  0.90415  0.13375  1.0000
  H   H1146     1.0  0.59821  0.90884  0.24212  1.0000
  H   H1147     1.0  0.39808  0.89677  0.15064  1.0000
  N   N69       1.0  0.57623  0.92934  0.22548  1.0000
  C   C715      1.0  0.39288  0.90843  0.13815  1.0000
  C   C716      1.0  0.43704  0.99026  0.19776  1.0000
  H   H1148     1.0  0.45363  0.99273  0.19429  1.0000
  S   S284      1.0  0.55296  0.99100  0.20255  1.0000
  H   H1149     1.0  0.40216  0.97792  0.23860  1.0000
  C   C717      1.0  0.61482  0.99177  0.18097  1.0000
  S   S285      1.0  0.65314  0.99952  0.19777  1.0000
  H   H1150     1.0  0.58249  0.00092  0.23427  1.0000
  H   H1151     1.0  0.62368  0.98937  0.16606  1.0000
  Fe  Fe144     1.0  0.48765  0.75879  0.00525  1.0000
  H   H1152     1.0  0.37719  0.98177  0.20975  1.0000
  C   C718      1.0  0.61348  0.99990  0.21795  1.0000
  C   C719      1.0  0.59137  0.99826  0.21942  1.0000
  C   C720      1.0  0.42354  0.77018  0.01246  1.0000
  C   C721      1.0  0.39045  0.79096  0.00698  1.0000
  C   C722      1.0  0.40804  0.98198  0.22262  1.0000
  C   C723      1.0  0.42427  0.80758  0.00431  1.0000
  Fe  Fe145     1.0  0.64216  0.80053  0.48019  1.0000
  S   S286      1.0  0.64636  0.76737  0.49400  1.0000
  S   S287      1.0  0.61977  0.81526  0.45583  1.0000
  Fe  Fe146     1.0  0.64196  0.78259  0.52575  1.0000
  S   S288      1.0  0.62129  0.76744  0.55252  1.0000
  S   S289      1.0  0.63638  0.81532  0.51197  1.0000
  Fe  Fe147     1.0  0.52444  0.80143  0.63515  1.0000
  S   S290      1.0  0.49227  0.81815  0.63528  1.0000
  S   S291      1.0  0.54733  0.81351  0.60874  1.0000
  H   H1153     1.0  0.46904  0.78893  0.56377  1.0000
  Fe  Fe148     1.0  0.47961  0.78604  0.64132  1.0000
  S   S292      1.0  0.45545  0.76910  0.62382  1.0000
  S   S293      1.0  0.51173  0.76929  0.63919  1.0000
  Fe  Fe149     1.0  0.54145  0.78411  0.36670  1.0000
  S   S294      1.0  0.51488  0.80564  0.37899  1.0000
  S   S295      1.0  0.57290  0.77489  0.38155  1.0000
  Fe  Fe150     1.0  0.49357  0.77939  0.37426  1.0000
  S   S296      1.0  0.47282  0.76956  0.40356  1.0000
  C   C724      1.0  0.49543  0.81701  0.57648  1.0000
  Fe  Fe151     1.0  0.37595  0.79258  0.52670  1.0000
  S   S297      1.0  0.36870  0.81734  0.50106  1.0000
  S   S298      1.0  0.39714  0.80623  0.55036  1.0000
  H   H1154     1.0  0.63269  0.88747  0.50630  1.0000
  Fe  Fe152     1.0  0.36965  0.79079  0.47877  1.0000
  S   S299      1.0  0.38144  0.79727  0.44434  1.0000
  C   C725      1.0  0.44725  0.77747  0.41439  1.0000
  C   C726      1.0  0.44283  0.77474  0.43636  1.0000
  C   C727      1.0  0.42279  0.78059  0.44575  1.0000
  C   C728      1.0  0.40684  0.78921  0.43323  1.0000
  H   H1155     1.0  0.49086  0.77823  0.59386  1.0000
  C   C729      1.0  0.43119  0.78583  0.40182  1.0000
  C   C730      1.0  0.64948  0.85968  0.46324  1.0000
  H   H1156     1.0  0.41967  0.77834  0.46267  1.0000
  C   C731      1.0  0.41357  0.79529  0.57036  1.0000
  C   C732      1.0  0.42485  0.80902  0.58178  1.0000
  C   C733      1.0  0.43776  0.80129  0.59809  1.0000
  C   C734      1.0  0.43960  0.77967  0.60319  1.0000
  C   C735      1.0  0.42841  0.76593  0.59172  1.0000
  C   C736      1.0  0.41550  0.77366  0.57538  1.0000
  H   H1157     1.0  0.42342  0.82579  0.57814  1.0000
  H   H1158     1.0  0.44593  0.81212  0.60698  1.0000
  H   H1159     1.0  0.47962  0.85916  0.40846  1.0000
  H   H1160     1.0  0.62231  0.90613  0.47251  1.0000
  C   C737      1.0  0.60024  0.78043  0.56737  1.0000
  C   C738      1.0  0.58682  0.76843  0.58109  1.0000
  C   C739      1.0  0.57030  0.77822  0.59362  1.0000
  C   C740      1.0  0.56729  0.80018  0.59281  1.0000
  C   C741      1.0  0.58052  0.81214  0.57895  1.0000
  C   C742      1.0  0.59687  0.80235  0.56625  1.0000
  H   H1161     1.0  0.46471  0.81067  0.38432  1.0000
  H   H1162     1.0  0.55994  0.76879  0.60385  1.0000
  H   H1163     1.0  0.57828  0.82914  0.57814  1.0000
  H   H1164     1.0  0.60709  0.81177  0.55583  1.0000
  C   C743      1.0  0.60601  0.80306  0.43625  1.0000
  C   C744      1.0  0.58931  0.81452  0.42660  1.0000
  C   C745      1.0  0.57857  0.80593  0.41035  1.0000
  C   C746      1.0  0.58468  0.78587  0.40320  1.0000
  C   C747      1.0  0.60135  0.77441  0.41289  1.0000
  C   C748      1.0  0.61181  0.78282  0.42943  1.0000
  H   H1165     1.0  0.58470  0.83021  0.43163  1.0000
  H   H1166     1.0  0.56590  0.81502  0.40300  1.0000
  C   C749      1.0  0.34229  0.86166  0.58359  1.0000
  H   H1167     1.0  0.62467  0.77382  0.43656  1.0000
  H   H1168     1.0  0.46580  0.98680  0.66599  1.0000
  N   N70       1.0  0.59064  0.77018  0.65575  1.0000
  H   H1169     1.0  0.66541  0.86601  0.46032  1.0000
  N   N71       1.0  0.63502  0.87419  0.47548  1.0000
  C   C750      1.0  0.47921  0.84570  0.39791  1.0000
  H   H1170     1.0  0.56157  0.75542  0.66490  1.0000
  C   C751      1.0  0.35367  0.84641  0.55037  1.0000
  C   C752      1.0  0.44336  0.83871  0.40978  1.0000
  H   H1171     1.0  0.34671  0.86024  0.54137  1.0000
  H   H1172     1.0  0.44260  0.85172  0.42101  1.0000
  C   C753      1.0  0.45810  0.82546  0.37670  1.0000
  N   N72       1.0  0.34201  0.84269  0.57098  1.0000
  H   H1173     1.0  0.35875  0.86551  0.58642  1.0000
  H   H1174     1.0  0.35383  0.83337  0.45351  1.0000
  H   H1175     1.0  0.57602  0.80130  0.65923  1.0000
  S   S300      1.0  0.34160  0.78726  0.53515  1.0000
  H   H1176     1.0  0.42702  0.83642  0.40520  1.0000
  H   H1177     1.0  0.39885  0.79814  0.40134  1.0000
  C   C754      1.0  0.50514  0.78021  0.58300  1.0000
  H   H1178     1.0  0.49229  0.82992  0.56447  1.0000
  H   H1179     1.0  0.50826  0.82192  0.58615  1.0000
  C   C755      1.0  0.64350  0.87714  0.49633  1.0000
  H   H1180     1.0  0.50946  0.76471  0.57602  1.0000
  H   H1181     1.0  0.60740  0.86225  0.46308  1.0000
  H   H1182     1.0  0.33842  0.90410  0.49503  1.0000
  H   H1183     1.0  0.51841  0.81142  0.53978  1.0000
  H   H1184     1.0  0.52581  0.78408  0.54494  1.0000
  H   H1185     1.0  0.43399  0.78704  0.38481  1.0000
  H   H1186     1.0  0.48524  0.83128  0.40672  1.0000
  H   H1187     1.0  0.56486  0.78593  0.64013  1.0000
  H   H1188     1.0  0.53408  0.80367  0.56176  1.0000
  H   H1189     1.0  0.40694  0.76288  0.56680  1.0000
  H   H1190     1.0  0.62678  0.89305  0.44789  1.0000
  H   H1191     1.0  0.34380  0.82106  0.59806  1.0000
  C   C756      1.0  0.33989  0.84341  0.45913  1.0000
  N   N73       1.0  0.45771  0.84317  0.39104  1.0000
  H   H1192     1.0  0.48097  0.81579  0.58720  1.0000
  H   H1193     1.0  0.64593  0.86185  0.50536  1.0000
  C   C757      1.0  0.60997  0.77576  0.66560  1.0000
  H   H1194     1.0  0.48032  0.80325  0.54117  1.0000
  H   H1195     1.0  0.50717  0.98450  0.63861  1.0000
  H   H1196     1.0  0.36895  0.82725  0.58526  1.0000
  H   H1197     1.0  0.49055  0.84866  0.38409  1.0000
  H   H1198     1.0  0.44971  0.87648  0.38995  1.0000
  Fe  Fe153     1.0  0.34399  0.76258  0.51037  1.0000
  H   H1199     1.0  0.37061  0.84910  0.55232  1.0000
  H   H1200     1.0  0.60630  0.75893  0.40749  1.0000
  H   H1201     1.0  0.45500  0.76797  0.44621  1.0000
  C   C758      1.0  0.61402  0.86518  0.47853  1.0000
  H   H1202     1.0  0.64331  0.85662  0.44762  1.0000
  H   H1203     1.0  0.51261  0.95659  0.64239  1.0000
  H   H1204     1.0  0.64871  0.90194  0.46114  1.0000
  C   C759      1.0  0.52072  0.79910  0.55259  1.0000
  H   H1205     1.0  0.60666  0.76299  0.62575  1.0000
  C   C760      1.0  0.41118  0.79184  0.41122  1.0000
  H   H1206     1.0  0.48618  0.96666  0.63806  1.0000
  H   H1207     1.0  0.65905  0.88449  0.49464  1.0000
  S   S301      1.0  0.37932  0.76621  0.50362  1.0000
  C   C761      1.0  0.35219  0.82449  0.58246  1.0000
  H   H1208     1.0  0.60253  0.87573  0.48750  1.0000
  H   H1209     1.0  0.58982  0.79727  0.63400  1.0000
  C   C762      1.0  0.63310  0.89475  0.46373  1.0000
  H   H1210     1.0  0.35328  0.83257  0.54040  1.0000
  H   H1211     1.0  0.62106  0.78359  0.65381  1.0000
  H   H1212     1.0  0.61491  0.84967  0.48739  1.0000
  S   S302      1.0  0.49803  0.84958  0.33820  1.0000
  H   H1213     1.0  0.65137  0.84410  0.47177  1.0000
  C   C763      1.0  0.45025  0.86272  0.37967  1.0000
  H   H1214     1.0  0.46803  0.82856  0.36200  1.0000
  N   N74       1.0  0.50128  0.79682  0.56641  1.0000
  H   H1215     1.0  0.43419  0.86125  0.37399  1.0000
  H   H1216     1.0  0.46095  0.86639  0.36548  1.0000
  H   H1217     1.0  0.44868  0.82398  0.41858  1.0000
  H   H1218     1.0  0.48779  0.77586  0.54578  1.0000
  H   H1219     1.0  0.34047  0.86522  0.50129  1.0000
  C   C764      1.0  0.50081  0.96974  0.64597  1.0000
  S   S303      1.0  0.52056  0.75702  0.36366  1.0000
  C   C765      1.0  0.48387  0.79097  0.55371  1.0000
  H   H1220     1.0  0.35250  0.80997  0.57323  1.0000
  H   H1221     1.0  0.44204  0.82253  0.37181  1.0000
  N   N75       1.0  0.49659  0.97146  0.66905  1.0000
  H   H1222     1.0  0.51827  0.78411  0.59275  1.0000
  C   C766      1.0  0.59632  0.75556  0.63854  1.0000
  C   C767      1.0  0.57992  0.78951  0.64692  1.0000
  H   H1223     1.0  0.34434  0.84201  0.41689  1.0000
  H   H1224     1.0  0.34533  0.85950  0.46116  1.0000
  Fe  Fe154     1.0  0.50980  0.81526  0.34481  1.0000
  S   S304      1.0  0.48687  0.78991  0.34065  1.0000
  H   H1225     1.0  0.33603  0.86834  0.42415  1.0000
  S   S305      1.0  0.52784  0.80404  0.67026  1.0000
  H   H1226     1.0  0.64055  0.82172  0.98071  1.0000
  C   C768      1.0  0.60913  0.77359  0.98747  1.0000
  S   S306      1.0  0.47922  0.78799  0.67687  1.0000
  S   S307      1.0  0.48271  0.84744  0.68991  1.0000
  C   C769      1.0  0.43300  0.98301  0.80013  1.0000
  C   C770      1.0  0.61611  0.86010  0.95086  1.0000
  C   C771      1.0  0.57626  0.75997  0.67187  1.0000
  H   H1227     1.0  0.52432  0.86451  0.67845  1.0000
  S   S308      1.0  0.45931  0.97237  0.79532  1.0000
  H   H1228     1.0  0.46819  0.88158  0.71629  1.0000
  Fe  Fe155     1.0  0.51530  0.95895  0.73581  1.0000
  S   S309      1.0  0.51440  0.95840  0.77139  1.0000
  S   S310      1.0  0.52542  0.93189  0.71385  1.0000
  Fe  Fe156     1.0  0.48501  0.98000  0.76957  1.0000
  C   C772      1.0  0.42399  0.77154  0.95478  1.0000
  H   H1229     1.0  0.63285  0.81959  0.95410  1.0000
  H   H1230     1.0  0.38893  0.97312  0.83239  1.0000
  S   S311      1.0  0.48471  0.97827  0.73415  1.0000
  S   S312      1.0  0.53565  0.98727  0.73274  1.0000
  H   H1231     1.0  0.35164  0.90867  0.92303  1.0000
  H   H1232     1.0  0.65128  0.83862  0.95996  1.0000
  H   H1233     1.0  0.42550  0.95882  0.82394  1.0000
  H   H1234     1.0  0.62548  0.96282  0.77679  1.0000
  C   C773      1.0  0.62526  0.78406  0.99641  1.0000
  C   C774      1.0  0.51644  0.97542  0.67886  1.0000
  C   C775      1.0  0.62555  0.98160  0.80430  1.0000
  H   H1235     1.0  0.58579  0.84699  0.97899  1.0000
  H   H1236     1.0  0.42933  0.78287  0.96597  1.0000
  H   H1237     1.0  0.47744  0.99085  0.69048  1.0000
  H   H1238     1.0  0.51382  0.97656  0.69626  1.0000
  C   C776      1.0  0.39892  0.98107  0.82047  1.0000
  H   H1239     1.0  0.63067  0.86859  0.94602  1.0000
  H   H1240     1.0  0.62006  0.00151  0.83085  1.0000
  C   C777      1.0  0.50247  0.98604  0.85946  1.0000
  H   H1241     1.0  0.65610  0.99056  0.93766  1.0000
  C   C778      1.0  0.63666  0.83092  0.96601  1.0000
  H   H1242     1.0  0.61255  0.76563  0.97280  1.0000
  S   S313      1.0  0.65291  0.97517  0.80796  1.0000
  C   C779      1.0  0.50798  0.97710  0.82290  1.0000
  H   H1243     1.0  0.57127  0.77067  0.68493  1.0000
  H   H1244     1.0  0.54027  0.89733  0.68825  1.0000
  H   H1245     1.0  0.58755  0.97076  0.77053  1.0000
  H   H1246     1.0  0.52432  0.97053  0.82529  1.0000
  C   C780      1.0  0.49512  0.87062  0.69666  1.0000
  C   C781      1.0  0.48396  0.88496  0.71012  1.0000
  C   C782      1.0  0.49301  0.90358  0.71583  1.0000
  C   C783      1.0  0.51341  0.90819  0.70804  1.0000
  C   C784      1.0  0.52451  0.89395  0.69444  1.0000
  C   C785      1.0  0.51551  0.87527  0.68884  1.0000
  C   C786      1.0  0.59952  0.83565  0.97620  1.0000
  H   H1247     1.0  0.48419  0.91431  0.72626  1.0000
  C   C787      1.0  0.61606  0.97304  0.78728  1.0000
  C   C788      1.0  0.41972  0.97301  0.81565  1.0000
  C   C789      1.0  0.48098  0.98912  0.67320  1.0000
  C   C790      1.0  0.48821  0.95156  0.67816  1.0000
  C   C791      1.0  0.61308  0.99477  0.81772  1.0000
  H   H1248     1.0  0.40877  0.76566  0.96178  1.0000
  H   H1249     1.0  0.60114  0.82585  0.99106  1.0000
  H   H1250     1.0  0.45852  0.77190  0.92786  1.0000
  N   N76       1.0  0.61908  0.84662  0.97018  1.0000
  N   N77       1.0  0.44003  0.75413  0.95123  1.0000
  H   H1251     1.0  0.64092  0.78396  0.98867  1.0000
  C   C792      1.0  0.58203  0.99066  0.79710  1.0000
  C   C793      1.0  0.59450  0.97752  0.78367  1.0000
  H   H1252     1.0  0.52862  0.96239  0.67620  1.0000
  C   C794      1.0  0.46020  0.76290  0.94317  1.0000
  H   H1253     1.0  0.50777  0.98302  0.80620  1.0000
  Fe  Fe157     1.0  0.33846  0.99618  0.83650  1.0000
  S   S314      1.0  0.50755  0.75727  0.97455  1.0000
  C   C795      1.0  0.42526  0.00136  0.78958  1.0000
  H   H1254     1.0  0.65944  0.90383  0.92445  1.0000
  H   H1255     1.0  0.51865  0.97975  0.86292  1.0000
  S   S315      1.0  0.56913  0.75965  0.98512  1.0000
  H   H1256     1.0  0.60298  0.87218  0.95336  1.0000
  H   H1257     1.0  0.60622  0.78678  0.67865  1.0000
  H   H1258     1.0  0.59558  0.82492  0.96376  1.0000
  H   H1259     1.0  0.42069  0.78058  0.93980  1.0000
  N   N78       1.0  0.50174  0.99425  0.83730  1.0000
  H   H1260     1.0  0.49158  0.97298  0.86271  1.0000
  C   C796      1.0  0.39119  0.99945  0.80998  1.0000
  H   H1261     1.0  0.46600  0.77378  0.95462  1.0000
  H   H1262     1.0  0.49957  0.93790  0.67517  1.0000
  C   C797      1.0  0.40203  0.80904  0.00367  1.0000
  H   H1263     1.0  0.61248  0.85060  0.93732  1.0000
  H   H1264     1.0  0.52310  0.99048  0.67271  1.0000
  C   C798      1.0  0.62415  0.85977  0.98767  1.0000
  H   H1265     1.0  0.49698  0.96399  0.82482  1.0000
  H   H1266     1.0  0.48535  0.95204  0.69567  1.0000
  Fe  Fe158     1.0  0.51201  0.77289  0.67448  1.0000
  S   S316      1.0  0.33676  0.99657  0.87203  1.0000
  H   H1267     1.0  0.33655  0.87903  0.94482  1.0000
  Fe  Fe159     1.0  0.53226  0.98816  0.76835  1.0000
  C   C799      1.0  0.58869  0.77317  0.99736  1.0000
  C   C800      1.0  0.59149  0.99922  0.81414  1.0000
  S   S317      1.0  0.55460  0.99678  0.79357  1.0000
  H   H1268     1.0  0.66763  0.99951  0.91257  1.0000
  H   H1269     1.0  0.46851  0.98980  0.83593  1.0000
  H   H1270     1.0  0.61123  0.87175  0.99139  1.0000
  H   H1271     1.0  0.39390  0.82407  0.00022  1.0000
  H   H1272     1.0  0.49780  0.99856  0.87080  1.0000
  H   H1273     1.0  0.63884  0.86826  0.98363  1.0000
  H   H1274     1.0  0.43307  0.82160  0.00132  1.0000
  H   H1275     1.0  0.62674  0.84999  0.00246  1.0000
  H   H1276     1.0  0.61851  0.76153  0.67240  1.0000
  H   H1277     1.0  0.45076  0.75183  0.98271  1.0000
  Fe  Fe160     1.0  0.49491  0.81909  0.67063  1.0000
  H   H1278     1.0  0.47305  0.94814  0.67146  1.0000
  Fe  Fe161     1.0  0.69369  0.11880  0.02139  1.0000
  H   H1279     1.0  0.87859  0.06601  0.22130  1.0000
  S   S318      1.0  0.69025  0.15432  0.02059  1.0000
  C   C801      1.0  0.77444  0.20481  0.02517  1.0000
  H   H1280     1.0  0.90437  0.02391  0.22004  1.0000
  S   S319      1.0  0.72410  0.02679  0.10885  1.0000
  H   H1281     1.0  0.72605  0.11512  0.05242  1.0000
  Fe  Fe162     1.0  0.97607  0.12533  0.31210  1.0000
  H   H1282     1.0  0.69125  0.02783  0.24304  1.0000
  S   S320      1.0  0.94499  0.10994  0.32205  1.0000
  C   C802      1.0  0.89437  0.02796  0.23446  1.0000
  H   H1283     1.0  0.71901  0.13183  0.10801  1.0000
  S   S321      1.0  0.98105  0.16033  0.30721  1.0000
  S   S322      1.0  0.83875  0.01873  0.30156  1.0000
  C   C803      1.0  0.86324  0.01573  0.21984  1.0000
  C   C804      1.0  0.98115  0.22270  0.23134  1.0000
  S   S323      1.0  0.89976  0.03135  0.28846  1.0000
  C   C805      1.0  0.93195  0.08872  0.31199  1.0000
  H   H1284     1.0  0.71167  0.11308  0.08976  1.0000
  C   C806      1.0  0.90624  0.06125  0.31814  1.0000
  C   C807      1.0  0.91140  0.05368  0.29797  1.0000
  C   C808      1.0  0.92669  0.06390  0.28479  1.0000
  C   C809      1.0  0.93679  0.08138  0.29166  1.0000
  H   H1285     1.0  0.85991  0.02537  0.26069  1.0000
  C   C810      1.0  0.96698  0.03769  0.32150  1.0000
  H   H1286     1.0  0.93073  0.05830  0.26910  1.0000
  H   H1287     1.0  0.94824  0.08925  0.28118  1.0000
  H   H1288     1.0  0.75379  0.16083  0.06840  1.0000
  H   H1289     1.0  0.71762  0.16194  0.05626  1.0000
  H   H1290     1.0  0.99880  0.20164  0.31310  1.0000
  C   C811      1.0  0.98730  0.20390  0.24266  1.0000
  H   H1291     1.0  0.69990  0.14189  0.06535  1.0000
  C   C812      1.0  0.87186  0.05219  0.21445  1.0000
  H   H1292     1.0  0.74354  0.15984  0.09551  1.0000
  H   H1293     1.0  0.85539  0.05692  0.21045  1.0000
  C   C813      1.0  0.98973  0.06156  0.30150  1.0000
  H   H1294     1.0  0.79672  0.22853  0.03034  1.0000
  C   C814      1.0  0.85980  0.03896  0.24911  1.0000
  C   C815      1.0  0.69379  0.07981  0.06678  1.0000
  C   C816      1.0  0.71423  0.07146  0.06183  1.0000
  C   C817      1.0  0.72320  0.05524  0.07488  1.0000
  C   C818      1.0  0.71172  0.04683  0.09274  1.0000
  C   C819      1.0  0.69109  0.05476  0.09735  1.0000
  C   C820      1.0  0.68228  0.07129  0.08455  1.0000
  H   H1295     1.0  0.72323  0.07761  0.04809  1.0000
  H   H1296     1.0  0.70068  0.00287  0.27305  1.0000
  C   C821      1.0  0.72476  0.12286  0.09393  1.0000
  H   H1297     1.0  0.86627  0.05231  0.25702  1.0000
  N   N79       1.0  0.73138  0.13710  0.07593  1.0000
  C   C822      1.0  0.78886  0.22042  0.01867  1.0000
  C   C823      1.0  0.99411  0.23117  0.21452  1.0000
  H   H1298     1.0  0.73917  0.04918  0.07115  1.0000
  H   H1299     1.0  0.90162  0.04107  0.24203  1.0000
  N   N80       1.0  0.98687  0.04874  0.32143  1.0000
  H   H1300     1.0  0.72824  0.01434  0.24572  1.0000
  C   C824      1.0  0.74861  0.14997  0.08186  1.0000
  C   C825      1.0  0.73890  0.12442  0.05774  1.0000
  H   H1301     1.0  0.97762  0.07478  0.30068  1.0000
  H   H1302     1.0  0.87232  0.01116  0.20504  1.0000
  S   S324      1.0  0.74627  0.17394  0.01962  1.0000
  S   S325      1.0  0.70878  0.00762  0.17087  1.0000
  H   H1303     1.0  0.77140  0.20116  0.04187  1.0000
  H   H1304     1.0  0.97689  0.19754  0.25522  1.0000
  H   H1305     1.0  0.98754  0.22222  0.29630  1.0000
  H   H1306     1.0  0.96678  0.02746  0.30770  1.0000
  H   H1307     1.0  0.68206  0.04851  0.11104  1.0000
  H   H1308     1.0  0.74453  0.13462  0.04401  1.0000
  C   C826      1.0  0.71320  0.15112  0.06996  1.0000
  H   H1309     1.0  0.93048  0.24527  0.02425  1.0000
  H   H1310     1.0  0.84654  0.01947  0.21595  1.0000
  H   H1311     1.0  0.88114  0.04880  0.19940  1.0000
  H   H1312     1.0  0.70712  0.16103  0.08324  1.0000
  H   H1313     1.0  0.98870  0.05200  0.28735  1.0000
  S   S326      1.0  0.68230  0.10155  0.05213  1.0000
  H   H1314     1.0  0.75221  0.11316  0.06175  1.0000
  H   H1315     1.0  0.73797  0.11179  0.09867  1.0000
  H   H1316     1.0  0.99980  0.19893  0.28498  1.0000
  H   H1317     1.0  0.76775  0.00335  0.19376  1.0000
  C   C827      1.0  0.91644  0.07868  0.32506  1.0000
  H   H1318     1.0  0.96608  0.23065  0.23548  1.0000
  H   H1319     1.0  0.84295  0.04307  0.24610  1.0000
  H   H1320     1.0  0.76268  0.13991  0.08624  1.0000
  N   N81       1.0  0.87232  0.03371  0.22944  1.0000
  C   C828      1.0  0.76400  0.19390  0.01029  1.0000
  H   H1321     1.0  0.79547  0.01751  0.21446  1.0000
  C   C829      1.0  0.00100  0.21039  0.29756  1.0000
  H   H1322     1.0  0.89522  0.01410  0.24585  1.0000
  H   H1323     1.0  0.71825  0.01096  0.06195  1.0000
  C   C830      1.0  0.68839  0.01379  0.23397  1.0000
  H   H1324     1.0  0.69102  0.01816  0.21680  1.0000
  H   H1325     1.0  0.67138  0.01044  0.23661  1.0000
  S   S327      1.0  0.99957  0.11602  0.28572  1.0000
  H   H1326     1.0  0.95310  0.04905  0.32072  1.0000
  Fe  Fe163     1.0  0.87358  0.00977  0.30114  1.0000
  S   S328      1.0  0.72661  0.11798  0.00626  1.0000
  H   H1327     1.0  0.89445  0.05366  0.32845  1.0000
  H   H1328     1.0  0.70056  0.00448  0.04249  1.0000
  Fe  Fe164     1.0  0.71005  0.00504  0.13527  1.0000
  H   H1329     1.0  0.72855  0.00439  0.21954  1.0000
  H   H1330     1.0  0.69101  0.00324  0.09042  1.0000
  Fe  Fe165     1.0  0.72281  0.15363  0.00408  1.0000
  C   C831      1.0  0.78986  0.00203  0.21865  1.0000
  H   H1331     1.0  0.96447  0.02761  0.33616  1.0000
  H   H1332     1.0  0.71023  0.19646  0.53992  1.0000
  C   C832      1.0  0.95778  0.24479  0.54654  1.0000
  H   H1333     1.0  0.98383  0.05358  0.35493  1.0000
  H   H1334     1.0  0.94359  0.23475  0.58628  1.0000
  S   S329      1.0  0.71752  0.21224  0.49127  1.0000
  H   H1335     1.0  0.80045  0.03620  0.48004  1.0000
  H   H1336     1.0  0.76205  0.00509  0.64148  1.0000
  H   H1337     1.0  0.68802  0.19095  0.55796  1.0000
  C   C833      1.0  0.70245  0.20022  0.55568  1.0000
  S   S330      1.0  0.98530  0.21861  0.50074  1.0000
  H   H1338     1.0  0.72515  0.23089  0.53808  1.0000
  H   H1339     1.0  0.69906  0.10702  0.52231  1.0000
  S   S331      1.0  0.72968  0.03431  0.52220  1.0000
  Fe  Fe166     1.0  0.68629  0.19476  0.49304  1.0000
  N   N82       1.0  0.69716  0.22305  0.55695  1.0000
  H   H1340     1.0  0.94009  0.24738  0.48909  1.0000
  S   S332      1.0  0.68489  0.16763  0.51729  1.0000
  H   H1341     1.0  0.71706  0.07484  0.53803  1.0000
  C   C834      1.0  0.94374  0.22197  0.57483  1.0000
  Fe  Fe167     1.0  0.74564  0.00332  0.51066  1.0000
  H   H1342     1.0  0.99392  0.16488  0.62594  1.0000
  H   H1343     1.0  0.68281  0.24454  0.57948  1.0000
  H   H1344     1.0  0.80884  0.02382  0.59613  1.0000
  H   H1345     1.0  0.67865  0.24707  0.54034  1.0000
  H   H1346     1.0  0.75028  0.07941  0.46154  1.0000
  H   H1347     1.0  0.69557  0.07554  0.46418  1.0000
  S   S333      1.0  0.99876  0.19898  0.55457  1.0000
  H   H1348     1.0  0.72788  0.23066  0.56604  1.0000
  S   S334      1.0  0.83450  0.01071  0.63072  1.0000
  H   H1349     1.0  0.98156  0.17468  0.59013  1.0000
  C   C835      1.0  0.92009  0.24244  0.55241  1.0000
  H   H1350     1.0  0.80181  0.06375  0.48480  1.0000
  H   H1351     1.0  0.95919  0.21288  0.57577  1.0000
  C   C836      1.0  0.69609  0.09361  0.49213  1.0000
  C   C837      1.0  0.70043  0.07549  0.48026  1.0000
  C   C838      1.0  0.71065  0.05720  0.48912  1.0000
  C   C839      1.0  0.71672  0.05682  0.51002  1.0000
  C   C840      1.0  0.71248  0.07496  0.52184  1.0000
  C   C841      1.0  0.70228  0.09326  0.51297  1.0000
  H   H1352     1.0  0.93928  0.21890  0.52182  1.0000
  H   H1353     1.0  0.71339  0.04328  0.47994  1.0000
  C   C842      1.0  0.68704  0.22743  0.57805  1.0000
  H   H1354     1.0  0.95665  0.20366  0.53862  1.0000
  C   C843      1.0  0.71669  0.23471  0.55346  1.0000
  S   S335      1.0  0.67556  0.17526  0.46694  1.0000
  H   H1355     1.0  0.76074  0.22407  0.49001  1.0000
  H   H1356     1.0  0.75406  0.07316  0.48894  1.0000
  C   C844      1.0  0.68237  0.22977  0.54053  1.0000
  H   H1357     1.0  0.90096  0.24682  0.48954  1.0000
  H   H1358     1.0  0.95633  0.25108  0.53001  1.0000
  H   H1359     1.0  0.77061  0.02383  0.46137  1.0000
  H   H1360     1.0  0.93120  0.21109  0.58028  1.0000
  H   H1361     1.0  0.79755  0.07282  0.44677  1.0000
  H   H1362     1.0  0.74918  0.04196  0.45459  1.0000
  C   C845      1.0  0.72885  0.23707  0.49484  1.0000
  H   H1363     1.0  0.97359  0.23647  0.54724  1.0000
  H   H1364     1.0  0.71347  0.19448  0.56791  1.0000
  H   H1365     1.0  0.75318  0.03487  0.48185  1.0000
  H   H1366     1.0  0.79388  0.00461  0.56760  1.0000
  H   H1367     1.0  0.67224  0.21880  0.58102  1.0000
  H   H1368     1.0  0.79021  0.00533  0.63812  1.0000
  N   N83       1.0  0.77540  0.05612  0.46737  1.0000
  C   C846      1.0  0.78680  0.05961  0.44656  1.0000
  C   C847      1.0  0.76253  0.07533  0.47311  1.0000
  C   C848      1.0  0.79078  0.05091  0.48366  1.0000
  C   C849      1.0  0.76146  0.03843  0.46622  1.0000
  H   H1369     1.0  0.79659  0.04525  0.44192  1.0000
  H   H1370     1.0  0.78265  0.04837  0.49961  1.0000
  H   H1371     1.0  0.77564  0.06340  0.43388  1.0000
  H   H1372     1.0  0.69767  0.22246  0.59089  1.0000
  H   H1373     1.0  0.77244  0.08914  0.47381  1.0000
  H   H1374     1.0  0.68911  0.22587  0.52448  1.0000
  C   C850      1.0  0.75101  0.23808  0.49366  1.0000
  H   H1375     1.0  0.92862  0.20196  0.54283  1.0000
  S   S336      1.0  0.68281  0.11603  0.48013  1.0000
  C   C851      1.0  0.94130  0.21302  0.53844  1.0000
  C   C852      1.0  0.99648  0.18001  0.59457  1.0000
  C   C853      1.0  0.81268  0.00714  0.59476  1.0000
  H   H1376     1.0  0.92338  0.08989  0.66051  1.0000
  N   N84       1.0  0.94071  0.23055  0.55307  1.0000
  H   H1377     1.0  0.90678  0.23218  0.55701  1.0000
  S   S337      1.0  0.78099  0.00260  0.51181  1.0000
  H   H1378     1.0  0.91744  0.24927  0.53622  1.0000
  H   H1379     1.0  0.91237  0.08434  0.34073  1.0000
  H   H1380     1.0  0.99868  0.15242  0.38526  1.0000
  H   H1381     1.0  0.99538  0.15508  0.42442  1.0000
  Fe  Fe168     1.0  0.67245  0.14883  0.49187  1.0000
  H   H1382     1.0  0.98071  0.03632  0.66372  1.0000
  H   H1383     1.0  0.97252  0.07467  0.33876  1.0000
  H   H1384     1.0  0.00062  0.07137  0.33992  1.0000
  C   C854      1.0  0.98594  0.06266  0.33959  1.0000
  H   H1385     1.0  0.96760  0.06156  0.66844  1.0000
  H   H1386     1.0  0.00128  0.07820  0.66063  1.0000
  C   C855      1.0  0.00223  0.16766  0.41466  1.0000
  S   S338      1.0  0.99956  0.12152  0.33740  1.0000
  S   S339      1.0  0.69430  0.01449  0.82909  1.0000
  S   S340      1.0  0.67974  0.03646  0.88861  1.0000
  S   S341      1.0  0.70964  0.15370  0.97181  1.0000
  Fe  Fe169     1.0  0.71069  0.11813  0.97526  1.0000
  S   S342      1.0  0.72382  0.09827  0.94754  1.0000
  H   H1387     1.0  0.68896  0.13357  0.88598  1.0000
  H   H1388     1.0  0.86863  0.05474  0.75197  1.0000
  C   C856      1.0  0.81757  0.04239  0.76334  1.0000
  H   H1389     1.0  0.85647  0.04643  0.77710  1.0000
  S   S343      1.0  0.67795  0.11656  0.99059  1.0000
  C   C857      1.0  0.98901  0.07034  0.70185  1.0000
  H   H1390     1.0  0.80563  0.03379  0.75538  1.0000
  H   H1391     1.0  0.68993  0.00372  0.96518  1.0000
  Fe  Fe170     1.0  0.98145  0.12786  0.69188  1.0000
  S   S344      1.0  0.95016  0.11566  0.68235  1.0000
  C   C858      1.0  0.83419  0.05367  0.72970  1.0000
  S   S345      1.0  0.98659  0.16276  0.69077  1.0000
  S   S346      1.0  0.89517  0.03734  0.71356  1.0000
  S   S347      1.0  0.84307  0.01651  0.68986  1.0000
  C   C859      1.0  0.93638  0.09278  0.69087  1.0000
  H   H1392     1.0  0.78607  0.21788  0.96553  1.0000
  H   H1393     1.0  0.67506  0.11175  0.89803  1.0000
  C   C860      1.0  0.91166  0.05795  0.70392  1.0000
  C   C861      1.0  0.92422  0.06724  0.71817  1.0000
  C   C862      1.0  0.93660  0.08443  0.71169  1.0000
  H   H1394     1.0  0.92418  0.06124  0.73444  1.0000
  H   H1395     1.0  0.94582  0.09158  0.72297  1.0000
  H   H1396     1.0  0.76052  0.19073  0.97702  1.0000
  H   H1397     1.0  0.68113  0.08211  0.94910  1.0000
  H   H1398     1.0  0.86137  0.02083  0.73761  1.0000
  C   C863      1.0  0.84611  0.02108  0.74715  1.0000
  S   S348      1.0  0.99593  0.12237  0.72313  1.0000
  H   H1399     1.0  0.68384  0.12052  0.94393  1.0000
  H   H1400     1.0  0.82828  0.07031  0.73151  1.0000
  C   C864      1.0  0.78283  0.21437  0.98225  1.0000
  C   C865      1.0  0.98852  0.20504  0.78225  1.0000
  H   H1401     1.0  0.84754  0.07079  0.76422  1.0000
  N   N85       1.0  0.83775  0.04287  0.75044  1.0000
  C   C866      1.0  0.79328  0.22529  0.99710  1.0000
  C   C867      1.0  0.71156  0.08004  0.93224  1.0000
  C   C868      1.0  0.69033  0.07540  0.93590  1.0000
  C   C869      1.0  0.68091  0.06211  0.92234  1.0000
  C   C870      1.0  0.69269  0.05277  0.90533  1.0000
  C   C871      1.0  0.71409  0.05679  0.90212  1.0000
  C   C872      1.0  0.72339  0.07049  0.91539  1.0000
  H   H1402     1.0  0.97385  0.19783  0.78698  1.0000
  C   C873      1.0  0.91180  0.06602  0.68299  1.0000
  H   H1403     1.0  0.72338  0.04976  0.88912  1.0000
  H   H1404     1.0  0.73984  0.07389  0.91243  1.0000
  C   C874      1.0  0.76826  0.19890  0.98874  1.0000
  N   N86       1.0  0.93109  0.16814  0.73013  1.0000
  C   C875      1.0  0.94520  0.15158  0.73963  1.0000
  C   C876      1.0  0.92641  0.16228  0.70862  1.0000
  C   C877      1.0  0.94157  0.18840  0.72891  1.0000
  C   C878      1.0  0.91123  0.17023  0.74346  1.0000
  H   H1405     1.0  0.96042  0.15003  0.73016  1.0000
  H   H1406     1.0  0.93814  0.13591  0.74042  1.0000
  H   H1407     1.0  0.94912  0.15539  0.75590  1.0000
  H   H1408     1.0  0.91570  0.17431  0.70093  1.0000
  H   H1409     1.0  0.94104  0.16061  0.69811  1.0000
  H   H1410     1.0  0.91890  0.14683  0.70889  1.0000
  H   H1411     1.0  0.93145  0.20137  0.72188  1.0000
  H   H1412     1.0  0.95670  0.18737  0.71907  1.0000
  H   H1413     1.0  0.94568  0.19307  0.74486  1.0000
  H   H1414     1.0  0.90299  0.15518  0.74477  1.0000
  H   H1415     1.0  0.90020  0.18263  0.73677  1.0000
  H   H1416     1.0  0.91429  0.17461  0.75980  1.0000
  C   C879      1.0  0.99506  0.22168  0.79407  1.0000
  H   H1417     1.0  0.82235  0.04567  0.72107  1.0000
  C   C880      1.0  0.97652  0.04798  0.67607  1.0000
  Fe  Fe171     1.0  0.87756  0.01290  0.69650  1.0000
  Fe  Fe172     1.0  0.67732  0.15208  0.98863  1.0000
  N   N87       1.0  0.99551  0.05489  0.68567  1.0000
  C   C881      1.0  0.68829  0.15610  0.92110  1.0000
  H   H1418     1.0  0.81963  0.03420  0.77906  1.0000
  C   C882      1.0  0.85325  0.05424  0.76146  1.0000
  S   S349      1.0  0.81187  0.24440  0.98769  1.0000
  H   H1419     1.0  0.84907  0.05384  0.71938  1.0000
  S   S350      1.0  0.99143  0.17650  0.75018  1.0000
  H   H1420     1.0  0.93274  0.24761  0.98538  1.0000
  H   H1421     1.0  0.70005  0.11781  0.90720  1.0000
  C   C883      1.0  0.92388  0.08346  0.67661  1.0000
  H   H1422     1.0  0.96541  0.04061  0.68817  1.0000
  H   H1423     1.0  0.98540  0.22706  0.80764  1.0000
  Fe  Fe173     1.0  0.69243  0.01174  0.86498  1.0000
  H   H1424     1.0  0.81071  0.05856  0.76617  1.0000
  C   C884      1.0  0.68500  0.12500  0.90128  1.0000
  H   H1425     1.0  0.83501  0.01206  0.73859  1.0000
  H   H1426     1.0  0.70364  0.14945  0.92675  1.0000
  C   C885      1.0  0.00077  0.19759  0.76451  1.0000
  N   N88       1.0  0.67424  0.13918  0.91688  1.0000
  H   H1427     1.0  0.98145  0.08484  0.69460  1.0000
  H   H1428     1.0  0.99686  0.02895  0.70857  1.0000
  H   H1429     1.0  0.84903  0.01241  0.76242  1.0000
  H   H1430     1.0  0.69187  0.16613  0.90663  1.0000
  H   H1431     1.0  0.97764  0.06376  0.71413  1.0000
  H   H1432     1.0  0.70672  0.01765  0.93174  1.0000
  H   H1433     1.0  0.68101  0.16656  0.93354  1.0000
  H   H1434     1.0  0.90214  0.05920  0.67184  1.0000
  H   H1435     1.0  0.70627  0.00339  0.90812  1.0000
  C   C886      1.0  0.66921  0.12699  0.93676  1.0000
  H   H1436     1.0  0.96479  0.25386  0.00483  1.0000
  S   S351      1.0  0.68158  0.45662  0.19748  1.0000
  H   H1437     1.0  0.67126  0.49533  0.12358  1.0000
  C   C887      1.0  0.92664  0.26254  0.02432  1.0000
  S   S352      1.0  0.70221  0.46131  0.25320  1.0000
  H   H1438     1.0  0.70492  0.44487  0.12444  1.0000
  H   H1439     1.0  0.69816  0.43164  0.16122  1.0000
  S   S353      1.0  0.97080  0.30255  0.16439  1.0000
  H   H1440     1.0  0.73737  0.44342  0.27573  1.0000
  Fe  Fe174     1.0  0.98148  0.29746  0.13043  1.0000
  S   S354      1.0  0.96130  0.30542  0.10185  1.0000
  Fe  Fe175     1.0  0.98089  0.49314  0.26167  1.0000
  Fe  Fe176     1.0  0.86206  0.28457  0.03306  1.0000
  S   S355      1.0  0.87639  0.27605  0.06488  1.0000
  S   S356      1.0  0.82664  0.28585  0.03110  1.0000
  H   H1441     1.0  0.96345  0.34027  0.13540  1.0000
  H   H1442     1.0  0.90668  0.33044  0.14408  1.0000
  S   S357      1.0  0.98833  0.48573  0.22735  1.0000
  H   H1443     1.0  0.93588  0.30368  0.01976  1.0000
  H   H1444     1.0  0.93228  0.26837  0.03919  1.0000
  C   C888      1.0  0.68614  0.42132  0.15573  1.0000
  H   H1445     1.0  0.77359  0.41484  0.02455  1.0000
  C   C889      1.0  0.73646  0.46012  0.27842  1.0000
  C   C890      1.0  0.89256  0.47392  0.31234  1.0000
  H   H1446     1.0  0.95237  0.35191  0.11217  1.0000
  Fe  Fe177     1.0  0.73581  0.48344  0.03062  1.0000
  S   S358      1.0  0.70935  0.47829  0.05623  1.0000
  S   S359      1.0  0.77079  0.48653  0.03245  1.0000
  H   H1447     1.0  0.70184  0.41888  0.11542  1.0000
  H   H1448     1.0  0.93999  0.36891  0.16721  1.0000
  C   C891      1.0  0.92932  0.47210  0.29773  1.0000
  N   N89       1.0  0.93151  0.35232  0.14031  1.0000
  C   C892      1.0  0.91249  0.46318  0.31001  1.0000
  Fe  Fe178     1.0  0.67802  0.48856  0.18115  1.0000
  N   N90       1.0  0.93625  0.27361  0.00538  1.0000
  H   H1449     1.0  0.97405  0.40342  0.18112  1.0000
  C   C893      1.0  0.93778  0.29666  0.09187  1.0000
  C   C894      1.0  0.93045  0.30635  0.07304  1.0000
  C   C895      1.0  0.91172  0.30031  0.06460  1.0000
  C   C896      1.0  0.90008  0.28439  0.07485  1.0000
  C   C897      1.0  0.90726  0.27488  0.09379  1.0000
  C   C898      1.0  0.92598  0.28094  0.10226  1.0000
  H   H1450     1.0  0.93935  0.31864  0.06493  1.0000
  H   H1451     1.0  0.90628  0.30799  0.05020  1.0000
  C   C899      1.0  0.98762  0.39920  0.19022  1.0000
  H   H1452     1.0  0.93134  0.27334  0.11674  1.0000
  H   H1453     1.0  0.68647  0.44104  0.10486  1.0000
  C   C900      1.0  0.72627  0.48338  0.09507  1.0000
  C   C901      1.0  0.95277  0.35336  0.12961  1.0000
  H   H1454     1.0  0.71788  0.45120  0.32684  1.0000
  C   C902      1.0  0.72085  0.47314  0.26864  1.0000
  H   H1455     1.0  0.91494  0.44784  0.31783  1.0000
  C   C903      1.0  0.72010  0.49475  0.27219  1.0000
  C   C904      1.0  0.75001  0.49006  0.29534  1.0000
  C   C905      1.0  0.75108  0.46850  0.29139  1.0000
  C   C906      1.0  0.92256  0.33207  0.13597  1.0000
  N   N91       1.0  0.67649  0.43058  0.13655  1.0000
  C   C907      1.0  0.68657  0.49160  0.11582  1.0000
  H   H1456     1.0  0.74162  0.47997  0.08726  1.0000
  C   C908      1.0  0.70816  0.48344  0.08357  1.0000
  H   H1457     1.0  0.98796  0.43002  0.20349  1.0000
  C   C909      1.0  0.95950  0.27081  0.00532  1.0000
  H   H1458     1.0  0.77720  0.37671  0.03505  1.0000
  S   S360      1.0  0.86566  0.31596  0.01633  1.0000
  H   H1459     1.0  0.96560  0.27718  0.01973  1.0000
  H   H1460     1.0  0.91730  0.35321  0.17207  1.0000
  N   N92       1.0  0.82263  0.32254  0.08389  1.0000
  C   C910      1.0  0.82985  0.30073  0.08995  1.0000
  C   C911      1.0  0.80149  0.32251  0.07532  1.0000
  C   C912      1.0  0.83769  0.33137  0.06757  1.0000
  C   C913      1.0  0.82152  0.33562  0.10266  1.0000
  H   H1461     1.0  0.84595  0.30007  0.09607  1.0000
  H   H1462     1.0  0.83081  0.29040  0.07615  1.0000
  H   H1463     1.0  0.81898  0.29352  0.10232  1.0000
  H   H1464     1.0  0.79575  0.33869  0.07017  1.0000
  H   H1465     1.0  0.80174  0.31283  0.06106  1.0000
  H   H1466     1.0  0.78962  0.31604  0.08714  1.0000
  H   H1467     1.0  0.83847  0.32212  0.05310  1.0000
  H   H1468     1.0  0.85397  0.33117  0.07314  1.0000
  H   H1469     1.0  0.83282  0.34785  0.06254  1.0000
  H   H1470     1.0  0.81615  0.35218  0.09852  1.0000
  H   H1471     1.0  0.83723  0.33600  0.10946  1.0000
  H   H1472     1.0  0.81026  0.32944  0.11530  1.0000
  H   H1473     1.0  0.92110  0.33043  0.11868  1.0000
  H   H1474     1.0  0.94340  0.34094  0.17004  1.0000
  H   H1475     1.0  0.76189  0.46308  0.33680  1.0000
  Fe  Fe179     1.0  0.83072  0.31664  0.01241  1.0000
  Fe  Fe180     1.0  0.67877  0.47358  0.22821  1.0000
  H   H1476     1.0  0.93286  0.31840  0.14138  1.0000
  H   H1477     1.0  0.76318  0.45825  0.29826  1.0000
  H   H1478     1.0  0.96020  0.36830  0.13266  1.0000
  H   H1479     1.0  0.91640  0.36923  0.11477  1.0000
  H   H1480     1.0  0.92412  0.38544  0.13522  1.0000
  C   C914      1.0  0.93302  0.35393  0.16340  1.0000
  H   H1481     1.0  0.90155  0.36965  0.13989  1.0000
  C   C915      1.0  0.92644  0.49198  0.28766  1.0000
  C   C916      1.0  0.91775  0.36995  0.13219  1.0000
  C   C917      1.0  0.72450  0.48741  0.11683  1.0000
  S   S361      1.0  0.98659  0.36044  0.17262  1.0000
  H   H1482     1.0  0.94452  0.46362  0.29614  1.0000
  H   H1483     1.0  0.75362  0.43710  0.33293  1.0000
  H   H1484     1.0  0.90911  0.26489  0.02524  1.0000
  C   C918      1.0  0.69315  0.43392  0.11956  1.0000
  S   S362      1.0  0.87237  0.46233  0.32907  1.0000
  H   H1485     1.0  0.89839  0.26255  0.10189  1.0000
  S   S363      1.0  0.70332  0.49606  0.15483  1.0000
  C   C919      1.0  0.99707  0.37869  0.18930  1.0000
  S   S364      1.0  0.80734  0.34330  0.02350  1.0000
  Fe  Fe181     1.0  0.79336  0.49063  0.33525  1.0000
  C   C920      1.0  0.68831  0.48743  0.09410  1.0000
  S   S365      1.0  0.98529  0.25512  0.20097  1.0000
  H   H1486     1.0  0.69410  0.40564  0.15283  1.0000
  C   C921      1.0  0.78863  0.38344  0.02370  1.0000
  H   H1487     1.0  0.67422  0.48765  0.08530  1.0000
  Fe  Fe182     1.0  0.99592  0.32612  0.16489  1.0000
  C   C922      1.0  0.92997  0.29632  0.00581  1.0000
  C   C923      1.0  0.78652  0.40509  0.01776  1.0000
  C   C924      1.0  0.80533  0.37043  0.01505  1.0000
  H   H1488     1.0  0.72502  0.47751  0.33083  1.0000
  H   H1489     1.0  0.73859  0.48727  0.12564  1.0000
  Fe  Fe183     1.0  0.99607  0.27760  0.17312  1.0000
  C   C925      1.0  0.88963  0.49370  0.30204  1.0000
  H   H1490     1.0  0.67404  0.41921  0.16907  1.0000
  C   C926      1.0  0.70464  0.49123  0.12740  1.0000
  H   H1491     1.0  0.91248  0.29895  0.00655  1.0000
  C   C927      1.0  0.99549  0.41437  0.20291  1.0000
  H   H1492     1.0  0.67641  0.46181  0.14808  1.0000
  S   S366      1.0  0.76676  0.50143  0.31317  1.0000
  Fe  Fe184     1.0  0.81336  0.45615  0.63675  1.0000
  S   S367      1.0  0.78984  0.48157  0.64831  1.0000
  S   S368      1.0  0.79834  0.43188  0.61737  1.0000
  S   S369      1.0  0.83836  0.47893  0.62636  1.0000
  H   H1493     1.0  0.87860  0.27540  0.44933  1.0000
  Fe  Fe185     1.0  0.80375  0.46156  0.37349  1.0000
  S   S370      1.0  0.78718  0.43761  0.39586  1.0000
  N   N93       1.0  0.82013  0.41316  0.50647  1.0000
  Fe  Fe186     1.0  0.82212  0.34193  0.52731  1.0000
  S   S371      1.0  0.84742  0.33865  0.50107  1.0000
  S   S372      1.0  0.83456  0.36333  0.55148  1.0000
  Fe  Fe187     1.0  0.79343  0.31273  0.50549  1.0000
  S   S373      1.0  0.81699  0.30821  0.47781  1.0000
  S   S374      1.0  0.76000  0.29962  0.50762  1.0000
  Fe  Fe188     1.0  0.84168  0.30435  0.50204  1.0000
  S   S375      1.0  0.86751  0.27815  0.49698  1.0000
  Fe  Fe189     1.0  0.82155  0.34306  0.47848  1.0000
  S   S376      1.0  0.83310  0.36290  0.44950  1.0000
  S   S377      1.0  0.81792  0.30672  0.52998  1.0000
  S   S378      1.0  0.79636  0.34843  0.50452  1.0000
  H   H1494     1.0  0.85402  0.33187  0.41834  1.0000
  S   S379      1.0  0.96805  0.28116  0.49662  1.0000
  C   C928      1.0  0.89540  0.27943  0.49717  1.0000
  C   C929      1.0  0.90505  0.29797  0.50123  1.0000
  C   C930      1.0  0.92727  0.29825  0.50092  1.0000
  C   C931      1.0  0.94011  0.28001  0.49669  1.0000
  C   C932      1.0  0.93045  0.26147  0.49263  1.0000
  H   H1495     1.0  0.90957  0.49336  0.34558  1.0000
  H   H1496     1.0  0.89540  0.31209  0.50468  1.0000
  H   H1497     1.0  0.93454  0.31269  0.50410  1.0000
  H   H1498     1.0  0.84671  0.30662  0.41017  1.0000
  C   C933      1.0  0.75478  0.44912  0.34498  1.0000
  C   C934      1.0  0.80031  0.41739  0.41121  1.0000
  C   C935      1.0  0.82205  0.41283  0.40837  1.0000
  C   C936      1.0  0.83176  0.39615  0.42029  1.0000
  C   C937      1.0  0.81994  0.38396  0.43531  1.0000
  C   C938      1.0  0.79825  0.38871  0.43842  1.0000
  C   C939      1.0  0.78850  0.40529  0.42635  1.0000
  H   H1499     1.0  0.83134  0.42195  0.39676  1.0000
  H   H1500     1.0  0.84855  0.39263  0.41773  1.0000
  H   H1501     1.0  0.78891  0.37940  0.44981  1.0000
  H   H1502     1.0  0.77166  0.40863  0.42863  1.0000
  C   C940      1.0  0.80882  0.41303  0.59899  1.0000
  C   C941      1.0  0.83048  0.41006  0.59390  1.0000
  C   C942      1.0  0.83798  0.39472  0.57943  1.0000
  C   C943      1.0  0.82398  0.38220  0.56978  1.0000
  C   C944      1.0  0.80230  0.38526  0.57474  1.0000
  C   C945      1.0  0.79481  0.40058  0.58924  1.0000
  H   H1503     1.0  0.84146  0.41945  0.60127  1.0000
  H   H1504     1.0  0.85478  0.39246  0.57580  1.0000
  H   H1505     1.0  0.79132  0.37571  0.56759  1.0000
  H   H1506     1.0  0.77803  0.40268  0.59312  1.0000
  H   H1507     1.0  0.74233  0.48602  0.36226  1.0000
  C   C946      1.0  0.72644  0.27428  0.50340  1.0000
  C   C947      1.0  0.74862  0.27529  0.50224  1.0000
  H   H1508     1.0  0.95757  0.25847  0.55690  1.0000
  H   H1509     1.0  0.83709  0.31629  0.43535  1.0000
  H   H1510     1.0  0.71676  0.28831  0.50707  1.0000
  H   H1511     1.0  0.82725  0.41030  0.47297  1.0000
  C   C948      1.0  0.73635  0.47149  0.37053  1.0000
  H   H1512     1.0  0.84469  0.40767  0.52835  1.0000
  H   H1513     1.0  0.80530  0.44404  0.50164  1.0000
  H   H1514     1.0  0.78770  0.41267  0.51855  1.0000
  H   H1515     1.0  0.84115  0.38613  0.51193  1.0000
  H   H1516     1.0  0.74776  0.46618  0.38263  1.0000
  H   H1517     1.0  0.80665  0.41267  0.53847  1.0000
  S   S380      1.0  0.83494  0.47543  0.37668  1.0000
  H   H1518     1.0  0.76608  0.44260  0.35666  1.0000
  N   N94       1.0  0.73397  0.45489  0.35536  1.0000
  H   H1519     1.0  0.99469  0.31876  0.50062  1.0000
  C   C949      1.0  0.71936  0.46290  0.33918  1.0000
  H   H1520     1.0  0.82485  0.44227  0.52108  1.0000
  H   H1521     1.0  0.85381  0.40889  0.50077  1.0000
  H   H1522     1.0  0.83285  0.44189  0.49333  1.0000
  H   H1523     1.0  0.87720  0.33405  0.44759  1.0000
  H   H1524     1.0  0.70987  0.43982  0.37494  1.0000
  S   S381      1.0  0.78666  0.49347  0.37058  1.0000
  H   H1525     1.0  0.81427  0.38852  0.48575  1.0000
  C   C950      1.0  0.84089  0.40364  0.51210  1.0000
  C   C951      1.0  0.88399  0.49862  0.38010  1.0000
  C   C952      1.0  0.90825  0.26123  0.49283  1.0000
  C   C953      1.0  0.82083  0.43638  0.50558  1.0000
  H   H1526     1.0  0.72367  0.42326  0.35577  1.0000
  H   H1527     1.0  0.86144  0.27363  0.42790  1.0000
  Fe  Fe190     1.0  0.84894  0.47468  0.66010  1.0000
  H   H1528     1.0  0.86155  0.31705  0.46456  1.0000
  C   C954      1.0  0.81506  0.40596  0.48557  1.0000
  H   H1529     1.0  0.80358  0.38920  0.52469  1.0000
  H   H1530     1.0  0.79957  0.41289  0.48064  1.0000
  H   H1531     1.0  0.73638  0.42978  0.37906  1.0000
  C   C955      1.0  0.80376  0.40667  0.52269  1.0000
  N   N95       1.0  0.86970  0.30514  0.43391  1.0000
  C   C956      1.0  0.88801  0.30464  0.41835  1.0000
  C   C957      1.0  0.87468  0.31723  0.45220  1.0000
  C   C958      1.0  0.86507  0.28338  0.44124  1.0000
  C   C959      1.0  0.85111  0.31536  0.42394  1.0000
  H   H1532     1.0  0.88478  0.29572  0.40427  1.0000
  C   C960      1.0  0.72555  0.43610  0.36679  1.0000
  H   H1533     1.0  0.89199  0.32085  0.41268  1.0000
  H   H1534     1.0  0.88899  0.31039  0.45978  1.0000
  H   H1535     1.0  0.90226  0.29695  0.42542  1.0000
  H   H1536     1.0  0.69960  0.25525  0.50023  1.0000
  H   H1537     1.0  0.85126  0.28317  0.45296  1.0000
  S   S382      1.0  0.80917  0.45812  0.33822  1.0000
  Fe  Fe191     1.0  0.83942  0.47484  0.34113  1.0000
  H   H1538     1.0  0.72105  0.47599  0.37903  1.0000
  H   H1539     1.0  0.88156  0.48377  0.37205  1.0000
  C   C961      1.0  0.71662  0.25544  0.49960  1.0000
  S   S383      1.0  0.88294  0.46585  0.66917  1.0000
  S   S384      1.0  0.82530  0.45015  0.66938  1.0000
  H   H1540     1.0  0.91904  0.25577  0.56329  1.0000
  C   C962      1.0  0.76083  0.25698  0.49726  1.0000
  H   H1541     1.0  0.70329  0.46683  0.34633  1.0000
  H   H1542     1.0  0.89569  0.49489  0.39225  1.0000
  H   H1543     1.0  0.77786  0.25733  0.49631  1.0000
  Fe  Fe192     1.0  0.99170  0.25275  0.49593  1.0000
  H   H1544     1.0  0.71330  0.25208  0.55310  1.0000
  H   H1545     1.0  0.74646  0.48856  0.92232  1.0000
  S   S385      1.0  0.69274  0.48042  0.75296  1.0000
  C   C963      1.0  0.84478  0.47057  0.72266  1.0000
  S   S386      1.0  0.79920  0.44117  0.99466  1.0000
  H   H1546     1.0  0.83227  0.47924  0.73241  1.0000
  H   H1547     1.0  0.78810  0.44084  0.94766  1.0000
  H   H1548     1.0  0.98570  0.30905  0.74480  1.0000
  S   S387      1.0  0.83424  0.30078  0.98117  1.0000
  Fe  Fe193     1.0  0.86916  0.29770  0.98640  1.0000
  S   S388      1.0  0.89687  0.30908  0.96496  1.0000
  C   C964      1.0  0.97503  0.31666  0.78547  1.0000
  C   C965      1.0  0.90683  0.27762  0.93613  1.0000
  S   S389      1.0  0.98147  0.29112  0.83638  1.0000
  C   C966      1.0  0.76339  0.41523  0.92832  1.0000
  S   S390      1.0  0.95196  0.26703  0.88854  1.0000
  H   H1549     1.0  0.76704  0.45544  0.96119  1.0000
  H   H1550     1.0  0.73362  0.48251  0.77231  1.0000
  H   H1551     1.0  0.86621  0.42048  0.72111  1.0000
  Fe  Fe194     1.0  0.67771  0.48155  0.78698  1.0000
  Fe  Fe195     1.0  0.73781  0.49125  0.98186  1.0000
  Fe  Fe196     1.0  0.98219  0.48673  0.74019  1.0000
  N   N96       1.0  0.99576  0.31971  0.77415  1.0000
  H   H1552     1.0  0.89349  0.26950  0.94329  1.0000
  H   H1553     1.0  0.97342  0.29993  0.79102  1.0000
  S   S391      1.0  0.71321  0.49185  0.95673  1.0000
  C   C967      1.0  0.73524  0.43487  0.94729  1.0000
  C   C968      1.0  0.90083  0.47524  0.68691  1.0000
  H   H1554     1.0  0.82933  0.40776  0.98311  1.0000
  H   H1555     1.0  0.99804  0.28885  0.76139  1.0000
  C   C969      1.0  0.99843  0.30578  0.75600  1.0000
  C   C970      1.0  0.93516  0.47081  0.70304  1.0000
  C   C971      1.0  0.92060  0.46441  0.68889  1.0000
  C   C972      1.0  0.91938  0.26861  0.91935  1.0000
  H   H1556     1.0  0.85836  0.43763  0.69941  1.0000
  H   H1557     1.0  0.95027  0.46229  0.70426  1.0000
  H   H1558     1.0  0.67716  0.47949  0.89229  1.0000
  C   C973      1.0  0.91151  0.29718  0.94341  1.0000
  C   C974      1.0  0.92892  0.30748  0.93387  1.0000
  C   C975      1.0  0.94146  0.29847  0.91712  1.0000
  C   C976      1.0  0.93672  0.27899  0.90970  1.0000
  H   H1559     1.0  0.93270  0.32261  0.93937  1.0000
  H   H1560     1.0  0.95469  0.30668  0.90985  1.0000
  C   C977      1.0  0.86348  0.43729  0.71594  1.0000
  H   H1561     1.0  0.73058  0.44493  0.96094  1.0000
  C   C978      1.0  0.91028  0.49893  0.71371  1.0000
  S   S392      1.0  0.98926  0.47753  0.77408  1.0000
  Fe  Fe197     1.0  0.98094  0.28059  0.87089  1.0000
  Fe  Fe198     1.0  0.80362  0.47731  0.68006  1.0000
  C   C979      1.0  0.71960  0.47945  0.74261  1.0000
  C   C980      1.0  0.74487  0.47670  0.71166  1.0000
  C   C981      1.0  0.76185  0.47825  0.72449  1.0000
  S   S393      1.0  0.77285  0.49585  0.98040  1.0000
  H   H1562     1.0  0.98491  0.34631  0.75475  1.0000
  H   H1563     1.0  0.75365  0.40123  0.92798  1.0000
  H   H1564     1.0  0.75757  0.42284  0.98122  1.0000
  C   C982      1.0  0.71064  0.48072  0.88532  1.0000
  C   C983      1.0  0.69227  0.48164  0.89866  1.0000
  H   H1565     1.0  0.81504  0.44619  0.74096  1.0000
  C   C984      1.0  0.71296  0.48749  0.92918  1.0000
  H   H1566     1.0  0.67911  0.48581  0.93056  1.0000
  H   H1567     1.0  0.85962  0.47901  0.72295  1.0000
  H   H1568     1.0  0.76093  0.42497  0.91352  1.0000
  H   H1569     1.0  0.76900  0.45630  0.93279  1.0000
  H   H1570     1.0  0.87068  0.45509  0.75218  1.0000
  C   C985      1.0  0.99688  0.34196  0.76651  1.0000
  H   H1571     1.0  0.73190  0.44452  0.93267  1.0000
  H   H1572     1.0  0.85754  0.43102  0.75814  1.0000
  H   H1573     1.0  0.72462  0.42148  0.94819  1.0000
  C   C986      1.0  0.82734  0.43811  0.73044  1.0000
  C   C987      1.0  0.99675  0.40483  0.79876  1.0000
  C   C988      1.0  0.69345  0.48513  0.92040  1.0000
  N   N97       1.0  0.84771  0.44836  0.73022  1.0000
  H   H1574     1.0  0.71095  0.47604  0.71060  1.0000
  H   H1575     1.0  0.99382  0.35285  0.77976  1.0000
  Fe  Fe199     1.0  0.68311  0.47910  0.83482  1.0000
  H   H1576     1.0  0.82104  0.43869  0.71440  1.0000
  S   S394      1.0  0.99079  0.35000  0.83400  1.0000
  H   H1577     1.0  0.77048  0.48151  0.75656  1.0000
  C   C989      1.0  0.75754  0.48034  0.74641  1.0000
  H   H1578     1.0  0.97284  0.32647  0.79971  1.0000
  H   H1579     1.0  0.78028  0.40947  0.92787  1.0000
  H   H1580     1.0  0.77803  0.40803  0.96696  1.0000
  C   C990      1.0  0.89582  0.49266  0.69937  1.0000
  H   H1581     1.0  0.93637  0.27248  0.97146  1.0000
  H   H1582     1.0  0.74784  0.47471  0.69484  1.0000
  C   C991      1.0  0.85527  0.44756  0.75187  1.0000
  C   C992      1.0  0.72393  0.47738  0.72067  1.0000
  H   H1583     1.0  0.96180  0.32114  0.77519  1.0000
  H   H1584     1.0  0.83287  0.36963  0.99352  1.0000
  H   H1585     1.0  0.98680  0.41876  0.79539  1.0000
  H   H1586     1.0  0.97338  0.39033  0.82005  1.0000
  H   H1587     1.0  0.82889  0.42127  0.73592  1.0000
  S   S395      1.0  0.67799  0.45432  0.81128  1.0000
  C   C993      1.0  0.98920  0.38866  0.81275  1.0000
  S   S396      1.0  0.71008  0.47739  0.85758  1.0000
  C   C994      1.0  0.93009  0.48812  0.71562  1.0000
  H   H1588     1.0  0.84380  0.45597  0.76298  1.0000
  S   S397      1.0  0.78868  0.47770  0.71408  1.0000
  H   H1589     1.0  0.87896  0.44482  0.71517  1.0000
  H   H1590     1.0  0.75130  0.40006  0.96748  1.0000
  N   N98       1.0  0.75771  0.42747  0.94733  1.0000
  C   C995      1.0  0.76124  0.41398  0.96656  1.0000
  C   C996      1.0  0.77104  0.44581  0.94714  1.0000
  C   C997      1.0  0.73019  0.48300  0.89412  1.0000
  H   H1591     1.0  0.94666  0.50058  0.78330  1.0000
  H   H1592     1.0  0.83994  0.47170  0.70608  1.0000
  C   C998      1.0  0.73137  0.48644  0.91589  1.0000
  S   S398      1.0  0.94753  0.49659  0.73434  1.0000
  C   C999      1.0  0.73661  0.48093  0.75543  1.0000
  C   C1000     1.0  0.92893  0.26485  0.98603  1.0000
  H   H1593     1.0  0.92474  0.45095  0.67932  1.0000
  H   H1594     1.0  0.74450  0.48239  0.88393  1.0000
  H   H1595     1.0  0.91156  0.26747  0.98503  1.0000
  H   H1596     1.0  0.96719  0.27911  0.99126  1.0000
  H   H1597     1.0  0.93607  0.30503  0.99123  1.0000
  S   S399      1.0  0.99937  0.30726  0.88067  1.0000
  Fe  Fe200     1.0  0.00179  0.31681  0.84572  1.0000
  Fe  Fe201     1.0  0.83214  0.26976  0.00028  1.0000
  Fe  Fe202     1.0  0.77420  0.46722  0.00316  1.0000
  C   C1001     1.0  0.81788  0.40104  0.99447  1.0000
  C   C1002     1.0  0.81994  0.37937  0.00034  1.0000
  H   H1598     1.0  0.91555  0.25355  0.91370  1.0000
  S   S400      1.0  0.73957  0.46201  0.00311  1.0000
  C   C1003     1.0  0.00184  0.37035  0.81732  1.0000
  C   C1004     1.0  0.80123  0.41406  0.00316  1.0000
  H   H1599     1.0  0.88090  0.50142  0.69781  1.0000
  S   S401      1.0  0.82783  0.50158  0.67220  1.0000
  S   S402      1.0  0.86756  0.26595  0.00353  1.0000
  C   C1005     1.0  0.72135  0.55109  0.04981  1.0000
  C   C1006     1.0  0.79292  0.73934  0.01291  1.0000
  S   S403      1.0  0.97935  0.68826  0.17632  1.0000
  H   H1600     1.0  0.75123  0.55857  0.09131  1.0000
  S   S404      1.0  0.94713  0.50443  0.27244  1.0000
  H   H1601     1.0  0.91876  0.73199  0.17942  1.0000
  Fe  Fe203     1.0  0.97855  0.68645  0.14078  1.0000
  S   S405      1.0  0.94844  0.69795  0.12451  1.0000
  N   N99       1.0  0.87332  0.59606  0.03740  1.0000
  Fe  Fe204     1.0  0.87617  0.67023  0.02846  1.0000
  H   H1602     1.0  0.95903  0.74632  0.13701  1.0000
  S   S406      1.0  0.90065  0.65665  0.05136  1.0000
  H   H1603     1.0  0.71117  0.56583  0.05085  1.0000
  H   H1604     1.0  0.89416  0.60421  0.06089  1.0000
  H   H1605     1.0  0.97355  0.73029  0.15549  1.0000
  S   S407      1.0  0.81077  0.71965  0.02408  1.0000
  H   H1606     1.0  0.95635  0.52307  0.23171  1.0000
  S   S408      1.0  0.84121  0.66506  0.02916  1.0000
  H   H1607     1.0  0.78572  0.58694  0.03640  1.0000
  H   H1608     1.0  0.91691  0.55084  0.22459  1.0000
  H   H1609     1.0  0.85066  0.57230  0.04415  1.0000
  H   H1610     1.0  0.75091  0.52022  0.08314  1.0000
  H   H1611     1.0  0.73579  0.51302  0.06169  1.0000
  H   H1612     1.0  0.92643  0.70077  0.03466  1.0000
  Fe  Fe205     1.0  0.76697  0.51490  0.00975  1.0000
  H   H1613     1.0  0.75652  0.56572  0.06375  1.0000
  H   H1614     1.0  0.72047  0.53650  0.10223  1.0000
  C   C1007     1.0  0.85770  0.61332  0.04277  1.0000
  H   H1615     1.0  0.84822  0.61820  0.02901  1.0000
  H   H1616     1.0  0.75824  0.52847  0.05643  1.0000
  C   C1008     1.0  0.93232  0.73093  0.16748  1.0000
  C   C1009     1.0  0.74453  0.52590  0.06781  1.0000
  H   H1617     1.0  0.94412  0.58970  0.22476  1.0000
  N   N100      1.0  0.94705  0.74785  0.16953  1.0000
  H   H1618     1.0  0.97470  0.53889  0.21654  1.0000
  C   C1010     1.0  0.93585  0.68641  0.10369  1.0000
  C   C1011     1.0  0.91896  0.69771  0.09419  1.0000
  C   C1012     1.0  0.90813  0.68901  0.07806  1.0000
  C   C1013     1.0  0.91390  0.66872  0.07137  1.0000
  C   C1014     1.0  0.93088  0.65747  0.08076  1.0000
  C   C1015     1.0  0.94186  0.66627  0.09671  1.0000
  H   H1619     1.0  0.91409  0.71327  0.09945  1.0000
  H   H1620     1.0  0.89509  0.69787  0.07110  1.0000
  H   H1621     1.0  0.93556  0.64179  0.07574  1.0000
  H   H1622     1.0  0.95476  0.65733  0.10383  1.0000
  H   H1623     1.0  0.73372  0.55366  0.03683  1.0000
  H   H1624     1.0  0.71142  0.53845  0.04492  1.0000
  C   C1016     1.0  0.79403  0.56700  0.01017  1.0000
  N   N101      1.0  0.73086  0.54528  0.07014  1.0000
  H   H1625     1.0  0.94035  0.71505  0.16962  1.0000
  C   C1017     1.0  0.86224  0.57757  0.03136  1.0000
  H   H1626     1.0  0.94677  0.68099  0.03993  1.0000
  H   H1627     1.0  0.84643  0.60858  0.05604  1.0000
  H   H1628     1.0  0.95950  0.54590  0.26233  1.0000
  H   H1629     1.0  0.92591  0.73151  0.15145  1.0000
  S   S409      1.0  0.99784  0.65575  0.14018  1.0000
  H   H1630     1.0  0.89789  0.57754  0.05251  1.0000
  S   S410      1.0  0.67670  0.50571  0.21182  1.0000
  H   H1631     1.0  0.77286  0.74067  0.04158  1.0000
  C   C1018     1.0  0.96469  0.74566  0.15334  1.0000
  C   C1019     1.0  0.88759  0.60310  0.01947  1.0000
  H   H1632     1.0  0.91897  0.56737  0.24663  1.0000
  H   H1633     1.0  0.90401  0.51803  0.28213  1.0000
  Fe  Fe206     1.0  0.00128  0.65910  0.17497  1.0000
  C   C1020     1.0  0.94313  0.69567  0.03028  1.0000
  H   H1634     1.0  0.95431  0.57385  0.25919  1.0000
  S   S411      1.0  0.87254  0.70279  0.01348  1.0000
  H   H1635     1.0  0.89622  0.61704  0.02351  1.0000
  H   H1636     1.0  0.94949  0.53476  0.20661  1.0000
  H   H1637     1.0  0.94151  0.57325  0.20277  1.0000
  H   H1638     1.0  0.70348  0.55589  0.08926  1.0000
  H   H1639     1.0  0.70381  0.52879  0.08242  1.0000
  C   C1021     1.0  0.96050  0.55960  0.25081  1.0000
  C   C1022     1.0  0.71393  0.54151  0.08675  1.0000
  H   H1640     1.0  0.70823  0.50505  0.26493  1.0000
  S   S412      1.0  0.77732  0.54680  0.02056  1.0000
  H   H1641     1.0  0.92460  0.53945  0.24956  1.0000
  C   C1023     1.0  0.80821  0.60175  0.01433  1.0000
  H   H1642     1.0  0.86553  0.62749  0.04752  1.0000
  C   C1024     1.0  0.92628  0.55344  0.23843  1.0000
  H   H1643     1.0  0.96710  0.57743  0.21170  1.0000
  C   C1025     1.0  0.77548  0.74718  0.02561  1.0000
  H   H1644     1.0  0.95338  0.70798  0.03526  1.0000
  Fe  Fe207     1.0  0.83785  0.69692  0.01150  1.0000
  H   H1645     1.0  0.73390  0.57745  0.07807  1.0000
  H   H1646     1.0  0.89952  0.59045  0.01483  1.0000
  H   H1647     1.0  0.80866  0.61577  0.02331  1.0000
  C   C1026     1.0  0.74368  0.56254  0.07613  1.0000
  H   H1648     1.0  0.87348  0.56403  0.02770  1.0000
  H   H1649     1.0  0.73336  0.51975  0.28832  1.0000
  S   S413      1.0  0.73172  0.51239  0.00942  1.0000
  C   C1027     1.0  0.73444  0.50307  0.28552  1.0000
  N   N102      1.0  0.94870  0.55640  0.23189  1.0000
  C   C1028     1.0  0.95038  0.57502  0.21715  1.0000
  C   C1029     1.0  0.95768  0.53748  0.22120  1.0000
  C   C1030     1.0  0.79516  0.58533  0.02171  1.0000
  H   H1650     1.0  0.85329  0.58130  0.01696  1.0000
  C   C1031     1.0  0.88577  0.59040  0.05599  1.0000
  H   H1651     1.0  0.87547  0.58502  0.06981  1.0000
  H   H1652     1.0  0.97753  0.56152  0.24654  1.0000
  C   C1032     1.0  0.90651  0.50271  0.28994  1.0000
  C   C1033     1.0  0.95543  0.74626  0.19086  1.0000
  H   H1653     1.0  0.88034  0.53098  0.33614  1.0000
  S   S414      1.0  0.82412  0.50722  0.33582  1.0000
  H   H1654     1.0  0.93503  0.66077  0.01086  1.0000
  H   H1655     1.0  0.97271  0.67001  0.01112  1.0000
  S   S415      1.0  0.00025  0.63347  0.20151  1.0000
  H   H1656     1.0  0.96435  0.73093  0.19368  1.0000
  H   H1657     1.0  0.97960  0.69691  0.00627  1.0000
  N   N103      1.0  0.94630  0.69214  0.00735  1.0000
  H   H1658     1.0  0.87863  0.60769  0.00522  1.0000
  H   H1659     1.0  0.94261  0.74766  0.20357  1.0000
  H   H1660     1.0  0.91538  0.68109  0.00509  1.0000
  H   H1661     1.0  0.87433  0.50201  0.30327  1.0000
  Fe  Fe208     1.0  0.79794  0.65577  0.50921  1.0000
  S   S416      1.0  0.81386  0.65574  0.47644  1.0000
  S   S417      1.0  0.76872  0.67650  0.52025  1.0000
  Fe  Fe209     1.0  0.82564  0.61695  0.52454  1.0000
  S   S418      1.0  0.84238  0.61438  0.49224  1.0000
  S   S419      1.0  0.84058  0.59362  0.54860  1.0000
  Fe  Fe210     1.0  0.84439  0.64963  0.49296  1.0000
  S   S420      1.0  0.87652  0.66189  0.48112  1.0000
  Fe  Fe211     1.0  0.81075  0.62046  0.47872  1.0000
  S   S421      1.0  0.79424  0.60344  0.45367  1.0000
  S   S422      1.0  0.82879  0.65210  0.52568  1.0000
  S   S423      1.0  0.79373  0.62063  0.51101  1.0000
  H   H1662     1.0  0.76766  0.55628  0.64977  1.0000
  S   S424      1.0  0.80202  0.53520  0.62473  1.0000
  H   H1663     1.0  0.95698  0.72421  0.56440  1.0000
  S   S425      1.0  0.83213  0.53216  0.39135  1.0000
  Fe  Fe212     1.0  0.97782  0.72504  0.51037  1.0000
  S   S426      1.0  0.94450  0.71612  0.52227  1.0000
  C   C1034     1.0  0.82900  0.57672  0.56878  1.0000
  C   C1035     1.0  0.84177  0.56053  0.57813  1.0000
  C   C1036     1.0  0.83364  0.54729  0.59482  1.0000
  C   C1037     1.0  0.81268  0.55035  0.60265  1.0000
  C   C1038     1.0  0.79989  0.56652  0.59327  1.0000
  C   C1039     1.0  0.80792  0.57952  0.57631  1.0000
  H   H1664     1.0  0.85810  0.55823  0.57250  1.0000
  H   H1665     1.0  0.84370  0.53500  0.60190  1.0000
  H   H1666     1.0  0.78368  0.56907  0.59920  1.0000
  H   H1667     1.0  0.79793  0.59195  0.56939  1.0000
  C   C1040     1.0  0.80497  0.58300  0.43713  1.0000
  C   C1041     1.0  0.82661  0.57750  0.43537  1.0000
  C   C1042     1.0  0.83451  0.56182  0.42142  1.0000
  C   C1043     1.0  0.82093  0.55122  0.40924  1.0000
  C   C1044     1.0  0.79925  0.55650  0.41121  1.0000
  C   C1045     1.0  0.79137  0.57238  0.42497  1.0000
  H   H1668     1.0  0.83729  0.58553  0.44452  1.0000
  H   H1669     1.0  0.85129  0.55794  0.42005  1.0000
  H   H1670     1.0  0.78859  0.54860  0.40192  1.0000
  H   H1671     1.0  0.77462  0.57649  0.42613  1.0000
  C   C1046     1.0  0.89507  0.67707  0.49297  1.0000
  C   C1047     1.0  0.91455  0.68060  0.48190  1.0000
  C   C1048     1.0  0.92989  0.69236  0.49062  1.0000
  C   C1049     1.0  0.92593  0.70081  0.51057  1.0000
  C   C1050     1.0  0.90650  0.69716  0.52173  1.0000
  C   C1051     1.0  0.89116  0.68536  0.51303  1.0000
  H   H1672     1.0  0.91775  0.67430  0.46637  1.0000
  H   H1673     1.0  0.94469  0.69502  0.48179  1.0000
  H   H1674     1.0  0.90318  0.70363  0.53716  1.0000
  H   H1675     1.0  0.87624  0.68291  0.52171  1.0000
  C   C1052     1.0  0.72711  0.73307  0.49444  1.0000
  C   C1053     1.0  0.74535  0.72573  0.48261  1.0000
  C   C1054     1.0  0.75840  0.70869  0.49025  1.0000
  C   C1055     1.0  0.75338  0.69865  0.50992  1.0000
  C   C1056     1.0  0.73517  0.70603  0.52175  1.0000
  C   C1057     1.0  0.72215  0.72310  0.51413  1.0000
  H   H1676     1.0  0.77240  0.70343  0.48097  1.0000
  H   H1677     1.0  0.73105  0.69843  0.53697  1.0000
  H   H1678     1.0  0.70822  0.72846  0.52347  1.0000
  N   N104      1.0  0.75181  0.53331  0.67000  1.0000
  H   H1679     1.0  0.74942  0.73329  0.46737  1.0000
  C   C1058     1.0  0.87496  0.51968  0.34899  1.0000
  C   C1059     1.0  0.88308  0.62713  0.53365  1.0000
  H   H1680     1.0  0.91130  0.63413  0.50116  1.0000
  H   H1681     1.0  0.86881  0.62762  0.52436  1.0000
  H   H1682     1.0  0.87787  0.62276  0.55032  1.0000
  H   H1683     1.0  0.88871  0.64342  0.53312  1.0000
  H   H1684     1.0  0.87687  0.59001  0.51711  1.0000
  Fe  Fe213     1.0  0.81843  0.50730  0.37146  1.0000
  H   H1685     1.0  0.88652  0.58557  0.54292  1.0000
  H   H1686     1.0  0.93101  0.60077  0.53160  1.0000
  H   H1687     1.0  0.73283  0.52585  0.64458  1.0000
  C   C1060     1.0  0.89383  0.53477  0.37600  1.0000
  C   C1061     1.0  0.91831  0.61209  0.53760  1.0000
  H   H1688     1.0  0.91677  0.52014  0.34156  1.0000
  H   H1689     1.0  0.97461  0.73741  0.57977  1.0000
  H   H1690     1.0  0.90310  0.57865  0.51994  1.0000
  H   H1691     1.0  0.74576  0.50343  0.65755  1.0000
  H   H1692     1.0  0.92486  0.62802  0.53694  1.0000
  H   H1693     1.0  0.87107  0.50501  0.34157  1.0000
  H   H1694     1.0  0.95079  0.72735  0.59216  1.0000
  N   N105      1.0  0.74169  0.64587  0.46906  1.0000
  C   C1062     1.0  0.76127  0.65667  0.46286  1.0000
  C   C1063     1.0  0.73531  0.63439  0.45088  1.0000
  C   C1064     1.0  0.72484  0.66163  0.47553  1.0000
  C   C1065     1.0  0.74553  0.63075  0.48699  1.0000
  H   H1695     1.0  0.77416  0.64528  0.45738  1.0000
  H   H1696     1.0  0.76694  0.66487  0.47641  1.0000
  H   H1697     1.0  0.75889  0.66866  0.44978  1.0000
  H   H1698     1.0  0.72065  0.62592  0.45497  1.0000
  H   H1699     1.0  0.73241  0.64529  0.43700  1.0000
  H   H1700     1.0  0.74787  0.62241  0.44576  1.0000
  H   H1701     1.0  0.72184  0.67363  0.46257  1.0000
  H   H1702     1.0  0.72922  0.67024  0.48944  1.0000
  H   H1703     1.0  0.70974  0.65410  0.48010  1.0000
  H   H1704     1.0  0.73111  0.62231  0.49218  1.0000
  H   H1705     1.0  0.75056  0.63889  0.50095  1.0000
  H   H1706     1.0  0.75818  0.61863  0.48262  1.0000
  H   H1707     1.0  0.89120  0.61826  0.49286  1.0000
  H   H1708     1.0  0.90584  0.53216  0.38803  1.0000
  H   H1709     1.0  0.87875  0.54032  0.38446  1.0000
  C   C1066     1.0  0.89124  0.59059  0.52629  1.0000
  H   H1710     1.0  0.91442  0.60765  0.55455  1.0000
  C   C1067     1.0  0.90517  0.61802  0.50271  1.0000
  N   N106      1.0  0.89946  0.61194  0.52506  1.0000
  H   H1711     1.0  0.91744  0.60692  0.49560  1.0000
  S   S427      1.0  0.00129  0.71184  0.48560  1.0000
  N   N107      1.0  0.89104  0.51535  0.36473  1.0000
  H   H1712     1.0  0.85997  0.52649  0.35640  1.0000
  C   C1068     1.0  0.95765  0.73526  0.57749  1.0000
  H   H1713     1.0  0.76065  0.52048  0.63966  1.0000
  C   C1069     1.0  0.74753  0.52020  0.65219  1.0000
  H   H1714     1.0  0.89886  0.54779  0.36482  1.0000
  Fe  Fe214     1.0  0.81541  0.50412  0.63945  1.0000
  H   H1715     1.0  0.92234  0.74116  0.55638  1.0000
  H   H1716     1.0  0.91604  0.74453  0.58411  1.0000
  H   H1717     1.0  0.73988  0.56199  0.65466  1.0000
  H   H1718     1.0  0.78525  0.52595  0.66792  1.0000
  C   C1070     1.0  0.75434  0.55530  0.66205  1.0000
  S   S428      1.0  0.00134  0.72316  0.53585  1.0000
  H   H1719     1.0  0.86873  0.50342  0.38859  1.0000
  C   C1071     1.0  0.91123  0.50825  0.35380  1.0000
  H   H1720     1.0  0.92387  0.50517  0.36511  1.0000
  C   C1072     1.0  0.92356  0.70816  0.87053  1.0000
  S   S429      1.0  0.84239  0.68322  0.97907  1.0000
  Fe  Fe215     1.0  0.87732  0.68701  0.98215  1.0000
  S   S430      1.0  0.90276  0.70157  0.95965  1.0000
  H   H1721     1.0  0.94576  0.68250  0.84427  1.0000
  C   C1073     1.0  0.77142  0.52516  0.67956  1.0000
  S   S431      1.0  0.96552  0.65725  0.89013  1.0000
  H   H1722     1.0  0.91963  0.73578  0.83719  1.0000
  C   C1074     1.0  0.93488  0.73537  0.84499  1.0000
  C   C1075     1.0  0.96119  0.52624  0.81128  1.0000
  H   H1723     1.0  0.92713  0.69207  0.87758  1.0000
  C   C1076     1.0  0.93661  0.51502  0.78692  1.0000
  C   C1077     1.0  0.92060  0.68863  0.94108  1.0000
  C   C1078     1.0  0.93769  0.69957  0.93164  1.0000
  C   C1079     1.0  0.95206  0.69003  0.91659  1.0000
  C   C1080     1.0  0.94919  0.66957  0.91040  1.0000
  C   C1081     1.0  0.93220  0.65862  0.91998  1.0000
  C   C1082     1.0  0.91810  0.66799  0.93534  1.0000
  H   H1724     1.0  0.93983  0.71553  0.93598  1.0000
  H   H1725     1.0  0.96527  0.69853  0.90975  1.0000
  H   H1726     1.0  0.92982  0.64278  0.91535  1.0000
  H   H1727     1.0  0.90502  0.65937  0.94239  1.0000
  H   H1728     1.0  0.77029  0.50843  0.68520  1.0000
  C   C1083     1.0  0.96054  0.71455  0.86442  1.0000
  H   H1729     1.0  0.95032  0.52275  0.82528  1.0000
  C   C1084     1.0  0.94204  0.69870  0.83759  1.0000
  H   H1730     1.0  0.96547  0.69864  0.87088  1.0000
  H   H1731     1.0  0.92714  0.69827  0.82933  1.0000
  C   C1085     1.0  0.82047  0.60003  0.99529  1.0000
  H   H1732     1.0  0.93403  0.67269  0.98448  1.0000
  C   C1086     1.0  0.70041  0.53877  0.88369  1.0000
  H   H1733     1.0  0.94731  0.74021  0.83276  1.0000
  H   H1734     1.0  0.92445  0.71750  0.99826  1.0000
  C   C1087     1.0  0.66904  0.52420  0.87203  1.0000
  H   H1735     1.0  0.73680  0.54208  0.69995  1.0000
  H   H1736     1.0  0.67876  0.57573  0.87644  1.0000
  H   H1737     1.0  0.71052  0.55254  0.88313  1.0000
  C   C1088     1.0  0.79591  0.74786  0.99223  1.0000
  H   H1738     1.0  0.67655  0.54861  0.83736  1.0000
  H   H1739     1.0  0.92213  0.71913  0.88382  1.0000
  S   S432      1.0  0.98987  0.66820  0.83375  1.0000
  N   N108      1.0  0.94951  0.53248  0.79229  1.0000
  H   H1740     1.0  0.95968  0.72551  0.87768  1.0000
  H   H1741     1.0  0.75780  0.56562  0.67501  1.0000
  H   H1742     1.0  0.69944  0.56049  0.84595  1.0000
  H   H1743     1.0  0.73172  0.51613  0.69240  1.0000
  C   C1089     1.0  0.81945  0.58165  0.98383  1.0000
  N   N109      1.0  0.94020  0.71421  0.85439  1.0000
  H   H1744     1.0  0.80918  0.74212  0.98220  1.0000
  H   H1745     1.0  0.69523  0.53529  0.90056  1.0000
  H   H1746     1.0  0.71055  0.52494  0.87833  1.0000
  H   H1747     1.0  0.92682  0.55664  0.78243  1.0000
  H   H1748     1.0  0.98698  0.73517  0.68620  1.0000
  H   H1749     1.0  0.90789  0.70802  0.86364  1.0000
  C   C1090     1.0  0.68990  0.54631  0.84801  1.0000
  C   C1091     1.0  0.93215  0.67588  0.00168  1.0000
  H   H1750     1.0  0.93357  0.74748  0.85722  1.0000
  S   S433      1.0  0.83829  0.61957  0.98569  1.0000
  S   S434      1.0  0.88224  0.65488  0.99722  1.0000
  H   H1751     1.0  0.97126  0.68211  0.98501  1.0000
  Fe  Fe216     1.0  0.84717  0.65173  0.99691  1.0000
  H   H1752     1.0  0.97335  0.71964  0.85284  1.0000
  Fe  Fe217     1.0  0.99442  0.66643  0.86876  1.0000
  H   H1753     1.0  0.97151  0.53888  0.81547  1.0000
  H   H1754     1.0  0.92394  0.54839  0.80997  1.0000
  H   H1755     1.0  0.97173  0.51190  0.80862  1.0000
  S   S435      1.0  0.99529  0.72515  0.81263  1.0000
  C   C1092     1.0  0.73402  0.53255  0.68616  1.0000
  H   H1756     1.0  0.77494  0.53427  0.69340  1.0000
  H   H1757     1.0  0.97430  0.55075  0.77748  1.0000
  H   H1758     1.0  0.80569  0.55135  0.98206  1.0000
  H   H1759     1.0  0.95137  0.72479  0.99924  1.0000
  H   H1760     1.0  0.95491  0.70248  0.82545  1.0000
  H   H1761     1.0  0.94502  0.56483  0.80073  1.0000
  C   C1093     1.0  0.96468  0.53724  0.77433  1.0000
  H   H1762     1.0  0.71892  0.53861  0.67955  1.0000
  H   H1763     1.0  0.82888  0.58007  0.96912  1.0000
  H   H1764     1.0  0.92505  0.51081  0.80012  1.0000
  C   C1094     1.0  0.93568  0.55142  0.79655  1.0000
  C   C1095     1.0  0.80630  0.56529  0.99115  1.0000
  C   C1096     1.0  0.96846  0.68499  0.00223  1.0000
  H   H1765     1.0  0.95659  0.54097  0.75938  1.0000
  H   H1766     1.0  0.94359  0.70984  0.97782  1.0000
  H   H1767     1.0  0.67786  0.51011  0.86557  1.0000
  H   H1768     1.0  0.97582  0.52353  0.77140  1.0000
  C   C1097     1.0  0.99916  0.74704  0.68338  1.0000
  H   H1769     1.0  0.92771  0.51914  0.77254  1.0000
  H   H1770     1.0  0.99625  0.73160  0.72362  1.0000
  N   N110      1.0  0.68220  0.54270  0.87032  1.0000
  C   C1098     1.0  0.94128  0.71198  0.99519  1.0000
  H   H1771     1.0  0.90619  0.51242  0.72321  1.0000
  S   S436      1.0  0.68437  0.50579  0.81019  1.0000
  C   C1099     1.0  0.66936  0.56142  0.87745  1.0000
  H   H1772     1.0  0.70005  0.53262  0.84232  1.0000
  Fe  Fe218     1.0  0.72410  0.97497  0.17211  1.0000
  S   S437      1.0  0.74643  0.96308  0.19796  1.0000
  Fe  Fe219     1.0  0.69560  0.96019  0.13756  1.0000
  H   H1773     1.0  0.72644  0.99142  0.04310  1.0000
  H   H1774     1.0  0.68457  0.96930  0.04503  1.0000
  Fe  Fe220     1.0  0.83611  0.99184  0.27998  1.0000
  S   S438      1.0  0.72782  0.97327  0.13646  1.0000
  S   S439      1.0  0.69319  0.95873  0.17326  1.0000
  Fe  Fe221     1.0  0.70613  0.85103  0.02680  1.0000
  S   S440      1.0  0.72312  0.86953  0.05036  1.0000
  H   H1775     1.0  0.70830  0.96317  0.23141  1.0000
  H   H1776     1.0  0.74777  0.76855  0.02776  1.0000
  H   H1777     1.0  0.76939  0.84823  0.06059  1.0000
  S   S441      1.0  0.70309  0.81581  0.03058  1.0000
  N   N111      1.0  0.70216  0.99537  0.24022  1.0000
  C   C1100     1.0  0.94006  0.92182  0.29583  1.0000
  Fe  Fe222     1.0  0.86572  0.96265  0.30753  1.0000
  H   H1778     1.0  0.91645  0.94759  0.29835  1.0000
  S   S442      1.0  0.87744  0.92859  0.31488  1.0000
  H   H1779     1.0  0.75950  0.85160  0.02346  1.0000
  S   S443      1.0  0.83038  0.96861  0.30721  1.0000
  C   C1101     1.0  0.75521  0.81415  0.04394  1.0000
  H   H1780     1.0  0.68094  0.98558  0.26605  1.0000
  S   S444      1.0  0.97092  0.88989  0.29308  1.0000
  S   S445      1.0  0.97911  0.82686  0.31274  1.0000
  C   C1102     1.0  0.90331  0.91796  0.30798  1.0000
  C   C1103     1.0  0.90773  0.89610  0.31059  1.0000
  C   C1104     1.0  0.92817  0.88712  0.30572  1.0000
  C   C1105     1.0  0.94455  0.89999  0.29855  1.0000
  H   H1781     1.0  0.79735  0.96086  0.25391  1.0000
  C   C1106     1.0  0.91959  0.93077  0.30050  1.0000
  H   H1782     1.0  0.89518  0.88600  0.31606  1.0000
  H   H1783     1.0  0.93114  0.87024  0.30713  1.0000
  C   C1107     1.0  0.71273  0.99770  0.05311  1.0000
  H   H1784     1.0  0.78747  0.79953  0.01774  1.0000
  C   C1108     1.0  0.72081  0.97297  0.08180  1.0000
  C   C1109     1.0  0.77194  0.83913  0.01951  1.0000
  C   C1110     1.0  0.69807  0.97738  0.22735  1.0000
  C   C1111     1.0  0.72451  0.00059  0.23662  1.0000
  C   C1112     1.0  0.76123  0.76314  0.01782  1.0000
  C   C1113     1.0  0.76677  0.97394  0.21183  1.0000
  C   C1114     1.0  0.77531  0.96215  0.22896  1.0000
  C   C1115     1.0  0.79094  0.97023  0.24090  1.0000
  N   N112      1.0  0.70418  0.98116  0.06786  1.0000
  H   H1785     1.0  0.78408  0.82508  0.06992  1.0000
  H   H1786     1.0  0.68127  0.97313  0.22927  1.0000
  H   H1787     1.0  0.76981  0.94660  0.23304  1.0000
  H   H1788     1.0  0.92236  0.77080  0.17831  1.0000
  S   S446      1.0  0.87117  0.98366  0.27845  1.0000
  C   C1116     1.0  0.69452  0.91811  0.09775  1.0000
  C   C1117     1.0  0.71638  0.91399  0.09530  1.0000
  C   C1118     1.0  0.72484  0.89918  0.08067  1.0000
  C   C1119     1.0  0.71163  0.88838  0.06825  1.0000
  C   C1120     1.0  0.68982  0.89273  0.07050  1.0000
  H   H1789     1.0  0.94653  0.78168  0.16775  1.0000
  H   H1790     1.0  0.72673  0.92193  0.10490  1.0000
  H   H1791     1.0  0.74173  0.89590  0.07913  1.0000
  H   H1792     1.0  0.79388  0.79582  0.04484  1.0000
  S   S447      1.0  0.81865  0.00115  0.24976  1.0000
  H   H1793     1.0  0.71471  0.96098  0.09362  1.0000
  H   H1794     1.0  0.73444  0.96536  0.07268  1.0000
  H   H1795     1.0  0.69026  0.95123  0.06672  1.0000
  H   H1796     1.0  0.71033  0.95607  0.04624  1.0000
  C   C1121     1.0  0.79843  0.99022  0.23577  1.0000
  C   C1122     1.0  0.77410  0.99404  0.20683  1.0000
  H   H1797     1.0  0.74263  0.82596  0.04926  1.0000
  C   C1123     1.0  0.79168  0.80795  0.03182  1.0000
  C   C1124     1.0  0.93580  0.76859  0.16635  1.0000
  S   S448      1.0  0.67440  0.85652  0.01322  1.0000
  H   H1798     1.0  0.75713  0.80213  0.05709  1.0000
  S   S449      1.0  0.68273  0.93675  0.11568  1.0000
  H   H1799     1.0  0.95253  0.93192  0.29011  1.0000
  H   H1800     1.0  0.70784  0.97575  0.26799  1.0000
  H   H1801     1.0  0.97626  0.75807  0.15438  1.0000
  C   C1125     1.0  0.69769  0.98965  0.26286  1.0000
  H   H1802     1.0  0.67910  0.97813  0.09197  1.0000
  N   N113      1.0  0.77517  0.82426  0.03778  1.0000
  Fe  Fe223     1.0  0.98950  0.85909  0.30165  1.0000
  C   C1126     1.0  0.68136  0.90746  0.08518  1.0000
  H   H1803     1.0  0.79665  0.84380  0.05179  1.0000
  H   H1804     1.0  0.96664  0.75880  0.19290  1.0000
  C   C1127     1.0  0.78167  0.83584  0.05583  1.0000
  H   H1805     1.0  0.80716  0.81491  0.02770  1.0000
  Fe  Fe224     1.0  0.67791  0.99132  0.17121  1.0000
  H   H1806     1.0  0.67943  0.88454  0.06115  1.0000
  H   H1807     1.0  0.74934  0.80609  0.03040  1.0000
  C   C1128     1.0  0.68611  0.99027  0.08083  1.0000
  H   H1808     1.0  0.73530  0.98709  0.24146  1.0000
  S   S450      1.0  0.67789  0.99191  0.13563  1.0000
  H   H1809     1.0  0.70146  0.98119  0.21024  1.0000
  Fe  Fe225     1.0  0.83518  0.99486  0.32887  1.0000
  S   S451      1.0  0.87034  0.98797  0.33034  1.0000
  H   H1810     1.0  0.72694  0.98579  0.09074  1.0000
  C   C1129     1.0  0.69704  0.96372  0.05584  1.0000
  H   H1811     1.0  0.76686  0.83086  0.00566  1.0000
  H   H1812     1.0  0.96032  0.86919  0.33237  1.0000
  Fe  Fe226     1.0  0.67246  0.82116  0.01408  1.0000
  H   H1813     1.0  0.67335  0.99692  0.07086  1.0000
  H   H1814     1.0  0.78666  0.84707  0.01434  1.0000
  H   H1815     1.0  0.92933  0.77029  0.15036  1.0000
  H   H1816     1.0  0.86308  0.00161  0.23093  1.0000
  H   H1817     1.0  0.83006  0.93090  0.33677  1.0000
  C   C1130     1.0  0.82739  0.99852  0.39384  1.0000
  H   H1818     1.0  0.76163  0.83408  0.50202  1.0000
  H   H1819     1.0  0.73881  0.83734  0.51994  1.0000
  C   C1131     1.0  0.82584  0.99657  0.60937  1.0000
  H   H1820     1.0  0.91475  0.76688  0.56570  1.0000
  H   H1821     1.0  0.85726  0.95034  0.38203  1.0000
  H   H1822     1.0  0.96434  0.77315  0.59271  1.0000
  H   H1823     1.0  0.98265  0.89176  0.35083  1.0000
  N   N114      1.0  0.83206  0.93367  0.37030  1.0000
  H   H1824     1.0  0.98528  0.78594  0.44301  1.0000
  H   H1825     1.0  0.75746  0.95846  0.63911  1.0000
  H   H1826     1.0  0.80584  0.92596  0.39193  1.0000
  Fe  Fe227     1.0  0.74659  0.95669  0.49831  1.0000
  S   S452      1.0  0.78210  0.95363  0.49874  1.0000
  S   S453      1.0  0.72895  0.92993  0.48483  1.0000
  Fe  Fe228     1.0  0.77830  0.97132  0.52907  1.0000
  S   S454      1.0  0.79739  0.95978  0.55741  1.0000
  Fe  Fe229     1.0  0.78190  0.98534  0.48143  1.0000
  H   H1827     1.0  0.71686  0.80734  0.52980  1.0000
  S   S455      1.0  0.74268  0.97248  0.52973  1.0000
  S   S456      1.0  0.74664  0.98783  0.47920  1.0000
  C   C1132     1.0  0.84277  0.91261  0.37308  1.0000
  H   H1828     1.0  0.94081  0.76288  0.60546  1.0000
  H   H1829     1.0  0.95460  0.75525  0.53927  1.0000
  H   H1830     1.0  0.81201  0.97272  0.64770  1.0000
  S   S457      1.0  0.88617  0.99782  0.66550  1.0000
  H   H1831     1.0  0.76077  0.95140  0.66658  1.0000
  S   S458      1.0  0.99100  0.82335  0.37326  1.0000
  C   C1133     1.0  0.94499  0.87062  0.38453  1.0000
  H   H1832     1.0  0.94754  0.90576  0.34238  1.0000
  H   H1833     1.0  0.85372  0.90896  0.35911  1.0000
  H   H1834     1.0  0.98588  0.87043  0.37015  1.0000
  S   S459      1.0  0.67681  0.78641  0.52810  1.0000
  C   C1134     1.0  0.76061  0.79176  0.49985  1.0000
  H   H1835     1.0  0.77076  0.79882  0.48674  1.0000
  H   H1836     1.0  0.75439  0.77714  0.49397  1.0000
  H   H1837     1.0  0.83119  0.90005  0.37490  1.0000
  H   H1838     1.0  0.92837  0.86624  0.38350  1.0000
  C   C1135     1.0  0.83075  0.97503  0.60723  1.0000
  C   C1136     1.0  0.82207  0.96414  0.59113  1.0000
  C   C1137     1.0  0.80866  0.97463  0.57672  1.0000
  H   H1839     1.0  0.84109  0.96668  0.61809  1.0000
  H   H1840     1.0  0.82583  0.94744  0.58979  1.0000
  S   S460      1.0  0.98420  0.75883  0.50054  1.0000
  C   C1138     1.0  0.69988  0.86874  0.51287  1.0000
  C   C1139     1.0  0.70231  0.87267  0.49095  1.0000
  C   C1140     1.0  0.71133  0.89138  0.48273  1.0000
  C   C1141     1.0  0.71845  0.90623  0.49621  1.0000
  C   C1142     1.0  0.71650  0.90199  0.51810  1.0000
  C   C1143     1.0  0.70722  0.88342  0.52634  1.0000
  H   H1841     1.0  0.71287  0.89444  0.46577  1.0000
  H   H1842     1.0  0.73932  0.82052  0.47558  1.0000
  H   H1843     1.0  0.72185  0.91320  0.52871  1.0000
  H   H1844     1.0  0.70552  0.88056  0.54332  1.0000
  H   H1845     1.0  0.93632  0.85988  0.34508  1.0000
  H   H1846     1.0  0.93559  0.91116  0.65525  1.0000
  C   C1144     1.0  0.81971  0.93426  0.35122  1.0000
  H   H1847     1.0  0.77429  0.99102  0.42666  1.0000
  S   S461      1.0  0.67710  0.80572  0.47891  1.0000
  H   H1848     1.0  0.79637  0.95706  0.63253  1.0000
  N   N115      1.0  0.95364  0.87943  0.36401  1.0000
  C   C1145     1.0  0.79745  0.96371  0.64839  1.0000
  Fe  Fe230     1.0  0.85131  0.99859  0.66027  1.0000
  H   H1849     1.0  0.85221  0.91163  0.38737  1.0000
  H   H1850     1.0  0.77082  0.78687  0.51306  1.0000
  H   H1851     1.0  0.94531  0.88209  0.39725  1.0000
  C   C1146     1.0  0.78911  0.99309  0.41764  1.0000
  H   H1852     1.0  0.97710  0.89630  0.37843  1.0000
  C   C1147     1.0  0.78979  0.99414  0.39530  1.0000
  C   C1148     1.0  0.99444  0.78722  0.42809  1.0000
  H   H1853     1.0  0.94793  0.78097  0.54901  1.0000
  C   C1149     1.0  0.80413  0.99628  0.57855  1.0000
  C   C1150     1.0  0.95283  0.86360  0.34776  1.0000
  C   C1151     1.0  0.81776  0.93812  0.38906  1.0000
  N   N116      1.0  0.74318  0.80668  0.50683  1.0000
  N   N117      1.0  0.77866  0.97739  0.65420  1.0000
  C   C1152     1.0  0.73012  0.79648  0.52404  1.0000
  C   C1153     1.0  0.73007  0.81257  0.48880  1.0000
  C   C1154     1.0  0.75177  0.82586  0.51461  1.0000
  H   H1854     1.0  0.84062  0.96572  0.36478  1.0000
  H   H1855     1.0  0.72347  0.79844  0.48241  1.0000
  S   S462      1.0  0.68768  0.84596  0.52432  1.0000
  H   H1856     1.0  0.76167  0.82209  0.52831  1.0000
  H   H1857     1.0  0.80890  0.95356  0.38699  1.0000
  H   H1858     1.0  0.97282  0.76786  0.55448  1.0000
  C   C1155     1.0  0.97578  0.88472  0.36599  1.0000
  H   H1859     1.0  0.77539  0.99277  0.38728  1.0000
  H   H1860     1.0  0.94101  0.91089  0.36970  1.0000
  H   H1861     1.0  0.72322  0.78204  0.51863  1.0000
  H   H1862     1.0  0.81157  0.95005  0.34855  1.0000
  H   H1863     1.0  0.85942  0.94656  0.35396  1.0000
  Fe  Fe231     1.0  0.67159  0.81818  0.51141  1.0000
  H   H1864     1.0  0.97416  0.81235  0.41520  1.0000
  C   C1156     1.0  0.80891  0.99678  0.38325  1.0000
  H   H1865     1.0  0.77620  0.98916  0.62194  1.0000
  H   H1866     1.0  0.71658  0.82356  0.49361  1.0000
  H   H1867     1.0  0.82656  0.93879  0.40367  1.0000
  C   C1157     1.0  0.94106  0.89867  0.35768  1.0000
  H   H1868     1.0  0.93907  0.78528  0.58719  1.0000
  Fe  Fe232     1.0  0.68109  0.77356  0.49554  1.0000
  C   C1158     1.0  0.94763  0.76982  0.59028  1.0000
  N   N118      1.0  0.94622  0.75560  0.57262  1.0000
  H   H1869     1.0  0.73951  0.79164  0.53787  1.0000
  H   H1870     1.0  0.80736  0.92246  0.35262  1.0000
  S   S463      1.0  0.80752  0.99498  0.45629  1.0000
  H   H1871     1.0  0.96135  0.84856  0.35238  1.0000
  C   C1159     1.0  0.95580  0.76537  0.55299  1.0000
  H   H1872     1.0  0.69713  0.86142  0.48036  1.0000
  S   S464      1.0  0.80880  0.99709  0.35515  1.0000
  H   H1873     1.0  0.95433  0.85608  0.38957  1.0000
  C   C1160     1.0  0.98812  0.80218  0.41223  1.0000
  C   C1161     1.0  0.80755  0.99504  0.42821  1.0000
  H   H1874     1.0  0.99799  0.81500  0.47748  1.0000
  C   C1162     1.0  0.84807  0.94974  0.36769  1.0000
  H   H1875     1.0  0.92437  0.89522  0.35538  1.0000
  C   C1163     1.0  0.82665  0.99781  0.41618  1.0000
  S   S465      1.0  0.71135  0.75476  0.48384  1.0000
  H   H1876     1.0  0.84097  0.99951  0.42422  1.0000
  H   H1877     1.0  0.84219  0.00076  0.38484  1.0000
  H   H1878     1.0  0.79968  0.95034  0.66013  1.0000
  H   H1879     1.0  0.74514  0.97472  0.65934  1.0000
  C   C1164     1.0  0.75964  0.96494  0.65486  1.0000
  C   C1165     1.0  0.99953  0.80389  0.39248  1.0000
  C   C1166     1.0  0.77662  0.99499  0.63826  1.0000
  C   C1167     1.0  0.92384  0.75191  0.56962  1.0000
  H   H1880     1.0  0.97714  0.75924  0.78704  1.0000
  C   C1168     1.0  0.93442  0.90785  0.67218  1.0000
  Fe  Fe233     1.0  0.70517  0.96434  0.86586  1.0000
  C   C1169     1.0  0.93121  0.89881  0.71566  1.0000
  S   S466      1.0  0.71989  0.93794  0.88680  1.0000
  H   H1881     1.0  0.99458  0.91454  0.74290  1.0000
  H   H1882     1.0  0.73704  0.90871  0.91787  1.0000
  S   S467      1.0  0.70728  0.96360  0.83032  1.0000
  S   S468      1.0  0.72351  0.99353  0.86595  1.0000
  S   S469      1.0  0.67369  0.98234  0.86700  1.0000
  S   S470      1.0  0.68808  0.81749  0.98150  1.0000
  Fe  Fe234     1.0  0.69113  0.85275  0.98113  1.0000
  S   S471      1.0  0.84620  0.96718  0.67664  1.0000
  Fe  Fe235     1.0  0.83942  0.98495  0.70670  1.0000
  Fe  Fe236     1.0  0.72435  0.99356  0.83021  1.0000
  S   S472      1.0  0.75827  0.99602  0.81523  1.0000
  S   S473      1.0  0.67658  0.87446  0.95537  1.0000
  H   H1883     1.0  0.70693  0.98025  0.96304  1.0000
  C   C1170     1.0  0.99383  0.75802  0.78247  1.0000
  S   S474      1.0  0.87365  0.98189  0.71510  1.0000
  H   H1884     1.0  0.79551  0.99504  0.67530  1.0000
  C   C1171     1.0  0.99237  0.90665  0.72794  1.0000
  C   C1172     1.0  0.79386  0.98477  0.75013  1.0000
  S   S475      1.0  0.96092  0.86566  0.71483  1.0000
  H   H1885     1.0  0.98651  0.90668  0.68586  1.0000
  S   S476      1.0  0.74811  0.79346  0.98697  1.0000
  C   C1173     1.0  0.92014  0.92014  0.68500  1.0000
  C   C1174     1.0  0.66952  0.99912  0.92996  1.0000
  H   H1886     1.0  0.72316  0.99393  0.92852  1.0000
  C   C1175     1.0  0.94540  0.88647  0.70281  1.0000
  C   C1176     1.0  0.77132  0.99155  0.78986  1.0000
  C   C1177     1.0  0.91870  0.91562  0.70685  1.0000
  H   H1887     1.0  0.82174  0.98760  0.76713  1.0000
  Fe  Fe237     1.0  0.67700  0.98417  0.83125  1.0000
  C   C1178     1.0  0.76443  0.77192  0.99725  1.0000
  C   C1179     1.0  0.94701  0.89114  0.68100  1.0000
  H   H1888     1.0  0.78457  0.77063  0.96861  1.0000
  H   H1889     1.0  0.97545  0.90910  0.72434  1.0000
  Fe  Fe238     1.0  0.88071  0.96694  0.68359  1.0000
  C   C1180     1.0  0.79353  0.99175  0.78777  1.0000
  H   H1890     1.0  0.67561  0.92861  0.89746  1.0000
  C   C1181     1.0  0.80472  0.98818  0.76816  1.0000
  N   N119      1.0  0.69011  0.98897  0.93531  1.0000
  Fe  Fe239     1.0  0.98909  0.84606  0.70068  1.0000
  S   S477      1.0  0.99176  0.81050  0.70028  1.0000
  H   H1891     1.0  0.67882  0.97823  0.96640  1.0000
  H   H1892     1.0  0.90774  0.92485  0.71689  1.0000
  H   H1893     1.0  0.76731  0.99651  0.68015  1.0000
  C   C1182     1.0  0.69208  0.96751  0.92714  1.0000
  C   C1183     1.0  0.70745  0.92047  0.90578  1.0000
  C   C1184     1.0  0.68552  0.91907  0.90784  1.0000
  S   S478      1.0  0.72312  0.84962  0.99454  1.0000
  C   C1185     1.0  0.68901  0.89217  0.93664  1.0000
  C   C1186     1.0  0.71092  0.89374  0.93469  1.0000
  C   C1187     1.0  0.72006  0.90776  0.91930  1.0000
  H   H1894     1.0  0.99191  0.78393  0.75905  1.0000
  H   H1895     1.0  0.92977  0.89527  0.73255  1.0000
  H   H1896     1.0  0.72083  0.88397  0.94489  1.0000
  N   N120      1.0  0.76582  0.93111  0.83514  1.0000
  C   C1188     1.0  0.74856  0.91705  0.84157  1.0000
  C   C1189     1.0  0.78637  0.91939  0.83711  1.0000
  C   C1190     1.0  0.76457  0.94927  0.84901  1.0000
  C   C1191     1.0  0.76383  0.93877  0.81290  1.0000
  H   H1897     1.0  0.74946  0.91118  0.85836  1.0000
  H   H1898     1.0  0.74894  0.90314  0.83149  1.0000
  H   H1899     1.0  0.73281  0.92539  0.84041  1.0000
  H   H1900     1.0  0.78835  0.91340  0.85371  1.0000
  H   H1901     1.0  0.78788  0.90560  0.82680  1.0000
  H   H1902     1.0  0.79973  0.92960  0.83245  1.0000
  H   H1903     1.0  0.77721  0.96039  0.84454  1.0000
  H   H1904     1.0  0.76574  0.94416  0.86597  1.0000
  H   H1905     1.0  0.74930  0.95845  0.84783  1.0000
  H   H1906     1.0  0.77677  0.94923  0.80751  1.0000
  H   H1907     1.0  0.74875  0.94821  0.81092  1.0000
  H   H1908     1.0  0.76428  0.92554  0.80195  1.0000
  C   C1192     1.0  0.67639  0.90497  0.92316  1.0000
  H   H1909     1.0  0.95772  0.88173  0.67087  1.0000
  H   H1910     1.0  0.98498  0.94076  0.70258  1.0000
  H   H1911     1.0  0.74343  0.98725  0.77326  1.0000
  S   S479      1.0  0.90447  0.94067  0.67270  1.0000
  S   S480      1.0  0.80702  0.98072  0.72467  1.0000
  H   H1912     1.0  0.78254  0.97302  0.68769  1.0000
  C   C1193     1.0  0.78186  0.76408  0.98455  1.0000
  C   C1194     1.0  0.78103  0.98587  0.67524  1.0000
  H   H1913     1.0  0.70751  0.95935  0.93061  1.0000
  C   C1195     1.0  0.69150  0.98774  0.95855  1.0000
  H   H1914     1.0  0.00058  0.75932  0.72347  1.0000
  H   H1915     1.0  0.69105  0.96791  0.90964  1.0000
  H   H1916     1.0  0.76301  0.98143  0.73860  1.0000
  H   H1917     1.0  0.99532  0.88939  0.73102  1.0000
  C   C1196     1.0  0.76047  0.98757  0.77199  1.0000
  Fe  Fe240     1.0  0.71900  0.81449  0.99783  1.0000
  C   C1197     1.0  0.77167  0.98428  0.75230  1.0000
  H   H1918     1.0  0.99124  0.76292  0.68566  1.0000
  H   H1919     1.0  0.80216  0.99444  0.80153  1.0000
  H   H1920     1.0  0.67939  0.95749  0.93413  1.0000
  C   C1198     1.0  0.00173  0.93750  0.70657  1.0000
  C   C1199     1.0  0.70735  0.00150  0.92556  1.0000
  C   C1200     1.0  0.00218  0.77210  0.76656  1.0000
