data_image0
_chemical_formula_structural       FeS2FeS2FeSFeS3FeS2FeS2FeSFeS3FeS2FeS2FeSFeS3FeS2FeS2FeSFeS3FeS2FeS2FeSFeS3FeS2FeS2FeSFeS3FeS2FeS2FeSFeS3FeS2FeS2FeSFeS3FeS2FeS2FeSFeS3FeS2FeS2FeSFeS3FeS2FeS2FeSFeS3FeS2FeS2FeSFeS3FeS2FeS2FeSFeS3FeS2FeS2FeSFeS3FeS2FeS2FeSFeS3FeS2FeS2FeSFeS3C6H4C6H4C6H4C6H4C6H4C6H4C6H4C6H4C6H4C6H4C6H4C6H4C6H4C6H4C6H4C6H4C6H4C6H4C6H4C6H4C6H4C6H4C6H4C6H4C6H4C6H4C6H4C6H4C6H4C6H4C6H4C6H4FeS2FeS2FeSFeS3FeS2FeS2FeSFeS3FeS2FeS2FeSFeS3FeS2FeS2FeSFeS3FeS2FeS2FeSFeS3FeS2FeS2FeSFeS3FeS2FeS2FeSFeS3FeS2FeS2FeSFeS3FeS2FeS2FeSFeS3FeS2FeS2FeSFeS3FeS2FeS2FeSFeS3FeS2FeS2FeSFeS3FeS2FeS2FeSFeS3FeS2FeS2FeSFeS3FeS2FeS2FeSFeS3FeS2FeS2FeSFeS3C6H4C6H4C6H4C6H4C6H4C6H4C6H4C6H4C6H4C6H4C6H4C6H4C6H4C6H4C6H4C6H4C6H4C6H4C6H4C6H4C6H4C6H4C6H4C6H4C6H4C6H4C6H4C6H4C6H4C6H4C6H4C6H4NC4H12NC4H12NC4H12NC4H12NC4H12NC4H12NC4H12NC4H12NC4H12NC4H12NC4H12NC4H12NC4H12NC4H12NC4H12NC4H12NC4H12NC4H12NC4H12NC4H12NC4H12NC4H12NC4H12NC4H12NC4H12NC4H12NC4H12NC4H12NC4H12NC4H12NC4H12NC4H12NC4H12NC4H12NC4H12NC4H12NC4H12NC4H12NC4H12NC4H12NC4H12NC4H12NC4H12NC4H12NC4H12NC4H12NC4H12NC4H12NC4H12NC4H12NC4H12NC4H12NC4H12NC4H12NC4H12NC4H12NC4H12NC4H12NC4H12NC4H12NC4H12NC4H12NC4H12NC4H12
_chemical_formula_sum              "Fe128 S256 C640 H1024 N64"
_cell_length_a       60.693783274334194
_cell_length_b       31.469526317633903
_cell_length_c       39.69098629067814
_cell_angle_alpha    91.65856947863846
_cell_angle_beta     91.55255253366838
_cell_angle_gamma    89.49568955062148

_space_group_name_H-M_alt    "P 1"
_space_group_IT_number       1

loop_
  _space_group_symop_operation_xyz
  'x, y, z'

loop_
  _atom_site_type_symbol
  _atom_site_label
  _atom_site_symmetry_multiplicity
  _atom_site_fract_x
  _atom_site_fract_y
  _atom_site_fract_z
  _atom_site_occupancy
  Fe  Fe1       1.0  0.28349774855539345  0.2924938685330249  0.3842790603108243  1.0000
  S   S1        1.0  0.3000674191987075  0.23489792764829193  0.3619360597725794  1.0000
  S   S2        1.0  0.27080616783308525  0.345572428530099  0.3521962496160792  1.0000
  Fe  Fe2       1.0  0.2910077164994034  0.26362974937189776  0.4556266580624451  1.0000
  S   S3        1.0  0.3085634025226493  0.20368991942492348  0.4395209985782401  1.0000
  S   S4        1.0  0.28566096652440354  0.2758156954470306  0.5107896451103446  1.0000
  Fe  Fe3       1.0  0.32539941175039516  0.24521836580891823  0.4033916162103649  1.0000
  S   S5        1.0  0.36077789641452124  0.2369070041141971  0.38904700870431697  1.0000
  Fe  Fe4       1.0  0.2816672429330112  0.1987775412744431  0.3998673537536442  1.0000
  S   S6        1.0  0.2632037195968749  0.1394303328934163  0.3845392176687037  1.0000
  S   S7        1.0  0.31025646977021115  0.3059616313964551  0.4231291670204998  1.0000
  S   S8        1.0  0.26267682466451703  0.2556399864483866  0.41861331184031597  1.0000
  Fe  Fe5       1.0  0.928887004449241  0.33091274322478786  0.4278785064456554  1.0000
  S   S9        1.0  0.9167720879171873  0.27449386805971737  0.39724524387087795  1.0000
  S   S10       1.0  0.9112222177426625  0.36340103702171617  0.47043551963147073  1.0000
  Fe  Fe6       1.0  0.9694483862505308  0.34161145572118756  0.38621415216177835  1.0000
  S   S11       1.0  0.9611580930135043  0.2862423002071237  0.35148748914538247  1.0000
  S   S12       1.0  6.318003669902872e-05  0.3799995945809579  0.38069208852393355  1.0000
  Fe  Fe7       1.0  0.9266103260427535  0.31201627069672716  0.35285902113135464  1.0000
  S   S13       1.0  0.9048348654821641  0.31358338874492986  0.3061415136708531  1.0000
  Fe  Fe8       1.0  0.9522328804052882  0.2535988300756012  0.39864107592774195  1.0000
  S   S14       1.0  0.964842332584085  0.188584672401632  0.41097943670579135  1.0000
  S   S15       1.0  0.9357063594120967  0.37037025705606846  0.3835402441834265  1.0000
  S   S16       1.0  0.9635508396460084  0.30688457883036724  0.43337563828909326  1.0000
  Fe  Fe9       1.0  0.9951951589974322  0.5545939139173129  0.1587521760882166  1.0000
  S   S17       1.0  0.01413026836137865  0.569062694120841  0.2067475240346237  1.0000
  S   S18       1.0  0.9813005557643152  0.6089757624822567  0.12983954037832973  1.0000
  Fe  Fe10      1.0  0.00034958097207393735  0.45944710600003874  0.1643991376454234  1.0000
  S   S19       1.0  0.019977632713006344  0.46513518074605165  0.2129602538137726  1.0000
  S   S20       1.0  0.9558525499649545  0.3024200788403585  0.6062522050823905  1.0000
  Fe  Fe11      1.0  0.9952092741253705  0.5152776663680475  0.227276235608358  1.0000
  S   S21       1.0  0.9776059963899798  0.5221071603190068  0.2761441503308417  1.0000
  Fe  Fe12      1.0  0.03735766574040267  0.5183439446579685  0.18827899474239052  1.0000
  S   S22       1.0  0.07373865837451898  0.5318086947745799  0.1882469378795644  1.0000
  S   S23       1.0  0.9740174492303181  0.5052634758472551  0.18070121009856377  1.0000
  S   S24       1.0  0.01990809856677811  0.5081502877962502  0.138180439945695  1.0000
  Fe  Fe13      1.0  0.19359610103852207  0.3932038111014546  0.5951779354769017  1.0000
  S   S25       1.0  0.21957505008549794  0.38138566318194644  0.6348795795461815  1.0000
  S   S26       1.0  0.19801850483551794  0.3776067802176423  0.5400508077951974  1.0000
  Fe  Fe14      1.0  0.16291146254765299  0.3685361086469401  0.18351737936236936  1.0000
  S   S27       1.0  0.19362900578800848  0.3863873236004506  0.21281539542037053  1.0000
  S   S28       1.0  0.1306429457614289  0.36614493177069823  0.20968470934957203  1.0000
  Fe  Fe15      1.0  0.21259937581946614  0.4474154258712548  0.6534831034849778  1.0000
  S   S29       1.0  0.24166480979870728  0.4896038788822482  0.6642199613541753  1.0000
  Fe  Fe16      1.0  0.20832512991953403  0.3291390999986467  0.18689988489370127  1.0000
  S   S30       1.0  0.2275488444081814  0.27921011235883403  0.21447600672055153  1.0000
  S   S31       1.0  0.18893506885432357  0.4614975178272749  0.6110493863144917  1.0000
  S   S32       1.0  0.17679735279124453  0.30845138707587844  0.16090079559196543  1.0000
  Fe  Fe17      1.0  0.3128833933999812  0.8440806060351796  0.41497564368945083  1.0000
  S   S33       1.0  0.28505760337913344  0.8108930747418307  0.3869872455906267  1.0000
  S   S34       1.0  0.34642617081526944  0.813486329863942  0.41569951968149865  1.0000
  Fe  Fe18      1.0  0.28435626378305734  0.9178488660364694  0.4378804984401272  1.0000
  S   S35       1.0  0.2541012199488311  0.892090672260785  0.4114814267102702  1.0000
  S   S36       1.0  0.28395245658593554  0.9772389762275079  0.47051569399893456  1.0000
  Fe  Fe19      1.0  0.2651301958581777  0.8295394676938065  0.431750075290672  1.0000
  S   S37       1.0  0.23869472524178406  0.7893042432554747  0.45272979373187455  1.0000
  Fe  Fe20      1.0  0.2764908073149116  0.8758457795671661  0.3689191840707501  1.0000
  S   S38       1.0  0.26612576611486716  0.8904622847946614  0.31568897601503954  1.0000
  S   S39       1.0  0.29377417556210145  0.8564820120536208  0.4618718820243362  1.0000
  S   S40       1.0  0.30594505044230275  0.9078830678441413  0.3933250606124289  1.0000
  Fe  Fe21      1.0  0.9187394550127157  0.9719484273359468  0.39942102894448  1.0000
  S   S41       1.0  0.9535433465897203  0.9664307751675333  0.41938279733921535  1.0000
  S   S42       1.0  0.9009668720802154  0.03327786718580095  0.38833953113375347  1.0000
  Fe  Fe22      1.0  0.9131158783094985  0.8765881243046992  0.3935537351105334  1.0000
  S   S43       1.0  0.9474328171960992  0.8627412934498926  0.41244038232773866  1.0000
  S   S44       1.0  0.8895228906188543  0.8230654466420254  0.38368000207698505  1.0000
  Fe  Fe23      1.0  0.9407521129323029  0.914598121771766  0.4507738982107703  1.0000
  S   S45       1.0  0.9476735006036778  0.9091383790403101  0.5063755424153206  1.0000
  Fe  Fe24      1.0  0.9571083313941907  0.9154172959052099  0.37925909147513  1.0000
  S   S46       1.0  0.9882337818106885  0.9146692786078979  0.34987506980036026  1.0000
  S   S47       1.0  0.9054786579517977  0.924384087000527  0.43436493598842024  1.0000
  S   S48       1.0  0.9232750737112085  0.9248184349937052  0.35660060326709087  1.0000
  Fe  Fe25      1.0  0.05871210495836987  0.8862757032145918  0.17877259611415758  1.0000
  S   S49       1.0  0.0669196954412059  0.8638961883135245  0.12656644505099338  1.0000
  S   S50       1.0  0.08399156005062958  0.9152979346058795  0.2141491827582728  1.0000
  Fe  Fe26      1.0  0.011364407193786175  0.8595357082543573  0.17185205188397343  1.0000
  S   S51       1.0  0.014874397731241329  0.8357139068226144  0.1185696283726966  1.0000
  S   S52       1.0  0.9794488877397668  0.8504614564030804  0.19781629785971483  1.0000
  Fe  Fe27      1.0  0.046631587666355  0.8071484361292366  0.13737633937582092  1.0000
  S   S53       1.0  0.05821963931810559  0.7412591317633707  0.1229945285933963  1.0000
  Fe  Fe28      1.0  0.034674412422516454  0.8942633335152838  0.1120673385731272  1.0000
  S   S54       1.0  0.016746983217590827  0.7664460014090891  0.5451473387842526  1.0000
  S   S55       1.0  0.04164715161634125  0.8262238086708802  0.1913343902001249  1.0000
  S   S56       1.0  0.02795639711372555  0.9217605973912923  0.1635817941713756  1.0000
  Fe  Fe29      1.0  0.2210658253361468  0.7485287334857254  0.183480356594352  1.0000
  S   S57       1.0  0.20244694289127774  0.8097117108400796  0.19102008035165735  1.0000
  S   S58       1.0  0.25489471056225327  0.741560951893528  0.20682155263079016  1.0000
  Fe  Fe30      1.0  0.2196017234274108  0.7198185795534127  0.693585310500307  1.0000
  S   S59       1.0  0.21255385878778005  0.7235205009695641  0.6381072979043924  1.0000
  S   S60       1.0  0.2065342694150348  0.6652551967677333  0.7217558816853182  1.0000
  Fe  Fe31      1.0  0.24693502730344122  0.7481851483882148  0.6358438816338357  1.0000
  S   S61       1.0  0.2711003020053117  0.7295331037822244  0.5961993105219454  1.0000
  Fe  Fe32      1.0  0.17499135995692822  0.7679450382838924  0.20595732804276734  1.0000
  S   S62       1.0  0.1574986025890172  0.7831261917379152  0.2538003784630471  1.0000
  S   S63       1.0  0.25510938179815584  0.7378551459248508  0.6904862791200737  1.0000
  S   S64       1.0  0.19432923930628665  0.7075463443601028  0.20237623871322447  1.0000
  Fe  Fe33      1.0  0.433141275863111  0.41297599208687996  0.34339846571906124  1.0000
  S   S65       1.0  0.4607661550797989  0.36563887906606074  0.339006952630269  1.0000
  S   S66       1.0  0.40984834561971706  0.4119843465542541  0.38622542592522907  1.0000
  Fe  Fe34      1.0  0.4477042927924626  0.46312010683792404  0.2839610557469545  1.0000
  S   S67       1.0  0.4768083757423519  0.4209109739554987  0.2748258970731726  1.0000
  S   S68       1.0  0.4436655402184611  0.517656427050218  0.2492806543777772  1.0000
  Fe  Fe35      1.0  0.4531792965045373  0.3680448469526844  0.2833490739650985  1.0000
  S   S69       1.0  0.4499478588359067  0.3127135198123564  0.2465509808696078  1.0000
  Fe  Fe36      1.0  0.48154720910302984  0.4229015374700134  0.3309633652094664  1.0000
  S   S70       1.0  0.5128172918528667  0.4391346249452058  0.35959988519495223  1.0000
  S   S71       1.0  0.42350308263324743  0.4105068676808207  0.2883947826221448  1.0000
  S   S72       1.0  0.4544689334941203  0.4700734542047401  0.3395172591160745  1.0000
  Fe  Fe37      1.0  0.8014352468388753  0.43759978906164526  0.3192769598504796  1.0000
  S   S73       1.0  0.792855184217886  0.36850844909801955  0.31819603554593257  1.0000
  S   S74       1.0  0.8358669302035603  0.4627824560751738  0.32077910211007993  1.0000
  Fe  Fe38      1.0  0.7539414804264035  0.46607800928620763  0.3255507108512931  1.0000
  S   S75       1.0  0.7410705061579803  0.3995297297367208  0.3245827507658897  1.0000
  S   S76       1.0  0.7311689669092435  0.5219190124390178  0.3328742336115671  1.0000
  Fe  Fe39      1.0  0.7697660184151431  0.3860400959965231  0.3595532574824194  1.0000
  S   S77       1.0  0.7704024655622755  0.3520986095264533  0.40872167200967546  1.0000
  Fe  Fe40      1.0  0.7651456396923835  0.3884135915139575  0.2830891874409922  1.0000
  S   S78       1.0  0.7557957184904117  0.3470086867225172  0.2377593588211658  1.0000
  S   S79       1.0  0.7807697780657696  0.45355468466431786  0.3637158901508849  1.0000
  S   S80       1.0  0.7755909284962609  0.4565805811548375  0.28112772550694987  1.0000
  Fe  Fe41      1.0  0.7174105340567215  0.30524238202683496  0.019787503281073038  1.0000
  S   S81       1.0  0.7122066812155924  0.32288289387842356  0.07411904886661524  1.0000
  S   S82       1.0  0.7316626277095976  0.2422028367113547  0.0036343718611318017  1.0000
  Fe  Fe42      1.0  0.6997705950980607  0.3887455664869743  0.9950725254548842  1.0000
  S   S83       1.0  0.6929166595613931  0.4142259401841602  0.046915923593433106  1.0000
  S   S84       1.0  0.6805562000695815  0.3429886692942424  0.4852549052497408  1.0000
  Fe  Fe43      1.0  0.7257820167100025  0.38616674133840356  0.061072574957150565  1.0000
  S   S85       1.0  0.7484914957015161  0.4264711785345201  0.09384062904291256  1.0000
  Fe  Fe44      1.0  0.6799780200937924  0.34911544589475624  0.05515625476603336  1.0000
  S   S86       1.0  0.6496112235546069  0.3398168616542129  0.08466963293352604  1.0000
  S   S87       1.0  0.7339491526343439  0.3663808829663958  0.008222429315940083  1.0000
  S   S88       1.0  0.6837794137144281  0.32579438536901667  0.0017418154572537146  1.0000
  Fe  Fe45      1.0  0.5259160492169078  0.32214454042930496  0.5206457873087708  1.0000
  S   S89       1.0  0.5004181579361683  0.2949786463502322  0.553395980825505  1.0000
  S   S90       1.0  0.5285786786341135  0.297871550118332  0.4673208577877989  1.0000
  Fe  Fe46      1.0  0.5375592229657293  0.36015359150917814  0.023132111453880277  1.0000
  S   S91       1.0  0.5439320251778179  0.3046333361074383  0.05582006502397929  1.0000
  S   S92       1.0  0.5652092810556171  0.39625582145070604  0.0015422559526028223  1.0000
  Fe  Fe47      1.0  0.5178226209287909  0.27198892472250835  0.024575837825331345  1.0000
  S   S93       1.0  0.5298646042761448  0.23714360292588338  0.6258850781652812  1.0000
  Fe  Fe48      1.0  0.516226139836326  0.3308021188028546  0.08620477866884027  1.0000
  S   S94       1.0  0.5243127478246938  0.33563531333436547  0.14159114640674622  1.0000
  S   S95       1.0  0.5537824956183979  0.31461379287219643  0.558181276329341  1.0000
  S   S96       1.0  0.5116838642924925  0.3892697213460485  0.05570335151147643  1.0000
  Fe  Fe49      1.0  0.48351360517467934  0.7938548226923136  0.341318241778141  1.0000
  S   S97       1.0  0.44874078006781054  0.7907460508288012  0.357900496964858  1.0000
  S   S98       1.0  0.5099423996094828  0.8070988143368879  0.3804463577958032  1.0000
  Fe  Fe50      1.0  0.47125408856132134  0.77386066239775  0.26867306236082544  1.0000
  S   S99       1.0  0.43515835572845074  0.7685846928328058  0.2785886150732703  1.0000
  S   S100      1.0  0.48158186822142246  0.7642831699071967  0.21512703467648936  1.0000
  Fe  Fe51      1.0  0.44040625200274536  0.8266891407914617  0.3114131180365284  1.0000
  S   S101      1.0  0.4151538047290299  0.8791313573997276  0.31326122426605296  1.0000
  Fe  Fe52      1.0  0.4464666845054422  0.7331147850938857  0.324024920747038  1.0000
  S   S102      1.0  0.42897690542539924  0.6774769879628001  0.34409959326044  1.0000
  S   S103      1.0  0.4755898887913737  0.8356003387870982  0.2977926451837315  1.0000
  S   S104      1.0  0.48220020119938123  0.7324440311289603  0.31120591537177655  1.0000
  Fe  Fe53      1.0  0.7755663347291832  0.8443038125451329  0.32151153663062476  1.0000
  S   S105      1.0  0.7400124307478937  0.8589109964034402  0.3103232889388189  1.0000
  S   S106      1.0  0.8011901329947185  0.8946940346422863  0.3194223813994039  1.0000
  Fe  Fe54      1.0  0.7675671006189098  0.7507473779162217  0.33216274537084156  1.0000
  S   S107      1.0  0.7312189431085235  0.7566624058444584  0.32163796073746026  1.0000
  S   S108      1.0  0.7865606978141486  0.6905194685802638  0.3414837342728248  1.0000
  Fe  Fe55      1.0  0.7406342612343982  0.7980170339525321  0.2793517478516789  1.0000
  S   S109      1.0  0.7290566391894095  0.7874226174887073  0.22548611505675165  1.0000
  Fe  Fe56      1.0  0.7340465440661537  0.8164756798213105  0.3536038583392432  1.0000
  S   S110      1.0  0.710860630781536  0.8302268166456721  0.3954833643888687  1.0000
  S   S111      1.0  0.7768262453306765  0.7871174689453645  0.2871299198570687  1.0000
  S   S112      1.0  0.7697197682186321  0.8072578920909922  0.36762747377852567  1.0000
  Fe  Fe57      1.0  0.6778572219135872  0.9398316748182575  0.038904478266513554  1.0000
  S   S113      1.0  0.6940042248567829  0.9911796145988434  0.010724523151868448  1.0000
  S   S114      1.0  0.6532259653153566  0.8934638900703996  0.01673227623004081  1.0000
  Fe  Fe58      1.0  0.6980468669128395  0.9676629872851588  0.10645595027128514  1.0000
  S   S115      1.0  0.7161831205343873  0.02198843784542759  0.08467720494423364  1.0000
  S   S116      1.0  0.6955081444783457  0.9589417056057924  0.16239979314209868  1.0000
  Fe  Fe59      1.0  0.6850688084807964  0.03385051981772791  0.054569417307468226  1.0000
  S   S117      1.0  0.6684999415698809  0.09774025730373914  0.050188384155028354  1.0000
  Fe  Fe60      1.0  0.7238491486348928  0.975019469183759  0.04278481132162937  1.0000
  S   S118      1.0  0.7564522479854432  0.9381073927805453  0.513753420905184  1.0000
  S   S119      1.0  0.6662718741424456  0.9837734835929054  0.079945414268233  1.0000
  S   S120      1.0  0.708413641086042  0.9193619433403862  0.06710619789419314  1.0000
  Fe  Fe61      1.0  0.49925786782843207  0.009793444369621263  0.0880255860623934  1.0000
  S   S121      1.0  0.5309329332328162  0.9543259924860847  0.5218139703284046  1.0000
  S   S122      1.0  0.48155611482669924  0.07196746231715645  0.09587842657898939  1.0000
  Fe  Fe62      1.0  0.5259376384639124  0.9379833612255705  0.11764510949043983  1.0000
  S   S123      1.0  0.5326926458570749  0.9069918912183375  0.06732492862598716  1.0000
  S   S124      1.0  0.5394617447335606  0.9155039170780642  0.16714719351734383  1.0000
  Fe  Fe63      1.0  0.5381499300175565  0.973381918127874  0.05072658629765825  1.0000
  S   S125      1.0  0.5638549201852713  0.996391257516531  0.016363624295476997  1.0000
  Fe  Fe64      1.0  0.49610318145554017  0.9410232606148262  0.5349994543224599  1.0000
  S   S126      1.0  0.4710203766428374  0.9286418352582102  0.49337467493518994  1.0000
  S   S127      1.0  0.5350158466520486  0.00323542701450541  0.10225810536889665  1.0000
  S   S128      1.0  0.48960254015512217  0.9468099954604662  0.10798303613451446  1.0000
  C   C1        1.0  0.6281036010623716  0.9210161992786613  0.014739868340276185  1.0000
  C   C2        1.0  0.6280708808297333  0.96511451778247  0.011627691902077686  1.0000
  C   C3        1.0  0.6081876666439089  0.987870427127622  0.011760441798347676  1.0000
  C   C4        1.0  0.5883469208770282  0.9668018161125091  0.01609668236336148  1.0000
  C   C5        1.0  0.5882862380577375  0.922615532113459  0.01933049948811827  1.0000
  C   C6        1.0  0.6081857891045427  0.8995924681426841  0.018037300936586398  1.0000
  H   H1        1.0  0.6433788969468953  0.9818719319793203  0.00896713088900225  1.0000
  H   H2        1.0  0.6082621069894731  0.02202942723348955  0.009163266970223516  1.0000
  H   H3        1.0  0.5729306687270195  0.9061841470340091  0.022374713719044204  1.0000
  H   H4        1.0  0.608217878291731  0.8654302088821595  0.020471646082755646  1.0000
  C   C7        1.0  0.7249555594070745  0.858240927698178  0.42804109394948214  1.0000
  C   C8        1.0  0.7379499361482398  0.8931979221186783  0.4209061400416492  1.0000
  C   C9        1.0  0.7478001733489443  0.9174709599338202  0.4473499848857952  1.0000
  C   C10       1.0  0.7450268421998497  0.9063106366958726  0.4808433289413385  1.0000
  C   C11       1.0  0.7327863738443424  0.8703284812137518  0.48782410709916285  1.0000
  C   C12       1.0  0.7225703770847169  0.8465514548521267  0.4614794104823546  1.0000
  H   H5        1.0  0.7397965551465451  0.9022961806787865  0.3950503438184742  1.0000
  H   H6        1.0  0.7570385822861166  0.9455670024692713  0.44191068486172363  1.0000
  H   H7        1.0  0.7314142120801029  0.8604526516791604  0.5135061573364761  1.0000
  H   H8        1.0  0.7129809702803783  0.8189010111364872  0.46700396551724926  1.0000
  C   C13       1.0  0.717874362259493  0.8334782561379679  0.20753344327315085  1.0000
  C   C14       1.0  0.7182862347152783  0.8382405522082734  0.17257132947110776  1.0000
  C   C15       1.0  0.7109472412302941  0.8763087460029659  0.1582354572225342  1.0000
  C   C16       1.0  0.703014932671265  0.909530089881049  0.17883698742978255  1.0000
  C   C17       1.0  0.7020752052904262  0.9042615616797779  0.213678755019053  1.0000
  C   C18       1.0  0.7095202780007223  0.8663619853020559  0.2280034177562525  1.0000
  H   H9        1.0  0.7247182844132497  0.8128491358904165  0.15661269308245168  1.0000
  H   H10       1.0  0.7117625301560304  0.8800862421623463  0.13137928299357055  1.0000
  H   H11       1.0  0.6958196101620204  0.9297827911692144  0.22969618568562086  1.0000
  H   H12       1.0  0.7086010215991995  0.8624995320831227  0.25486559418907095  1.0000
  C   C19       1.0  0.4999946707812943  0.8430995797665233  0.41104103146441845  1.0000
  C   C20       1.0  0.5103980652501033  0.8460784763131142  0.4429040768653281  1.0000
  C   C21       1.0  0.5017334206049041  0.8729439945558076  0.4681457938760159  1.0000
  C   C22       1.0  0.48273579815390405  0.8970470573806566  0.46144016214353795  1.0000
  C   C23       1.0  0.4726022927828934  0.8948454081748236  0.4293580266687219  1.0000
  C   C24       1.0  0.48123161227799943  0.8678942306303682  0.40416613797550116  1.0000
  H   H13       1.0  0.524904189612077  0.8269371141355507  0.44827093258111367  1.0000
  H   H14       1.0  0.5095087837120238  0.87418170478122  0.4929865677766649  1.0000
  H   H15       1.0  0.4581069181835026  0.9139387661434978  0.4239301694155953  1.0000
  H   H16       1.0  0.47346734234349663  0.8665489258488377  0.37933876403338135  1.0000
  C   C25       1.0  0.4990055694449366  0.804274248158766  0.20174335515612185  1.0000
  C   C26       1.0  0.5118530812823492  0.8280490201290336  0.22507205923064078  1.0000
  C   C27       1.0  0.5247522911173064  0.8615477201699947  0.21421202759222252  1.0000
  C   C28       1.0  0.5245414289037242  0.871724759858992  0.18010130490643186  1.0000
  C   C29       1.0  0.5118631147749245  0.8477068896097245  0.15670684648656272  1.0000
  C   C30       1.0  0.49926391797694714  0.8137512153791544  0.1675032227600653  1.0000
  H   H17       1.0  0.5120932932918851  0.8202671660184246  0.25142723784289744  1.0000
  H   H18       1.0  0.5346710285603165  0.8798933041074596  0.2323190517030478  1.0000
  H   H19       1.0  0.5117246988580707  0.8552610470307108  0.13027792551787246  1.0000
  H   H20       1.0  0.4893815415008966  0.7953319067198908  0.14937779770575021  1.0000
  C   C31       1.0  0.5315360196811548  0.19094916092579844  0.6003156485127958  1.0000
  C   C32       1.0  0.4924309758400872  0.1762024547018098  0.04155260146033357  1.0000
  C   C33       1.0  0.48222553096589044  0.14618429634905095  0.06130530863093808  1.0000
  C   C34       1.0  0.49284925574154653  0.10755589294051826  0.06795627529317017  1.0000
  C   C35       1.0  0.5309820024871281  0.11390223018648382  0.5935997510191693  1.0000
  C   C36       1.0  0.5295632317479111  0.15079100565700818  0.6142509783785782  1.0000
  H   H21       1.0  0.4841828629997617  0.20592062039400807  0.03636889692776579  1.0000
  H   H22       1.0  0.46619005528381546  0.1529852545048176  0.07153368892726375  1.0000
  H   H23       1.0  0.5293815063329779  0.08293084695372355  0.6043898612299223  1.0000
  H   H24       1.0  0.5267895285460408  0.14825047013014367  0.6409341597961267  1.0000
  C   C37       1.0  0.7144113302476687  0.2017429207150565  0.016958610221250003  1.0000
  C   C38       1.0  0.7204892516933732  0.15894490007838372  0.012411564028407039  1.0000
  C   C39       1.0  0.7066036969652413  0.12668681036742324  0.023001623063602095  1.0000
  C   C40       1.0  0.6865126966576814  0.1372797410740625  0.03772046376065984  1.0000
  C   C41       1.0  0.6804907752248396  0.18003672512922275  0.04228919531479658  1.0000
  C   C42       1.0  0.6944511183919573  0.21220375419409349  0.03211302997413856  1.0000
  H   H25       1.0  0.735968142080358  0.15068036433620796  0.0009409762586813919  1.0000
  H   H26       1.0  0.7113704252922902  0.0936636638718975  0.019578739208931273  1.0000
  H   H27       1.0  0.6652054441006316  0.18825208507172908  0.054283958413875004  1.0000
  H   H28       1.0  0.6897805869098751  0.24506592743416777  0.03619784651140989  1.0000
  C   C43       1.0  0.6266454968882219  0.36022172611103237  0.06274272311830686  1.0000
  C   C44       1.0  0.6286377863698935  0.37526807020810193  0.03013180921799674  1.0000
  C   C45       1.0  0.6098079455316644  0.3881265288117099  0.011701282767277775  1.0000
  C   C46       1.0  0.5890463963912629  0.38628214097895175  0.0260337326183504  1.0000
  C   C47       1.0  0.5993442478388536  0.3792518215666439  0.6081519513914037  1.0000
  C   C48       1.0  0.6205573150772652  0.3698298898236371  0.6210079946304362  1.0000
  H   H29       1.0  0.64458871729848  0.3763369043318117  0.018788503136471176  1.0000
  H   H30       1.0  0.611290034862911  0.3984464214283633  0.9860934679358554  1.0000
  H   H31       1.0  0.5883484648215789  0.3538024471645324  0.600477006395176  1.0000
  H   H32       1.0  0.625825332381946  0.33708980933389665  0.6232335050240859  1.0000
  C   C49       1.0  0.7465435057539134  0.5686705831064703  0.3372187385497256  1.0000
  C   C50       1.0  0.7358594396322405  0.607770371828175  0.342614316652514  1.0000
  C   C51       1.0  0.748116978091042  0.6453774649189443  0.34530414996941544  1.0000
  C   C52       1.0  0.7710372036490544  0.6438690619413237  0.34247887349483946  1.0000
  C   C53       1.0  0.7817299550343811  0.6045885708751209  0.33822000466811997  1.0000
  C   C54       1.0  0.7694985203974476  0.5670698958366495  0.3353394490068703  1.0000
  H   H33       1.0  0.7181073545503757  0.6090508778852459  0.3444303324117374  1.0000
  H   H34       1.0  0.7398201484426269  0.6754555707043673  0.3494727685919242  1.0000
  H   H35       1.0  0.7994815349268356  0.6032397522843232  0.3361723784111274  1.0000
  H   H36       1.0  0.7779077793662459  0.53705619039781  0.3311244057555092  1.0000
  C   C55       1.0  0.7536087480439646  0.40407408710428655  0.13335355417263725  1.0000
  C   C56       1.0  0.7527170079558764  0.3600741107289533  0.13694016602141665  1.0000
  C   C57       1.0  0.7545429746119241  0.34273628886839286  0.16905999764628393  1.0000
  C   C58       1.0  0.7572869350494167  0.3692700517633442  0.19776486584118588  1.0000
  C   C59       1.0  0.7588077532846869  0.41323532290319515  0.1940791516852586  1.0000
  C   C60       1.0  0.757099731255759  0.4305902539251467  0.1618986136063717  1.0000
  H   H37       1.0  0.7507170187643155  0.3392969996178117  0.11497270708808918  1.0000
  H   H38       1.0  0.753455179967992  0.30868919098647046  0.17173248242932296  1.0000
  H   H39       1.0  0.7605302806102121  0.4340289064563491  0.21599204910574582  1.0000
  H   H40       1.0  0.7577652414324992  0.46466556017048555  0.15925759699155334  1.0000
  C   C61       1.0  0.745185943380131  0.3481490147125153  0.42908789433633676  1.0000
  C   C62       1.0  0.7251319149821117  0.3563683806431548  0.4122119592733624  1.0000
  C   C63       1.0  0.7052616780140005  0.35447600646938104  0.4294687767267893  1.0000
  C   C64       1.0  0.7054213179624311  0.3445769796865861  0.46366193130720035  1.0000
  C   C65       1.0  0.7254827829590387  0.33644122206872695  0.4805215715421759  1.0000
  C   C66       1.0  0.7452968575128173  0.33797247290795895  0.46321267257495324  1.0000
  H   H41       1.0  0.7248871894769906  0.363657952581731  0.38579932635395625  1.0000
  H   H42       1.0  0.6897663325659911  0.36043274905553097  0.41626025142463347  1.0000
  H   H43       1.0  0.7257953641177213  0.3291426703875911  0.5069688230589776  1.0000
  H   H44       1.0  0.7607709363312642  0.33176273834941344  0.4764272248770558  1.0000
  C   C67       1.0  0.43606310144944194  0.5629859664273978  0.27286494147764856  1.0000
  C   C68       1.0  0.4419913029270008  0.6032520927206467  0.26230885004531057  1.0000
  C   C69       1.0  0.43908693666737436  0.6389875227882901  0.2837052913366695  1.0000
  C   C70       1.0  0.4297712458877566  0.6344738922628521  0.3152581611400065  1.0000
  C   C71       1.0  0.42281610438267475  0.5945303257169432  0.32501732389700244  1.0000
  C   C72       1.0  0.426091922689168  0.5587413070559596  0.303910372585757  1.0000
  H   H45       1.0  0.44971030933139566  0.6066205038200296  0.23828383518144422  1.0000
  H   H46       1.0  0.4444688328934451  0.6698382205907233  0.27604297644628134  1.0000
  H   H47       1.0  0.4155053617202124  0.5910502211424393  0.3493475204306934  1.0000
  H   H48       1.0  0.42102490416875016  0.527813191036329  0.3118174723886472  1.0000
  C   C73       1.0  0.4710465552926848  0.31475276779043876  0.2175753245509234  1.0000
  C   C74       1.0  0.4916476239264643  0.33043561651450026  0.22795015178824926  1.0000
  C   C75       1.0  0.5079535065030384  0.33608008495321595  0.20432629295565302  1.0000
  C   C76       1.0  0.5036319800825833  0.3265407076170098  0.1701922563322938  1.0000
  C   C77       1.0  0.48316478510638966  0.3099669048825956  0.1597201641469809  1.0000
  C   C78       1.0  0.4669184013445718  0.3036311388416242  0.18355158824962317  1.0000
  H   H49       1.0  0.49504564935703405  0.33814101734356644  0.2543079659975835  1.0000
  H   H50       1.0  0.5238621254835353  0.34848343205325183  0.2125142059038074  1.0000
  H   H51       1.0  0.4797450661244068  0.3025763302744209  0.13333474043136784  1.0000
  H   H52       1.0  0.4508947206814706  0.291667139164378  0.1755211544598144  1.0000
  C   C79       1.0  0.5185713340598489  0.39969879506163863  0.3888739795220808  1.0000
  C   C80       1.0  0.5141372634101371  0.3570931635675917  0.38057782439439525  1.0000
  C   C81       1.0  0.5177402833476307  0.3258411862784018  0.40462003235445315  1.0000
  C   C82       1.0  0.5253896178121789  0.3372268095223025  0.437176141629981  1.0000
  C   C83       1.0  0.5300879733493524  0.37979412988383593  0.44536327555941624  1.0000
  C   C84       1.0  0.5268567798196425  0.4109802834373292  0.42112486425661555  1.0000
  H   H53       1.0  0.5081141679486113  0.34813729520834613  0.35550160692355903  1.0000
  H   H54       1.0  0.5142555513141097  0.29290078074970993  0.39811441732567837  1.0000
  H   H55       1.0  0.5364459226946656  0.3887137116520703  0.4701692130850617  1.0000
  H   H56       1.0  0.5303789120754209  0.44391655841611144  0.4275396066064917  1.0000
  C   C85       1.0  0.1024088538707546  0.8759476348365866  0.22768256294275024  1.0000
  C   C86       1.0  0.11659131929447608  0.88438803919923  0.2553641465770957  1.0000
  C   C87       1.0  0.13281874847605638  0.8546438872746758  0.2644695185841877  1.0000
  C   C88       1.0  0.13517016827281506  0.8169073600120873  0.24539512784344497  1.0000
  C   C89       1.0  0.12067858897203557  0.8079751331297431  0.21815132179196783  1.0000
  C   C90       1.0  0.10405917467589543  0.8372495253902112  0.20959569220614346  1.0000
  H   H57       1.0  0.11516916343112737  0.9141604724332866  0.26951652138254223  1.0000
  H   H58       1.0  0.14398497419356926  0.8616002144879386  0.2855551081238347  1.0000
  H   H59       1.0  0.16869857047279896  0.7480270664398596  0.671748201666708  1.0000
  H   H60       1.0  0.09313325955172069  0.8306202291655516  0.1881679378877902  1.0000
  C   C91       1.0  0.8657236989246557  0.842189362837768  0.3629591579032723  1.0000
  C   C92       1.0  0.8638973733996301  0.8850953992206738  0.35489058924163225  1.0000
  C   C93       1.0  0.8443852516012088  0.900761279844066  0.339943355075397  1.0000
  C   C94       1.0  0.8265154343777497  0.8737115337233643  0.3336217569824416  1.0000
  C   C95       1.0  0.8283968249374664  0.8306848037478767  0.34134220528783704  1.0000
  C   C96       1.0  0.8480193138934263  0.8149087701947376  0.35586537094212334  1.0000
  H   H61       1.0  0.87734632248815  0.9065194272580697  0.3606806188850481  1.0000
  H   H62       1.0  0.8429611739007431  0.9341277029537269  0.3342765635255551  1.0000
  H   H63       1.0  0.8146888272174087  0.8095034188256288  0.3365423921559141  1.0000
  H   H64       1.0  0.8493367087786201  0.7816952300081274  0.362070837508966  1.0000
  C   C97       1.0  0.9685153582578311  0.8726711426225379  0.5173436298550821  1.0000
  C   C98       1.0  0.9814869473328741  0.8530968428836494  0.49269152056775095  1.0000
  C   C99       1.0  0.9966022686400123  0.8210237822089224  0.501546244437575  1.0000
  C   C100      1.0  0.9990833197252019  0.8090137841302589  0.5351655529452347  1.0000
  C   C101      1.0  0.9866356609125558  0.8296407950370718  0.5599539492252072  1.0000
  C   C102      1.0  0.9713069087158586  0.8612753339169406  0.551030116587768  1.0000
  H   H65       1.0  0.9799150035874481  0.8626406357647659  0.4668279830371069  1.0000
  H   H66       1.0  0.00641993766447202  0.8055364885116276  0.4823491393949113  1.0000
  H   H67       1.0  0.988483023357261  0.820784865447978  0.5858976390378524  1.0000
  H   H68       1.0  0.9614089118454787  0.8765882289736173  0.5702092756794691  1.0000
  C   C103      1.0  0.9816877444462341  0.8688898233286739  0.2399158253361908  1.0000
  C   C104      1.0  0.0015829534824147729  0.8855376877988537  0.2527669802869521  1.0000
  C   C105      1.0  0.003452052578221565  0.8992851623578154  0.2866332780504334  1.0000
  C   C106      1.0  0.9854474635639184  0.8965044883656786  0.307753920021857  1.0000
  C   C107      1.0  0.9655454386505135  0.879773032518746  0.2949378871718189  1.0000
  C   C108      1.0  0.9636554914622197  0.8660545714851445  0.26100748425466935  1.0000
  H   H69       1.0  0.015580542966633582  0.8879099358362139  0.2366753894463197  1.0000
  H   H70       1.0  0.018908694355969535  0.9120556758516029  0.29646781761327334  1.0000
  H   H71       1.0  0.9516651117721896  0.8770588850728319  0.3111619816653531  1.0000
  H   H72       1.0  0.9482278659366077  0.8532254404222148  0.25114821698964934  1.0000
  C   C109      1.0  0.36398662043374636  0.8324823802251033  0.38536758900660206  1.0000
  C   C110      1.0  0.3654930209951766  0.8760047679552266  0.3794357353382436  1.0000
  C   C111      1.0  0.3809977182310543  0.8905937279949059  0.3568513595523513  1.0000
  C   C112      1.0  0.3949746247898787  0.8616241065269178  0.34034142587773797  1.0000
  C   C113      1.0  0.3930005470324196  0.8181449290891555  0.3457332578586029  1.0000
  C   C114      1.0  0.3776237460057953  0.8036503873818999  0.36824568825524523  1.0000
  H   H73       1.0  0.35523567494417  0.8985122682571941  0.3930587989558575  1.0000
  H   H74       1.0  0.38249679204573034  0.9242995738267468  0.35282355149685196  1.0000
  H   H75       1.0  0.4032597786090682  0.7953824533124887  0.3324531572793382  1.0000
  H   H76       1.0  0.376366277581488  0.7699119719276194  0.3724709016295578  1.0000
  C   C115      1.0  0.2632963193240864  0.8483283506127682  0.28597933508130985  1.0000
  C   C116      1.0  0.25583402069581573  0.8573286993108578  0.25329897084853487  1.0000
  C   C117      1.0  0.2536158692079708  0.8246163004913262  0.2288033569375595  1.0000
  C   C118      1.0  0.25886910049759204  0.7827412968765902  0.23687295021042698  1.0000
  C   C119      1.0  0.26677338482795515  0.773733224922178  0.26935102730371946  1.0000
  C   C120      1.0  0.26880977936276  0.8064654917867081  0.2939829907203496  1.0000
  H   H77       1.0  0.2517776150920696  0.8897085397580619  0.24684068890808022  1.0000
  H   H78       1.0  0.24814761206291525  0.8318943542810551  0.20344599398322855  1.0000
  H   H79       1.0  0.2709312205160193  0.7413127500700925  0.275576610538353  1.0000
  H   H80       1.0  0.27475509738569415  0.7991006198632917  0.31893293710906473  1.0000
  C   C121      1.0  0.24750179679526768  0.7679683116520216  0.4912641519965309  1.0000
  C   C122      1.0  0.2320784272736957  0.7596410867653475  0.5158137711190391  1.0000
  C   C123      1.0  0.2391782739419874  0.7468867795445638  0.5479670219226498  1.0000
  C   C124      1.0  0.2616947570758621  0.7413089471286337  0.5552919059442353  1.0000
  C   C125      1.0  0.2770201787347874  0.7478920531778115  0.5302625766541781  1.0000
  C   C126      1.0  0.2699611473827796  0.7617406506975767  0.49843575493142356  1.0000
  H   H81       1.0  0.2146814853616948  0.7643880372630312  0.5103454130105418  1.0000
  H   H82       1.0  0.22725615549223704  0.7418376042771825  0.5671634552657119  1.0000
  H   H83       1.0  0.2944353668371508  0.7434992823019284  0.5358054112014892  1.0000
  H   H84       1.0  0.28192953156415845  0.7674465746490579  0.47941692192403096  1.0000
  C   C127      1.0  0.23284714185035224  0.5381808434333234  0.6819206333981965  1.0000
  C   C128      1.0  0.24343316532639103  0.5757954161027657  0.6739974726184151  1.0000
  C   C129      1.0  0.2355286733660634  0.6150694860447873  0.6864206663580484  1.0000
  C   C130      1.0  0.21745565400550992  0.6165388018424904  0.7075738631988296  1.0000
  C   C131      1.0  0.20280828763096562  0.6046857045671031  0.15225865316366272  1.0000
  C   C132      1.0  0.21436299867214592  0.5682663794604045  0.1624308507860337  1.0000
  H   H85       1.0  0.2573837836082704  0.5747329938216194  0.6575782371285244  1.0000
  H   H86       1.0  0.24337651892998544  0.644157465812085  0.6795238712140544  1.0000
  H   H87       1.0  0.21022507482217537  0.635638139767453  0.15603587271536254  1.0000
  H   H88       1.0  0.23060142680829515  0.571333959797941  0.1741687416985984  1.0000
  C   C133      1.0  0.002685819628146957  0.6450281263046153  0.12527114337827217  1.0000
  C   C134      1.0  0.9978156545664404  0.6876706526384758  0.11934052038217913  1.0000
  C   C135      1.0  0.014850841183263963  0.7173314381674939  0.11883087180105954  1.0000
  C   C136      1.0  0.03680706011041868  0.7042752318561589  0.12310556982625874  1.0000
  C   C137      1.0  0.0416986792446743  0.6613141579998214  0.12769464530650607  1.0000
  C   C138      1.0  0.024636468241231002  0.6318626106181089  0.12945835638481795  1.0000
  H   H89       1.0  0.980844915995633  0.6979329078969178  0.11607742634138668  1.0000
  H   H90       1.0  0.010882676146280579  0.7501506113939799  0.1150872529822738  1.0000
  H   H91       1.0  0.05860874761638679  0.6507431765208938  0.1304963327858409  1.0000
  H   H92       1.0  0.028537169933056994  0.5989391973174936  0.13396241309426768  1.0000
  C   C139      1.0  0.09038585161491519  0.4878260843992503  0.19819179595513978  1.0000
  C   C140      1.0  0.11225923194913401  0.48626705192404146  0.18789456996754095  1.0000
  C   C141      1.0  0.12511326709058007  0.4496365455068968  0.19290243318624256  1.0000
  C   C142      1.0  0.11603757906910485  0.41433835891474224  0.2078418892001004  1.0000
  C   C143      1.0  0.09448753541554167  0.41656421038104974  0.2194231047775629  1.0000
  C   C144      1.0  0.08173362846762311  0.45337230459820393  0.21477390756688902  1.0000
  H   H93       1.0  0.1191641634056877  0.5129057742148254  0.17531187309550383  1.0000
  H   H94       1.0  0.14193133900678345  0.4486563534918297  0.1848039476547826  1.0000
  H   H95       1.0  0.130334807434358  0.3929422710683361  0.6791611105910457  1.0000
  H   H96       1.0  0.06519205553871488  0.4549130481118332  0.2238998010354872  1.0000
  C   C145      1.0  0.8865207548589434  0.3569718001508893  0.30644960088428524  1.0000
  C   C146      1.0  0.8924463520330956  0.3953380605011862  0.3226868745357844  1.0000
  C   C147      1.0  0.8771238887930529  0.4286770965307611  0.3253017634256028  1.0000
  C   C148      1.0  0.855658062103064  0.4234218690507273  0.31229268341822913  1.0000
  C   C149      1.0  0.8500195838081149  0.3859255515069703  0.294441570396935  1.0000
  C   C150      1.0  0.8655377075639094  0.3527992433552103  0.2912736803478392  1.0000
  H   H97       1.0  0.9088659893673156  0.3996872406856112  0.3329910860834981  1.0000
  H   H98       1.0  0.8816582885687883  0.458022216886046  0.3385112217488926  1.0000
  H   H99       1.0  0.8336629531972605  0.38225726361173573  0.2833530158982673  1.0000
  H   H100      1.0  0.8609773580494124  0.32340078293687063  0.27817242922850044  1.0000
  C   C151      1.0  0.9451281365961746  0.1482633299091588  0.40802725479436597  1.0000
  C   C152      1.0  0.9491320743213929  0.1107370528095145  0.42528779866257227  1.0000
  C   C153      1.0  0.9349141091148659  0.07614425761185317  0.4205849572941393  1.0000
  C   C154      1.0  0.9169096536535039  0.07853569538840488  0.3980338862797267  1.0000
  C   C155      1.0  0.9124384310687755  0.11658995728840593  0.3815631677356536  1.0000
  C   C156      1.0  0.926517791805536  0.15155958658390845  0.38662712118843445  1.0000
  H   H101      1.0  0.9633481725343005  0.1083370074671357  0.44221275664566856  1.0000
  H   H102      1.0  0.9378744035174439  0.047717278807574814  0.43457464773850335  1.0000
  H   H103      1.0  0.8984570757862512  0.11862645738865374  0.3641708125266147  1.0000
  H   H104      1.0  0.9234535018444593  0.18038254975910428  0.37301165781796614  1.0000
  C   C157      1.0  0.9950337877694083  0.42240718804310384  0.3537856801697161  1.0000
  C   C158      1.0  0.9758373648406024  0.44700212202141565  0.3566589982002471  1.0000
  C   C159      1.0  0.9710639758084114  0.47874991943428435  0.33343785845730767  1.0000
  C   C160      1.0  0.9853122223731142  0.48560719638105193  0.3070088599407068  1.0000
  C   C161      1.0  0.0048336952835150715  0.4618712080404121  0.3047047597812561  1.0000
  C   C162      1.0  0.009771386168231144  0.4304926249384569  0.32824346736750803  1.0000
  H   H105      1.0  0.9646926013446948  0.44169795753738744  0.37683881089474774  1.0000
  H   H106      1.0  0.9560553377881591  0.4973582795823293  0.335518716784663  1.0000
  H   H107      1.0  0.016186486926864863  0.4677456192230178  0.28494606760167224  1.0000
  H   H108      1.0  0.024743006887696373  0.41177468211022683  0.3261711393371064  1.0000
  C   C163      1.0  0.9222230233682965  0.3455271853460473  0.5088376080219121  1.0000
  C   C164      1.0  0.9316247792470841  0.30491991639832006  0.5106125812757876  1.0000
  C   C165      1.0  0.9413022491410281  0.291392052216332  0.5409770089363557  1.0000
  C   C166      1.0  0.9422358680692461  0.31890579010068804  0.5693144587515945  1.0000
  C   C167      1.0  0.9328860379954663  0.3596293145546009  0.5675305928469551  1.0000
  C   C168      1.0  0.9225292354649773  0.37264406091234337  0.5374521182931619  1.0000
  H   H109      1.0  0.9312975611007064  0.2836793712250625  0.48867290923871476  1.0000
  H   H110      1.0  0.9485272685875659  0.25988171858976883  0.5422790615165204  1.0000
  H   H111      1.0  0.9334809580262767  0.38092328231240896  0.5893830879797597  1.0000
  H   H112      1.0  0.9152703521904212  0.4040942673589134  0.5361212008111577  1.0000
  C   C169      1.0  0.37589441561543036  0.28407399951974166  0.39118028478388456  1.0000
  C   C170      1.0  0.39290746138434296  0.28945098356569626  0.36861315208626927  1.0000
  C   C171      1.0  0.40345273239118257  0.3287336863192769  0.3670999029900583  1.0000
  C   C172      1.0  0.39739427963786805  0.36233799687039936  0.38880118570835565  1.0000
  C   C173      1.0  0.38107564858125126  0.35643622845172357  0.4124225016170157  1.0000
  C   C174      1.0  0.37029434462070693  0.31729258559999596  0.4135845979373331  1.0000
  H   H113      1.0  0.3973758141734425  0.2636732649814363  0.35140970677124467  1.0000
  H   H114      1.0  0.41601636566236755  0.33307576445772963  0.3487688650001393  1.0000
  H   H115      1.0  0.3764701123795077  0.3823477066844262  0.4293954497744639  1.0000
  H   H116      1.0  0.35757062024261316  0.312911918685993  0.43164537482797444  1.0000
  C   C175      1.0  0.26980470230169135  0.09449272724207258  0.4081634685844395  1.0000
  C   C176      1.0  0.279635367903767  0.09873337077200979  0.4403527671049277  1.0000
  C   C177      1.0  0.28376353589782505  0.06266887791678366  0.45959747756050545  1.0000
  C   C178      1.0  0.27862382332568403  0.022146993739508458  0.4463042301789936  1.0000
  C   C179      1.0  0.2690549941749631  0.0178120258435015  0.41394611864447917  1.0000
  C   C180      1.0  0.2643646629860602  0.054007002002071536  0.3951129526377849  1.0000
  H   H117      1.0  0.28384476351396587  0.12976260667011444  0.4505669733647539  1.0000
  H   H118      1.0  0.2913164076885802  0.0660676850769053  0.48451993061015597  1.0000
  H   H119      1.0  0.2650737353024806  0.9866372829409644  0.4034850671749368  1.0000
  H   H120      1.0  0.2567457702485526  0.050575313224662466  0.37022521380527995  1.0000
  C   C181      1.0  0.2590278320872493  0.3270665311383755  0.31380703317177544  1.0000
  C   C182      1.0  0.2529837262825381  0.35603324065229747  0.2889967970032856  1.0000
  C   C183      1.0  0.2436409323684739  0.3415094553938737  0.25808460981739095  1.0000
  C   C184      1.0  0.24035803964291394  0.2979946118005376  0.25200237176799917  1.0000
  C   C185      1.0  0.2466229768133076  0.2690541782495123  0.27667502668592575  1.0000
  C   C186      1.0  0.25581812679481025  0.2835780363010247  0.30762401281037977  1.0000
  H   H121      1.0  0.25552162160309727  0.3897192094310791  0.2936633971554376  1.0000
  H   H122      1.0  0.23909592387731826  0.36396589580960526  0.23893216856560617  1.0000
  H   H123      1.0  0.24408228190482886  0.2353563189824284  0.2720421236262348  1.0000
  H   H124      1.0  0.2601406538586264  0.26105735119569506  0.32678609111652507  1.0000
  C   C187      1.0  0.2611053699274042  0.30342160649889516  0.5184193493837357  1.0000
  C   C188      1.0  0.2522183768493858  0.302994648839773  0.5505525208835197  1.0000
  C   C189      1.0  0.23239690820712328  0.32450473784085804  0.556997644036499  1.0000
  C   C190      1.0  0.22166871084056694  0.34723211955343297  0.5315500887943431  1.0000
  C   C191      1.0  0.23044954063347592  0.34727331917483156  0.49929482372366957  1.0000
  C   C192      1.0  0.2501803326474961  0.32541380869733794  0.49271908166750844  1.0000
  H   H125      1.0  0.2605188340941565  0.2855821568520671  0.5703798704009155  1.0000
  H   H126      1.0  0.22527706937650377  0.32295497555156466  0.5815349319294743  1.0000
  H   H127      1.0  0.22220894700135893  0.36492802670401453  0.4795504533040048  1.0000
  H   H128      1.0  0.2571457707585283  0.32639799550997417  0.46797210429852926  1.0000
  Fe  Fe65      1.0  0.2398527320698023  0.31310133314044464  0.8712494730526473  1.0000
  S   S129      1.0  0.2678507650136319  0.30124025063111265  0.8362932371331764  1.0000
  S   S130      1.0  0.20668719140960534  0.3354501459467497  0.852484024782265  1.0000
  Fe  Fe66      1.0  0.26839425842044284  0.3012061045495963  0.9342635667919633  1.0000
  S   S131      1.0  0.29888506235372003  0.28920521095676915  0.9048799364977836  1.0000
  S   S132      1.0  0.27135097363048266  0.29864764968837293  0.9906219120496532  1.0000
  Fe  Fe67      1.0  0.2868405517012863  0.34277056844545783  0.8732163672158417  1.0000
  S   S133      1.0  0.30689248251302925  0.39871414849391884  0.8594230910336852  1.0000
  Fe  Fe68      1.0  0.27691450031597625  0.2485103906874032  0.8712647557522419  1.0000
  S   S134      1.0  0.28963963389206204  0.1834985814242507  0.8564275675279178  1.0000
  S   S135      1.0  0.2582523050805888  0.35862416025476684  0.9057604718232178  1.0000
  S   S136      1.0  0.24709488421813036  0.25660155373805205  0.9031169297519341  1.0000
  Fe  Fe69      1.0  0.9771059733036038  0.3085262982532702  0.9654890908795137  1.0000
  S   S137      1.0  0.9489919476569734  0.2805594810262236  0.9926519457054077  1.0000
  S   S138      1.0  0.0019004932671258246  0.35349934082947615  0.9896227444055762  1.0000
  Fe  Fe70      1.0  0.9617401861226208  0.2719943586375112  0.8972344396049852  1.0000
  S   S139      1.0  0.932315853710527  0.2410556214118503  0.9186552544832627  1.0000
  S   S140      1.0  0.9669166408444303  0.26040585533406224  0.8417061270146479  1.0000
  Fe  Fe71      1.0  0.9283855102156863  0.3018516266777538  0.9485332846104768  1.0000
  S   S141      1.0  0.8960733407351851  0.3358641977986126  0.9551895678262573  1.0000
  Fe  Fe72      1.0  0.9556019073300798  0.22235758870666641  0.9603462778963996  1.0000
  S   S142      1.0  0.952681123815391  0.1558301873787496  0.9784648167044623  1.0000
  S   S143      1.0  0.9558516910661701  0.3346835474614552  0.9237522379919124  1.0000
  S   S144      1.0  0.9856412630446818  0.24833922395895738  0.9367099502720205  1.0000
  Fe  Fe73      1.0  0.9908958670002873  0.4441536644806404  0.6330055232042398  1.0000
  S   S145      1.0  0.008818309254793988  0.44002789579990953  0.682975571731473  1.0000
  S   S146      1.0  0.991660618641739  0.501391840532461  0.6009367422115492  1.0000
  Fe  Fe74      1.0  0.9743459132709534  0.354670430335126  0.6336405882446603  1.0000
  S   S147      1.0  0.9908221511016464  0.34180320985718105  0.6834629632968634  1.0000
  S   S148      1.0  0.9906287542647784  0.3940683093494429  0.1450945678993112  1.0000
  Fe  Fe75      1.0  0.9784820846211477  0.4064532275835133  0.6987744731320035  1.0000
  S   S149      1.0  0.9648664818561552  0.42087584057761385  0.7500043185088031  1.0000
  Fe  Fe76      1.0  0.019640877189649686  0.3759462861531617  0.6635599077613274  1.0000
  S   S150      1.0  0.05318825324344312  0.3495752578342471  0.6761641945655602  1.0000
  S   S151      1.0  0.9593505335970013  0.41675637682624345  0.6505347957741923  1.0000
  S   S152      1.0  0.004462571220381628  0.38274564677935624  0.611940379953733  1.0000
  Fe  Fe77      1.0  0.18742509157538254  0.3491848074394946  0.11907674890417774  1.0000
  S   S153      1.0  0.22034251984415865  0.3649157663077718  0.1431558599931506  1.0000
  S   S154      1.0  0.18193472462428958  0.33457972893161575  0.06378852745048769  1.0000
  Fe  Fe78      1.0  0.163251018189298  0.437122427446444  0.6449520931749467  1.0000
  S   S155      1.0  0.1866810817944482  0.4288634194471251  0.6893099241417057  1.0000
  S   S156      1.0  0.1311319613803077  0.47351082451290494  0.6462902549118443  1.0000
  Fe  Fe79      1.0  0.20248298621425834  0.4205476224092933  0.1664060797525071  1.0000
  S   S157      1.0  0.22005329429517748  0.48298037837792546  0.16989676193651748  1.0000
  Fe  Fe80      1.0  0.19156201357969035  0.36317389412057155  0.6668701679617435  1.0000
  S   S158      1.0  0.19804803762199902  0.30356360410060046  0.6952547646211616  1.0000
  S   S159      1.0  0.17036280297416312  0.40757045765616434  0.13899601303940923  1.0000
  S   S160      1.0  0.16586351107042455  0.3695333860788337  0.6254523756908875  1.0000
  Fe  Fe81      1.0  0.3022948547016832  0.9491569024771379  0.9290067942330191  1.0000
  S   S161      1.0  0.2933234335443982  0.8857085224424215  0.9485744390112316  1.0000
  S   S162      1.0  0.3354785845356506  0.9630927085395907  0.9085571673718482  1.0000
  Fe  Fe82      1.0  0.2568951662376787  0.9860208212321463  0.938182941554693  1.0000
  S   S163      1.0  0.2434493001009929  0.9257162916550508  0.9577986142570099  1.0000
  S   S164      1.0  0.23591517452825983  0.043570477661634355  0.9289704223811874  1.0000
  Fe  Fe83      1.0  0.2751655384613462  0.9233648555023632  0.9880159868102768  1.0000
  S   S165      1.0  0.27783112466029936  0.9009059730295882  0.04131455996988098  1.0000
  Fe  Fe84      1.0  0.2625600155736949  0.8932449712940419  0.916853849185229  1.0000
  S   S166      1.0  0.24794095744588643  0.8376126943870535  0.8875683945435227  1.0000
  S   S167      1.0  0.2872635566071101  0.9865847656466449  0.9716379084672131  1.0000
  S   S168      1.0  0.2728651441270928  0.9539755131494116  0.8941727852812177  1.0000
  Fe  Fe85      1.0  0.9542001261476967  0.9623538373330309  0.8642784893157147  1.0000
  S   S169      1.0  0.9800236171986965  0.9381644104115598  0.9004719971923293  1.0000
  S   S170      1.0  0.9547577189439549  0.03129290816908359  0.851301742762272  1.0000
  Fe  Fe86      1.0  0.9338257982106178  0.8760882637408647  0.8515578569318187  1.0000
  S   S171      1.0  0.9576118174369403  0.8442662823886662  0.8868440602818566  1.0000
  S   S172      1.0  0.9101494806873687  0.8329227970443531  0.8233248360034015  1.0000
  Fe  Fe87      1.0  0.9523142257751039  0.9008194748219099  0.9210035098490739  1.0000
  S   S173      1.0  0.9469623044585873  0.891668282022018  0.9761626499992322  1.0000
  Fe  Fe88      1.0  0.9831485958976727  0.8836395582359996  0.8632256020227619  1.0000
  S   S174      1.0  0.014569341201724484  0.8490663442298299  0.8508934657383228  1.0000
  S   S175      1.0  0.9259384581981407  0.9297207104668099  0.8878972749954935  1.0000
  S   S176      1.0  0.9597620378226298  0.9110514148439992  0.8248148281687996  1.0000
  Fe  Fe89      1.0  0.06177109671827008  0.7252458406198744  0.6458027604753025  1.0000
  S   S177      1.0  0.033393161441440444  0.6939974181290981  0.6184301160019482  1.0000
  S   S178      1.0  0.09459865484750396  0.692317976577767  0.6521261811144705  1.0000
  Fe  Fe90      1.0  0.03436557012787356  0.8008700728766345  0.6687789004369707  1.0000
  S   S179      1.0  0.0032124829446660286  0.7765912342852185  0.6435491275563725  1.0000
  S   S180      1.0  0.035469259208120496  0.8638354686974381  0.6969410800879533  1.0000
  Fe  Fe91      1.0  0.013898087407943294  0.7137172570803829  0.6635086894873882  1.0000
  S   S181      1.0  0.9910836114235014  0.6700569157132593  0.6892093117578636  1.0000
  Fe  Fe92      1.0  0.024991221561801336  0.7592360101395177  0.6003004403039652  1.0000
  S   S182      1.0  0.03342135200727525  0.9272376110880844  0.06282764102193972  1.0000
  S   S183      1.0  0.04311911373120014  0.7393387197338235  0.692753360787103  1.0000
  S   S184      1.0  0.055333960109430036  0.7890757832088708  0.623761627462079  1.0000
  Fe  Fe93      1.0  0.24267204603435089  0.8045674643225151  0.6984064698915876  1.0000
  S   S185      1.0  0.23730440861256907  0.8166075108583115  0.6432980049025763  1.0000
  S   S186      1.0  0.2625667776664202  0.8505418986231846  0.7310182292823403  1.0000
  Fe  Fe94      1.0  0.18222180461228796  0.7047058912905713  0.14855074651667555  1.0000
  S   S187      1.0  0.1603214742906202  0.7620900127336191  0.15368261809217754  1.0000
  S   S188      1.0  0.16717409247889675  0.6461467076866553  0.12454125088134105  1.0000
  Fe  Fe95      1.0  0.19013098525570882  0.797464037972882  0.1379823293804503  1.0000
  S   S189      1.0  0.18661857873422136  0.8491287693600343  0.10021658267405553  1.0000
  Fe  Fe96      1.0  0.2034336785834791  0.7911467581273578  0.6505263462738387  1.0000
  S   S190      1.0  0.17260682232826227  0.817777609886154  0.6268207620443533  1.0000
  S   S191      1.0  0.2110733680579608  0.7394183508660783  0.128807820893881  1.0000
  S   S192      1.0  0.20768765402353398  0.7857892042581677  0.7064167896335491  1.0000
  Fe  Fe97      1.0  0.4062533274757893  0.4136933679010352  0.7691113779754088  1.0000
  S   S193      1.0  0.44204213175004453  0.40025967898780557  0.761361733615791  1.0000
  S   S194      1.0  0.3802706700239063  0.3669060995324819  0.752571391083646  1.0000
  Fe  Fe98      1.0  0.41513760944040434  0.49433655231208884  0.81025340503938  1.0000
  S   S195      1.0  0.45185974333075024  0.4877030419764341  0.8069584828228535  1.0000
  S   S196      1.0  0.39704382619736794  0.5485238616642322  0.835159254290718  1.0000
  Fe  Fe99      1.0  0.44433501379840384  0.4701036860732493  0.7527691232575078  1.0000
  S   S197      1.0  0.4656229512997861  0.49773553194997877  0.7138867806819688  1.0000
  Fe  Fe100     1.0  0.4461124454599754  0.41877876193121655  0.8160540368178344  1.0000
  S   S198      1.0  0.4671765995779581  0.37583634763772533  0.8476811981545731  1.0000
  S   S199      1.0  0.4079971576693245  0.48206592748965926  0.7551266703449375  1.0000
  S   S200      1.0  0.41013423646047537  0.4269769545824339  0.8246278372809112  1.0000
  Fe  Fe101     1.0  0.8186356209578486  0.3982707520725194  0.8109656176068725  1.0000
  S   S201      1.0  0.7928703491297074  0.3705871340376777  0.7753292012744969  1.0000
  S   S202      1.0  0.8521901831683546  0.3672711018346094  0.8116912147694083  1.0000
  Fe  Fe102     1.0  0.7893132488229064  0.4712288806660523  0.8337947512924182  1.0000
  S   S203      1.0  0.7612323839695501  0.4503326860949474  0.7998297462167971  1.0000
  S   S204      1.0  0.78289154192124  0.5268673393470885  0.8692421261748873  1.0000
  Fe  Fe103     1.0  0.7696265290672964  0.3849171437407377  0.8168685496986944  1.0000
  S   S205      1.0  0.7443971325422017  0.33781018255345746  0.8314922491242841  1.0000
  Fe  Fe104     1.0  0.7867293571201405  0.43807798648895907  0.761131994346829  1.0000
  S   S206      1.0  0.7774376908286539  0.45927275505551757  0.7091423790782088  1.0000
  S   S207      1.0  0.7957345063320782  0.40640086392246677  0.8542447853914978  1.0000
  S   S208      1.0  0.8144252868822093  0.46507961443556345  0.7932764701118568  1.0000
  Fe  Fe105     1.0  0.6792388208653259  0.25155670025276916  0.5871683948971853  1.0000
  S   S209      1.0  0.6949803562729122  0.2873239261567973  0.6307683198703974  1.0000
  S   S210      1.0  0.6645239071651802  0.18679193021804388  0.590960650800252  1.0000
  Fe  Fe106     1.0  0.6866933399541658  0.32169608105496633  0.5383022197675517  1.0000
  S   S211      1.0  0.703110779105567  0.3640817287279955  0.5774194258551281  1.0000
  S   S212      1.0  0.6946943103716641  0.4291426995639584  0.9501380405234265  1.0000
  Fe  Fe107     1.0  0.7204465764365643  0.3047911806694697  0.5940254261312421  1.0000
  S   S213      1.0  0.7555495653644684  0.30075019340904313  0.6130404679464706  1.0000
  Fe  Fe108     1.0  0.6764920202926424  0.3433802460691097  0.6110397668595574  1.0000
  S   S214      1.0  0.6615895264845285  0.3916121073143195  0.6462257081046849  1.0000
  S   S215      1.0  0.7064318364585758  0.263635824311215  0.5516608563078989  1.0000
  S   S216      1.0  0.658192713204733  0.30631943213512974  0.570435123787539  1.0000
  Fe  Fe109     1.0  0.48811441278881784  0.34912172495994276  0.024190650835605343  1.0000
  S   S217      1.0  0.49018313456063917  0.2928822090263257  0.058047745767340286  1.0000
  S   S218      1.0  0.45668927890105226  0.37914366211944034  0.004326158279620129  1.0000
  Fe  Fe110     1.0  0.5440449383045493  0.3803772862517616  0.5757905818237806  1.0000
  S   S219      1.0  0.5204125803463704  0.3586405369570236  0.6139558883448716  1.0000
  S   S220      1.0  0.5671251881805964  0.4346415177481242  0.5860009352240768  1.0000
  Fe  Fe111     1.0  0.5275371170644091  0.29345797839822796  0.5926201860253716  1.0000
  S   S221      1.0  0.5275145346412666  0.20634414386055475  0.00740020056347257  1.0000
  Fe  Fe112     1.0  0.4952598989115992  0.3620198478429804  0.5717494339567071  1.0000
  S   S222      1.0  0.46081109195750414  0.38552265685595477  0.5797863004393413  1.0000
  S   S223      1.0  0.5139312541467241  0.32517212104496634  0.9887084950558157  1.0000
  S   S224      1.0  0.5181225238777127  0.38969499449594114  0.5352694483597235  1.0000
  Fe  Fe113     1.0  0.4452867250618495  0.856442566366144  0.8454075367734709  1.0000
  S   S225      1.0  0.42375715142233433  0.8085115918263773  0.868653113418697  1.0000
  S   S226      1.0  0.45504828915806284  0.9143416905121305  0.8764903038950651  1.0000
  Fe  Fe114     1.0  0.4467925724449359  0.8078504128279235  0.7784711026778204  1.0000
  S   S227      1.0  0.4251460584270217  0.7561221257650849  0.7960144530984713  1.0000
  S   S228      1.0  0.45903271073570245  0.7989538162492144  0.7258378243121767  1.0000
  Fe  Fe115     1.0  0.40521666291831965  0.809060326996673  0.8191027422266413  1.0000
  S   S229      1.0  0.36818190950073193  0.8085662238147694  0.8184054428817745  1.0000
  Fe  Fe116     1.0  0.4458424206496459  0.760678500843618  0.8434906484361865  1.0000
  S   S230      1.0  0.46007983836300725  0.7027302764615763  0.8676359294050542  1.0000
  S   S231      1.0  0.42502992553910895  0.8609009120763174  0.7973618164480101  1.0000
  S   S232      1.0  0.46917774889530894  0.8085543298385331  0.8243310447102554  1.0000
  Fe  Fe117     1.0  0.7903625759047515  0.8514579878074546  0.8265943908197063  1.0000
  S   S233      1.0  0.7610342764227952  0.8669042286516605  0.857571608315258  1.0000
  S   S234      1.0  0.8130422806847665  0.9050095163953549  0.8159871642713387  1.0000
  Fe  Fe118     1.0  0.7781218598172887  0.7586671026495169  0.8176849194354726  1.0000
  S   S235      1.0  0.747415146426651  0.766004734846962  0.8477391824445053  1.0000
  S   S236      1.0  0.789973299742056  0.6983922004049472  0.7920908884837826  1.0000
  Fe  Fe119     1.0  0.7424911968467169  0.8263311224570198  0.8196714390457769  1.0000
  S   S237      1.0  0.710557598949189  0.8537918838274802  0.8004663799598988  1.0000
  Fe  Fe120     1.0  0.7688309781849827  0.8058622177136292  0.8830011111971888  1.0000
  S   S238      1.0  0.767962561146886  0.7988534633595853  0.9390909315328598  1.0000
  S   S239      1.0  0.7713021602782301  0.8158095391185883  0.7862412781770799  1.0000
  S   S240      1.0  0.7999895325306094  0.7935919094843997  0.8553513826831914  1.0000
  Fe  Fe121     1.0  0.6858738469842178  0.9616159137169749  0.5738529532251856  1.0000
  S   S241      1.0  0.7150978825374859  0.0023791629494804845  0.5658040696612019  1.0000
  S   S242      1.0  0.6544648989207146  0.9847665217634212  0.5493160703210254  1.0000
  Fe  Fe122     1.0  0.7125297660871956  0.8998928227291018  0.6159172852360013  1.0000
  S   S243      1.0  0.7439666471462464  0.9364458542332146  0.6119347770310558  1.0000
  S   S244      1.0  0.71367203685704  0.8375650552530425  0.6419873477544614  1.0000
  Fe  Fe123     1.0  0.7222445124693727  0.9935109520126159  0.620726574176823  1.0000
  S   S245      1.0  0.7305246266871284  0.051974468547803854  0.6520987154193437  1.0000
  Fe  Fe124     1.0  0.7336061878169263  0.9415410061576006  0.5574890066344556  1.0000
  S   S246      1.0  0.7567982340796392  0.9734744988855878  0.018206175249665835  1.0000
  S   S247      1.0  0.6916117707436663  0.956587057582612  0.62961003120219  1.0000
  S   S248      1.0  0.7035982789634688  0.9010225379653567  0.5606619802596482  1.0000
  Fe  Fe125     1.0  0.5268853298609157  0.011758746466857817  0.5556121204110905  1.0000
  S   S249      1.0  0.5030347479419485  0.9850694171703562  0.035169457276945204  1.0000
  S   S250      1.0  0.5380747640012128  0.0720867179025273  0.5331388858734991  1.0000
  Fe  Fe126     1.0  0.5042113158250492  0.9617357065803328  0.6092816653157609  1.0000
  S   S251      1.0  0.5057219509973129  0.9006028642682499  0.5787301666513184  1.0000
  S   S252      1.0  0.49225008719367447  0.9678469805247776  0.6624284912067435  1.0000
  Fe  Fe127     1.0  0.540271663682366  0.9208239038147992  0.5691456016819454  1.0000
  S   S253      1.0  0.5697271313094917  0.8788954776600166  0.5783424242021341  1.0000
  Fe  Fe128     1.0  0.4969180988277241  0.9211714853775514  0.05602728414175062  1.0000
  S   S254      1.0  0.47655204460228684  0.8714709412800904  0.028238199373721296  1.0000
  S   S255      1.0  0.5394229994562305  0.9797450833444732  0.6019556437979775  1.0000
  S   S256      1.0  0.4914628496123135  0.0006003854798246611  0.5663665411283908  1.0000
  C   C193      1.0  0.631198158024745  0.9556175708986709  0.5590539487026742  1.0000
  C   C194      1.0  0.6330738460168961  0.9180334859105997  0.5769461108744025  1.0000
  C   C195      1.0  0.6141816678839552  0.8940649823299817  0.5826451773459258  1.0000
  C   C196      1.0  0.5934524975142609  0.9082621992853772  0.5711089066062311  1.0000
  C   C197      1.0  0.591662191754684  0.9462928173022314  0.5538575432893189  1.0000
  C   C198      1.0  0.6105212583674501  0.9695895043589343  0.5474210201176852  1.0000
  H   H129      1.0  0.6490684275230693  0.9071276498968806  0.5860007826259547  1.0000
  H   H130      1.0  0.6156189333046053  0.8647076553400361  0.5961026395698719  1.0000
  H   H131      1.0  0.5757796749967969  0.9574513801550741  0.5448748387296692  1.0000
  H   H132      1.0  0.6090546884938521  0.9983352195592916  0.5332098344155856  1.0000
  C   C199      1.0  0.7674397034988588  0.8470692611265421  0.9622764520175389  1.0000
  C   C200      1.0  0.7728979874390457  0.8851323923006237  0.9473618563211196  1.0000
  C   C201      1.0  0.7705466102458545  0.9238655231395148  0.9652776505533874  1.0000
  C   C202      1.0  0.7623982960095628  0.9246143369207249  0.9979457876506256  1.0000
  C   C203      1.0  0.7577992250904203  0.8864258933841388  0.013392329157225547  1.0000
  C   C204      1.0  0.7606258834682971  0.8476101108347112  0.9956958529234058  1.0000
  H   H133      1.0  0.7788517909336526  0.8848432894466305  0.922034902045233  1.0000
  H   H134      1.0  0.7743012337694819  0.9534114011458029  0.9534488854548527  1.0000
  H   H135      1.0  0.7518703430110554  0.8868640683419213  0.038852775815427565  1.0000
  H   H136      1.0  0.7566908205358696  0.8181312072262403  0.007482983587401737  1.0000
  C   C205      1.0  0.7094012109555564  0.8473926159408931  0.756437546756987  1.0000
  C   C206      1.0  0.6995083393050776  0.8788048911446572  0.7366908096238183  1.0000
  C   C207      1.0  0.7005493761096496  0.8758625932649646  0.7014030246097486  1.0000
  C   C208      1.0  0.7110009509048918  0.8409822098058651  0.6858493892480648  1.0000
  C   C209      1.0  0.7201742168694409  0.8088578744386271  0.7056161763962548  1.0000
  C   C210      1.0  0.719654058563674  0.8123504447378368  0.7408748201483297  1.0000
  H   H137      1.0  0.6915399791923382  0.9059242471985592  0.7486841062850293  1.0000
  H   H138      1.0  0.6931458861687974  0.900393843279138  0.6862760752749417  1.0000
  H   H139      1.0  0.728224233083453  0.7817989483990343  0.6936552196185649  1.0000
  H   H140      1.0  0.7271479002977739  0.7878160380495282  0.7560158112229026  1.0000
  C   C211      1.0  0.4604437071465222  0.9020772102220012  0.9186776112765471  1.0000
  C   C212      1.0  0.4613441797762747  0.9347907334091824  0.9432952630562249  1.0000
  C   C213      1.0  0.4661249064011443  0.9255358171797257  0.9770729473489564  1.0000
  C   C214      1.0  0.47031768114579175  0.8835929089491334  0.98621904970046  1.0000
  C   C215      1.0  0.46915190604866386  0.8508128876528944  0.9616330876262175  1.0000
  C   C216      1.0  0.46430237211536396  0.8600474145774637  0.9278564882285387  1.0000
  H   H141      1.0  0.45819634073504156  0.9673193601346844  0.9362743830000395  1.0000
  H   H142      1.0  0.4662798697669788  0.9508152566491439  0.9960847969431733  1.0000
  H   H143      1.0  0.47225314358195697  0.8182606420335311  0.9686556333405008  1.0000
  H   H144      1.0  0.46392817001019093  0.8346484235737922  0.9088974804702802  1.0000
  C   C217      1.0  0.4666431968813159  0.8469316691216161  0.7081724052851438  1.0000
  C   C218      1.0  0.4702817269029023  0.8833957228834425  0.7284878336110258  1.0000
  C   C219      1.0  0.47744346576837254  0.9209205193209484  0.7140575750056032  1.0000
  C   C220      1.0  0.48084738380328074  0.9221305351269673  0.6793085982129802  1.0000
  C   C221      1.0  0.47642718622674335  0.8860660892426687  0.6589480839561562  1.0000
  C   C222      1.0  0.4696422259977024  0.8483765796593905  0.6733938838404612  1.0000
  H   H145      1.0  0.4678862654833488  0.8825168715744177  0.7553704360519939  1.0000
  H   H146      1.0  0.4806279381296558  0.9488621255913706  0.7299167636937313  1.0000
  H   H147      1.0  0.47821871105894953  0.8870705995975512  0.6320784164134015  1.0000
  H   H148      1.0  0.4665252096492878  0.820387842626951  0.6575627813909388  1.0000
  C   C223      1.0  0.5132444182152793  0.167546252674347  0.028504537686654174  1.0000
  C   C224      1.0  0.5349926011916972  0.19415622588491885  0.5658009201922506  1.0000
  C   C225      1.0  0.5367016106701284  0.15740865357980782  0.5453062010355254  1.0000
  C   C226      1.0  0.5347408733158177  0.1173280982474727  0.5591749846710772  1.0000
  C   C227      1.0  0.5132356353427416  0.09838494975565104  0.053691014414100735  1.0000
  C   C228      1.0  0.5233907494376234  0.12825578565532805  0.033950007986499164  1.0000
  H   H149      1.0  0.5365391530951185  0.22497630027372173  0.5548445559262294  1.0000
  H   H150      1.0  0.5396296081086652  0.16014615920324693  0.5186776300533282  1.0000
  H   H151      1.0  0.5215336220057312  0.0686532314572097  0.05834250741552105  1.0000
  H   H152      1.0  0.5393806963128528  0.12122692449479933  0.023604970343341414  1.0000
  C   C229      1.0  0.6818072123709707  0.15045840211114644  0.6118343529692448  1.0000
  C   C230      1.0  0.6999194061124995  0.16380421644232382  0.6319676019231709  1.0000
  C   C231      1.0  0.7144113244693184  0.13360583379971813  0.6461225569939315  1.0000
  C   C232      1.0  0.7107618248098745  0.0901366191217956  0.6400006606211482  1.0000
  C   C233      1.0  0.692111417197592  0.07714886935251819  0.621157634661125  1.0000
  C   C234      1.0  0.6777575173699179  0.10710133033612447  0.6070832838214151  1.0000
  H   H153      1.0  0.7029836591513418  0.19726366837596412  0.636232122349379  1.0000
  H   H154      1.0  0.728742160374055  0.14389830893339206  0.6608696409473763  1.0000
  H   H155      1.0  0.6888427776550244  0.04388631631998918  0.6166943096172856  1.0000
  H   H156      1.0  0.6639626662196049  0.09638132598015736  0.5914974383626631  1.0000
  C   C235      1.0  0.6347237786731259  0.4027752459130423  0.6316231949949799  1.0000
  C   C236      1.0  0.627687256044631  0.44502067771256926  0.6294369951326354  1.0000
  C   C237      1.0  0.6067721037531972  0.45443049849153255  0.6156958950154044  1.0000
  C   C238      1.0  0.5926031313422273  0.4216280574963054  0.604968144074638  1.0000
  C   C239      1.0  0.5872737438734689  0.37345714794978263  0.059293552910888  1.0000
  C   C240      1.0  0.6060096413655911  0.3599553217872495  0.07750822801274393  1.0000
  H   H157      1.0  0.6386044410586182  0.4705299350718137  0.6375626600005048  1.0000
  H   H158      1.0  0.6015643281824502  0.48721363007079727  0.6133255921573105  1.0000
  H   H159      1.0  0.5714357554862874  0.3740057826979257  0.07107257506849507  1.0000
  H   H160      1.0  0.6044456022196792  0.3491291203085085  0.10295367723729387  1.0000
  C   C241      1.0  0.786644165639223  0.5758581106041594  0.850103394787019  1.0000
  C   C242      1.0  0.799543176372149  0.5781832391841346  0.8216128800790635  1.0000
  C   C243      1.0  0.8014457137664137  0.6166822990699649  0.8051503650382453  1.0000
  C   C244      1.0  0.790210931456134  0.6529901484443764  0.8167680020907804  1.0000
  C   C245      1.0  0.777817551640354  0.6511789588007028  0.8459121789573125  1.0000
  C   C246      1.0  0.7761197229681434  0.6126150820016885  0.86267084967909  1.0000
  H   H161      1.0  0.808229255131533  0.5504500779048271  0.8123437493631158  1.0000
  H   H162      1.0  0.8115066341605232  0.6182732590827583  0.7831474062289508  1.0000
  H   H163      1.0  0.7691323721171744  0.6791446279436035  0.8550769577538501  1.0000
  H   H164      1.0  0.7662096399689635  0.6110952927479296  0.8848381236695787  1.0000
  C   C247      1.0  0.7629576391524722  0.3457247788658156  0.6380243622296811  1.0000
  C   C248      1.0  0.7523237184198336  0.38479574648890014  0.6333108355653729  1.0000
  C   C249      1.0  0.7574847341087024  0.419996095131689  0.6544043325657289  1.0000
  C   C250      1.0  0.7730070514041498  0.4160787032001209  0.6808237935473905  1.0000
  C   C251      1.0  0.7841181815432512  0.37737015883969316  0.6850673363739079  1.0000
  C   C252      1.0  0.7791859665445654  0.3422899554436772  0.6635722975008377  1.0000
  H   H165      1.0  0.7403904576277476  0.38823902565284024  0.6130445515260685  1.0000
  H   H166      1.0  0.7490957703448813  0.4500191288600665  0.650605358965962  1.0000
  H   H167      1.0  0.7967325685774063  0.3745313454663401  0.7045680858602813  1.0000
  H   H168      1.0  0.7877046984666559  0.3123260644914681  0.667081309045824  1.0000
  C   C253      1.0  0.7278309760432018  0.3619633092408115  0.8620881114075883  1.0000
  C   C254      1.0  0.7231944437108028  0.40551074430515  0.8612268062574275  1.0000
  C   C255      1.0  0.7117318478537704  0.42563167496132487  0.8873945968699063  1.0000
  C   C256      1.0  0.7055209891747495  0.40243868305181507  0.9150321020321796  1.0000
  C   C257      1.0  0.7096600555624706  0.35865077003364165  0.9155639044126724  1.0000
  C   C258      1.0  0.7203398134552248  0.3382387011256511  0.888647365511395  1.0000
  H   H169      1.0  0.7282841425148858  0.4237907790966114  0.840371016566168  1.0000
  H   H170      1.0  0.7083169890216079  0.4593932131606563  0.8866948358397823  1.0000
  H   H171      1.0  0.7046633139450003  0.3404999279479422  0.9367042534025947  1.0000
  H   H172      1.0  0.7233140094531421  0.30436073611776887  0.888919348856966  1.0000
  C   C259      1.0  0.41415517242410743  0.5909141659265158  0.8476875446161964  1.0000
  C   C260      1.0  0.40578004004459406  0.6324787816748765  0.847183906118771  1.0000
  C   C261      1.0  0.41973190319023546  0.66701779097573  0.8543232046391153  1.0000
  C   C262      1.0  0.44196097541037205  0.6599297428239016  0.8627030820547601  1.0000
  C   C263      1.0  0.4501481149998873  0.6183212434252848  0.8644911488216718  1.0000
  C   C264      1.0  0.4362839871088336  0.5838133397484842  0.8567108174781342  1.0000
  H   H173      1.0  0.3886237533592911  0.6379994010740485  0.840417177000097  1.0000
  H   H174      1.0  0.41329603933922227  0.6991185147054887  0.8532430135257744  1.0000
  H   H175      1.0  0.46732989444506506  0.6128488824917356  0.8710867891033088  1.0000
  H   H176      1.0  0.4426528529659582  0.5517583394128189  0.8580203224922125  1.0000
  C   C265      1.0  0.46326980227117576  0.4697176793657235  0.6751686820531373  1.0000
  C   C266      1.0  0.4438762215742596  0.44810831215826685  0.6658542276556001  1.0000
  C   C267      1.0  0.44274811855612545  0.4237733111982625  0.6356262761148601  1.0000
  C   C268      1.0  0.46117979798745046  0.4202062098646459  0.6152075719384742  1.0000
  C   C269      1.0  0.4804090503914115  0.44232927090712476  0.6243336669710483  1.0000
  C   C270      1.0  0.481361492833893  0.46744305306590167  0.6540713332433211  1.0000
  H   H177      1.0  0.42981490156534885  0.4499044009182458  0.6820456587133841  1.0000
  H   H178      1.0  0.42782525886335826  0.40675509419636247  0.6286042423966592  1.0000
  H   H179      1.0  0.49460250276317874  0.44020419407132316  0.6084453777683264  1.0000
  H   H180      1.0  0.4963654198940774  0.48416973073384995  0.6611699075583914  1.0000
  C   C271      1.0  0.45996443229957507  0.37329040372792716  0.8900026102550164  1.0000
  C   C272      1.0  0.4479764868018818  0.4061165085225225  0.905774129735727  1.0000
  C   C273      1.0  0.4457781702537111  0.4067518454520879  0.9409782630134725  1.0000
  C   C274      1.0  0.45534724498989926  0.3743460537761399  0.9601599798110244  1.0000
  C   C275      1.0  0.465716987353017  0.3400202378643259  0.9439105575268333  1.0000
  C   C276      1.0  0.4682610473681043  0.33973117457950364  0.9089826031623178  1.0000
  H   H181      1.0  0.44160566595979733  0.43226698854262213  0.89119238978726  1.0000
  H   H182      1.0  0.43767252904229104  0.4333672260131038  0.9534792140596023  1.0000
  H   H183      1.0  0.4721420773413057  0.31389049367133315  0.9583638179228332  1.0000
  H   H184      1.0  0.47723858020896653  0.31396186524883574  0.8967938696871247  1.0000
  C   C277      1.0  0.11628272616981139  0.7267463098489191  0.6442818270716326  1.0000
  C   C278      1.0  0.11396172593138099  0.7577042240769319  0.6198241571733948  1.0000
  C   C279      1.0  0.13134739158466266  0.7855514741785703  0.614282451548205  1.0000
  C   C280      1.0  0.15116056838657052  0.7820720605078813  0.6328758934330335  1.0000
  C   C281      1.0  0.15354798050140828  0.7507167800391534  0.6570316862722556  1.0000
  C   C282      1.0  0.1360884063600598  0.7232791566303843  0.662851115424087  1.0000
  H   H185      1.0  0.09889631751227301  0.7598628456886672  0.6047989280617221  1.0000
  H   H186      1.0  0.1295073199200082  0.8095165297351792  0.5953653300829593  1.0000
  H   H187      1.0  0.12248684552800382  0.7788896012188097  0.20334895941603293  1.0000
  H   H188      1.0  0.1378173852353961  0.699916579775125  0.6822126627229496  1.0000
  C   C283      1.0  0.8835068552923757  0.854110059489122  0.8187453323798457  1.0000
  C   C284      1.0  0.8794688787496859  0.8975927958543451  0.8241207745859183  1.0000
  C   C285      1.0  0.8578126674315344  0.9135254921272224  0.822009257084398  1.0000
  C   C286      1.0  0.840211764852093  0.8858593889151066  0.8150969230974143  1.0000
  C   C287      1.0  0.844311013163963  0.8425488695570237  0.8092149948226272  1.0000
  C   C288      1.0  0.8659543447889467  0.8267491787369999  0.8107957497274163  1.0000
  H   H189      1.0  0.8930227208025324  0.9189154245218926  0.8298198912063335  1.0000
  H   H190      1.0  0.8546824008153404  0.9470965024829251  0.8264215893733073  1.0000
  H   H191      1.0  0.8308275702806166  0.821132055529021  0.8032808865143625  1.0000
  H   H192      1.0  0.8690449622266969  0.7931274454983833  0.8064753006541691  1.0000
  C   C289      1.0  0.971400253012512  0.8959796755414714  0.00047959788712592655  1.0000
  C   C290      1.0  0.9705186212745384  0.8989030208495127  0.03569584941791426  1.0000
  C   C291      1.0  0.9897347784474992  0.9071102487187853  0.05517251059643491  1.0000
  C   C292      1.0  0.00971684217386004  0.9131585330816697  0.03932266334162371  1.0000
  C   C293      1.0  0.010717744229779225  0.9090473096212578  0.004247831327928164  1.0000
  C   C294      1.0  0.9916661517819606  0.8994879633903785  0.9849241185189804  1.0000
  H   H193      1.0  0.9548746384572655  0.8959704064251692  0.047858614002648014  1.0000
  H   H194      1.0  0.9889080011442367  0.9103063784371774  0.08234225297253306  1.0000
  H   H195      1.0  0.02622440994713693  0.9132979182134265  0.9919681060523466  1.0000
  H   H196      1.0  0.9926216439457775  0.8956532994946227  0.9579348659697304  1.0000
  C   C295      1.0  0.03104940212656082  0.8608363146831912  0.740269895761865  1.0000
  C   C296      1.0  0.03854805411276696  0.8257549916266567  0.7582848160328267  1.0000
  C   C297      1.0  0.03409838359165862  0.8230330492795346  0.792628358793361  1.0000
  C   C298      1.0  0.021835232147866757  0.855035754766467  0.808878604236972  1.0000
  C   C299      1.0  0.014749498007572415  0.8905418314470083  0.7910579265498124  1.0000
  C   C300      1.0  0.0196047545292517  0.8936852039495192  0.7568774021547785  1.0000
  H   H197      1.0  0.04790619068767965  0.8008662641716429  0.7459104524708069  1.0000
  H   H198      1.0  0.03974167944767748  0.7956885890618437  0.8064569949638513  1.0000
  H   H199      1.0  0.005727832197085503  0.9158340326105862  0.8036845963703738  1.0000
  H   H200      1.0  0.014014923573833382  0.9211391912834764  0.743114454435556  1.0000
  C   C301      1.0  0.34325836145792915  0.9228345440735564  0.8797769722332279  1.0000
  C   C302      1.0  0.3295744192925005  0.8878878941045254  0.873165222614636  1.0000
  C   C303      1.0  0.33704117133749634  0.8532328831876617  0.8535129956035142  1.0000
  C   C304      1.0  0.3582427127623931  0.8534468045430851  0.8405095752010021  1.0000
  C   C305      1.0  0.37164406082111706  0.8890033912000995  0.8462442424407565  1.0000
  C   C306      1.0  0.3640174284353836  0.9239483423434144  0.8654076258511412  1.0000
  H   H201      1.0  0.3134729330231592  0.8869201828035363  0.883948193317347  1.0000
  H   H202      1.0  0.32667350244380466  0.8256750673660587  0.8495401109218053  1.0000
  H   H203      1.0  0.3879641893420038  0.8895718152081765  0.8361222875274767  1.0000
  H   H204      1.0  0.37451158178827154  0.9512664583407783  0.8699049449172842  1.0000
  C   C307      1.0  0.2524765884864621  0.8402444499025715  0.8441119247083569  1.0000
  C   C308      1.0  0.26866222281565094  0.8668933255940772  0.8321364559883037  1.0000
  C   C309      1.0  0.2715343741451532  0.8701044130504221  0.7973758754229245  1.0000
  C   C310      1.0  0.2583524522306705  0.8464241216820321  0.7744106915548343  1.0000
  C   C311      1.0  0.24267622530478392  0.8186389713701158  0.7863565983060268  1.0000
  C   C312      1.0  0.2397468489822138  0.8155607202258828  0.8211702390407839  1.0000
  H   H205      1.0  0.279152085999432  0.8846509728776459  0.8496230249910838  1.0000
  H   H206      1.0  0.28408889266738396  0.8906781311379451  0.788280537872604  1.0000
  H   H207      1.0  0.23273450551741395  0.7995914109718869  0.7688652488541262  1.0000
  H   H208      1.0  0.22736660656721103  0.794520613960191  0.8302727228708768  1.0000
  C   C313      1.0  0.2525622593217198  0.8897244780428127  0.05962861320871826  1.0000
  C   C314      1.0  0.25204926805555594  0.8616180453836878  0.08633206259614834  1.0000
  C   C315      1.0  0.23184104513335596  0.8497565840550135  0.09951883271257755  1.0000
  C   C316      1.0  0.2121046196427414  0.8661143350324667  0.08603813848744468  1.0000
  C   C317      1.0  0.21264037815696465  0.8951996765459117  0.06005134368381282  1.0000
  C   C318      1.0  0.2328433155921453  0.9070190157758652  0.04689828206797819  1.0000
  H   H209      1.0  0.2672768788706049  0.8483499076986932  0.09641965099102934  1.0000
  H   H210      1.0  0.23157967036238136  0.8275707373585762  0.11981456750314345  1.0000
  H   H211      1.0  0.19741648967052453  0.9082654960012235  0.049805285685257994  1.0000
  H   H212      1.0  0.23314934446863503  0.9298021456106467  0.027120763966725026  1.0000
  C   C319      1.0  0.20491752246457476  0.5280446012343513  0.15771128279984126  1.0000
  C   C320      1.0  0.18398823228376823  0.5243173621745413  0.14233675657072586  1.0000
  C   C321      1.0  0.17253208369528722  0.5606488043407591  0.13175243649460588  1.0000
  C   C322      1.0  0.18188096720157595  0.6008636489340492  0.1369422104442264  1.0000
  C   C323      1.0  0.20731111519359247  0.5788038279220435  0.7162830610265676  1.0000
  C   C324      1.0  0.2147634945750638  0.5396971133023926  0.7030157347556927  1.0000
  H   H213      1.0  0.17656304077806018  0.4936331833254034  0.13858922850421185  1.0000
  H   H214      1.0  0.1563474653500102  0.5576033321443665  0.11988026132165386  1.0000
  H   H215      1.0  0.19338736487206845  0.5799102247036683  0.7327659532912558  1.0000
  H   H216      1.0  0.20658777561448832  0.5107744326291088  0.7093532571064874  1.0000
  C   C325      1.0  0.9878421488865031  0.5483943528011312  0.6248028823643428  1.0000
  C   C326      1.0  0.9836552431213501  0.5471991890868684  0.6592822764727145  1.0000
  C   C327      1.0  0.9834606348395137  0.5850211104232316  0.6789189093900484  1.0000
  C   C328      1.0  0.9872638730320039  0.6239402577121814  0.663977185996927  1.0000
  C   C329      1.0  0.9900672905407742  0.6252241915592454  0.6291920464676369  1.0000
  C   C330      1.0  0.9905079524592394  0.5874865442039936  0.6096469870759519  1.0000
  H   H217      1.0  0.981181002203285  0.5171089039140635  0.6710098223865443  1.0000
  H   H218      1.0  0.981128542740401  0.5839327058580325  0.705811108726791  1.0000
  H   H219      1.0  0.9919927090414209  0.6553417653591118  0.6172956069121807  1.0000
  H   H220      1.0  0.9933874857974898  0.5885653350370077  0.5828950933179158  1.0000
  C   C331      1.0  0.07473573096953623  0.3838530446428361  0.6671318342897928  1.0000
  C   C332      1.0  0.07055290950197612  0.4213699898617321  0.6499259348293882  1.0000
  C   C333      1.0  0.08799627774655105  0.44861677353164525  0.6431951185890897  1.0000
  C   C334      1.0  0.10954441020763661  0.4386221094100817  0.6539521810386106  1.0000
  C   C335      1.0  0.11371685330979794  0.4009348436732295  0.6708953356241077  1.0000
  C   C336      1.0  0.09632192585709576  0.37358002439918225  0.6774693709149227  1.0000
  H   H221      1.0  0.05396431443498595  0.42887194198023154  0.6412600753329826  1.0000
  H   H222      1.0  0.0849373703249865  0.4767077701648033  0.6287713748293956  1.0000
  H   H223      1.0  0.08751486828064481  0.3895665565876675  0.23149038836442926  1.0000
  H   H224      1.0  0.09963976782096196  0.3444120074092615  0.6905364463401522  1.0000
  C   C337      1.0  0.8838926870417901  0.34505700593085975  0.9154319586870939  1.0000
  C   C338      1.0  0.8941764509709142  0.3303914303256668  0.8861485742283172  1.0000
  C   C339      1.0  0.8842721083931683  0.33722792765513016  0.8544433279652083  1.0000
  C   C340      1.0  0.8641718435346686  0.3592195178215421  0.8518262285548586  1.0000
  C   C341      1.0  0.8540443710837206  0.3744584069910852  0.8810925329912911  1.0000
  C   C342      1.0  0.8638275738083404  0.3671667812585759  0.9128899615073345  1.0000
  H   H225      1.0  0.9097827777752441  0.3137653161171676  0.8878282208926362  1.0000
  H   H226      1.0  0.8922240946117053  0.3253205292630381  0.8319966628451841  1.0000
  H   H227      1.0  0.8388318944910199  0.3922111871594844  0.879300275681316  1.0000
  H   H228      1.0  0.8559416604792445  0.37890276687742447  0.9354700425967842  1.0000
  C   C343      1.0  0.9533660849964681  0.120713759013817  0.9434496388000376  1.0000
  C   C344      1.0  0.9421873740588563  0.0819796819781231  0.9436513334667304  1.0000
  C   C345      1.0  0.9431625983492666  0.05354315845283497  0.915797774831178  1.0000
  C   C346      1.0  0.9553249071886173  0.06392247748939561  0.8877967821984061  1.0000
  C   C347      1.0  0.9669241708691162  0.10211610161827767  0.8880414594357845  1.0000
  C   C348      1.0  0.965739708330376  0.13071482002212473  0.9156196966227368  1.0000
  H   H229      1.0  0.9324726711098238  0.07424308450990735  0.9650602642294707  1.0000
  H   H230      1.0  0.9340945721853808  0.024087612562423644  0.9156511675819605  1.0000
  H   H231      1.0  0.9770043849805499  0.10945969754284302  0.8669671820328725  1.0000
  H   H232      1.0  0.9747546476069042  0.1601619237158102  0.9155518781501717  1.0000
  C   C349      1.0  0.9647440193510622  0.3053566092117709  0.8167353121750287  1.0000
  C   C350      1.0  0.9658052615385432  0.3463738337011921  0.8311366150360061  1.0000
  C   C351      1.0  0.9654054926436093  0.38181005628184117  0.8105076781091686  1.0000
  C   C352      1.0  0.9640927124439503  0.3762898286140165  0.7754229454987505  1.0000
  C   C353      1.0  0.9624211388565092  0.33532935356710153  0.7610416220062154  1.0000
  C   C354      1.0  0.9629210390349368  0.2998964100072681  0.7816535399013339  1.0000
  H   H233      1.0  0.9676282260668613  0.35090766847733673  0.8580614605613077  1.0000
  H   H234      1.0  0.9666135110764835  0.41348080840813567  0.8217616112235698  1.0000
  H   H235      1.0  0.9605312160948907  0.33083429613471027  0.7340758455887633  1.0000
  H   H236      1.0  0.9620124990227675  0.2682243487429184  0.7703620256144136  1.0000
  C   C355      1.0  0.9989524654601981  0.36401778185531036  0.0328983182418614  1.0000
  C   C356      1.0  0.006287353401666751  0.4028522706935585  0.04694414524455026  1.0000
  C   C357      1.0  0.003512955383195626  0.4125619799684826  0.08127956591433905  1.0000
  C   C358      1.0  0.9937954666590324  0.3831134988835692  0.10186584299407886  1.0000
  C   C359      1.0  0.9866365240397695  0.3440858669128772  0.08787196087413807  1.0000
  C   C360      1.0  0.9890922304707183  0.33463287672108155  0.05338551216552645  1.0000
  H   H237      1.0  0.013804986062240454  0.42576240099585794  0.031077846415897614  1.0000
  H   H238      1.0  0.008842816320723701  0.4428765909775986  0.09163799063353961  1.0000
  H   H239      1.0  0.9792251175432428  0.32104376822255026  0.10373013991828905  1.0000
  H   H240      1.0  0.9837715659757462  0.3042609493194991  0.04282588182495095  1.0000
  C   C361      1.0  0.3256295443173125  0.38982289582801344  0.8272297161906308  1.0000
  C   C362      1.0  0.33946271178726906  0.42295615126483155  0.8189305229708802  1.0000
  C   C363      1.0  0.3556960115095383  0.41615365021254497  0.7950077550062226  1.0000
  C   C364      1.0  0.3580373123598949  0.37627985401723507  0.7790351794551584  1.0000
  C   C365      1.0  0.34368781131399284  0.3433788168200796  0.7864335795635738  1.0000
  C   C366      1.0  0.3275317995989426  0.3500618749541342  0.8107759352231062  1.0000
  H   H241      1.0  0.3379707809636283  0.45379056650075666  0.8315352049464573  1.0000
  H   H242      1.0  0.36652485640170546  0.4418555126491095  0.789096404673908  1.0000
  H   H243      1.0  0.3455646977127976  0.31242602505854705  0.7742002823908487  1.0000
  H   H244      1.0  0.3168807150153889  0.3243042853335925  0.8172154349237255  1.0000
  C   C367      1.0  0.2745777425055175  0.14440544389163595  0.8760415578799831  1.0000
  C   C368      1.0  0.28566258594607014  0.11035063732315505  0.891087739657479  1.0000
  C   C369      1.0  0.27379411213884286  0.07904686421854712  0.9070817574932832  1.0000
  C   C370      1.0  0.25080765299533386  0.08180555930457567  0.9081214355549595  1.0000
  C   C371      1.0  0.23970644802099417  0.11584054227550045  0.8930870548222409  1.0000
  C   C372      1.0  0.25158222877777775  0.14707611155204164  0.8769675710441083  1.0000
  H   H245      1.0  0.3034748593864823  0.1085417924626329  0.8908124350805168  1.0000
  H   H246      1.0  0.2824716528422084  0.05305627320482387  0.9189131523282542  1.0000
  H   H247      1.0  0.2219107908242632  0.11794677639538409  0.8937304635492274  1.0000
  H   H248      1.0  0.24292145726595157  0.17299293983226438  0.8649357933294757  1.0000
  C   C373      1.0  0.2027757212677743  0.3242918183108547  0.8092478672435448  1.0000
  C   C374      1.0  0.18889695068207157  0.3503885122507897  0.7899237489484204  1.0000
  C   C375      1.0  0.1871274666566465  0.3439309655053207  0.754828854613286  1.0000
  C   C376      1.0  0.19880219611950603  0.310663272176638  0.7391951527060473  1.0000
  C   C377      1.0  0.21204680757467337  0.2836614472149425  0.7586950400913823  1.0000
  C   C378      1.0  0.21425537903878766  0.29078775847004507  0.793642393968086  1.0000
  H   H249      1.0  0.17987672965966292  0.3761382630112169  0.8020166738873536  1.0000
  H   H250      1.0  0.17654044664976115  0.36431832587869684  0.7399385505514486  1.0000
  H   H251      1.0  0.22097618546259828  0.25773925852922736  0.7466588823738208  1.0000
  H   H252      1.0  0.22464905556154605  0.27004092299263943  0.8085427203858574  1.0000
  C   C379      1.0  0.24641775176675804  0.30894221656329585  0.010536191336710576  1.0000
  C   C380      1.0  0.2453761932889439  0.3044697814122037  0.04541194700284312  1.0000
  C   C381      1.0  0.22540711077476513  0.31108430929736836  0.061694712815802744  1.0000
  C   C382      1.0  0.20651182581299918  0.3228640905124002  0.04324031192167421  1.0000
  C   C383      1.0  0.207448824732783  0.32670576418054026  0.008242297869977877  1.0000
  C   C384      1.0  0.22742303405122455  0.31981675032361306  0.991859671816094  1.0000
  H   H253      1.0  0.2599936530955981  0.2955743403864418  0.059862837587757234  1.0000
  H   H254      1.0  0.22461011899669014  0.30655611261266247  0.08848189363365311  1.0000
  H   H255      1.0  0.1927890980185907  0.3354890066152928  0.9938399537618918  1.0000
  H   H256      1.0  0.2280912386212471  0.3228898149594159  0.964813736752619  1.0000
  N   N1        1.0  0.3322692997572135  0.8546894752810597  0.27784154289189944  1.0000
  C   C385      1.0  0.3205508061201238  0.8929773557931184  0.2657731879866574  1.0000
  C   C386      1.0  0.3252135519757913  0.8171474835772707  0.25717073431698156  1.0000
  C   C387      1.0  0.3270641244063285  0.8483440519156062  0.313508254780134  1.0000
  C   C388      1.0  0.3562840789699781  0.8603433712769493  0.2749575043038963  1.0000
  H   H257      1.0  0.3252359007419471  0.9218099004821901  0.28116699959908864  1.0000
  H   H258      1.0  0.30237390397119035  0.8896903030853407  0.2674925695692172  1.0000
  H   H259      1.0  0.3241057149525974  0.8989564990459169  0.23898478205486473  1.0000
  H   H260      1.0  0.3293742076602451  0.8203311310889496  0.23023449442831412  1.0000
  H   H261      1.0  0.3331490612780246  0.7874371894424639  0.2663313704621766  1.0000
  H   H262      1.0  0.3070884049237526  0.8127536995004474  0.2578333763728846  1.0000
  H   H263      1.0  0.3357154315047344  0.8199377993060009  0.32373125052172025  1.0000
  H   H264      1.0  0.30911586145233116  0.8438723802030484  0.31667722299870804  1.0000
  H   H265      1.0  0.3319336029750809  0.8763230851251674  0.32969499373734856  1.0000
  H   H266      1.0  0.36090295941459355  0.8647666572978383  0.2483772741629926  1.0000
  H   H267      1.0  0.36563837608418975  0.8322431684445828  0.2843317363200395  1.0000
  H   H268      1.0  0.3621552877762468  0.8886533225774174  0.28997867990064075  1.0000
  N   N2        1.0  0.9327051414072242  0.7615717292837918  0.4738343602593694  1.0000
  C   C389      1.0  0.943283982968698  0.7545290024706023  0.5072404623645297  1.0000
  C   C390      1.0  0.9497186996383613  0.7609787338280641  0.4478585467837818  1.0000
  C   C391      1.0  0.9212500221367734  0.8032251428446959  0.4743280427892819  1.0000
  C   C392      1.0  0.9165547447126168  0.727645671045861  0.465800584279982  1.0000
  H   H269      1.0  0.9526471216020532  0.7239553874423977  0.5076592331584396  1.0000
  H   H270      1.0  0.9309722058038482  0.7542117888140913  0.5274830497469316  1.0000
  H   H271      1.0  0.9552023777565292  0.7801852095243654  0.5142238184145679  1.0000
  H   H272      1.0  0.9423411608585471  0.7666554398581478  0.4223454690408538  1.0000
  H   H273      1.0  0.962250912997302  0.7860591245070383  0.45321724015657244  1.0000
  H   H274      1.0  0.9586929514345386  0.7300039603868751  0.44672638646832513  1.0000
  H   H275      1.0  0.9128964325928053  0.8095535520314808  0.4496134888013171  1.0000
  H   H276      1.0  0.9329957199881019  0.8295882893911463  0.47979391351521944  1.0000
  H   H277      1.0  0.9085857855093602  0.805248904606528  0.49404303891549456  1.0000
  H   H278      1.0  0.9082880309403322  0.7323587389558643  0.44071391995817116  1.0000
  H   H279      1.0  0.9034477691618289  0.7271827110371597  0.4848558139458572  1.0000
  H   H280      1.0  0.9246227048760861  0.6957345611052594  0.4650794075927492  1.0000
  N   N3        1.0  0.027829297012381904  0.7794730326952659  0.01992006420974457  1.0000
  C   C393      1.0  0.005353992414065978  0.7876386557172367  0.032182252668892186  1.0000
  C   C394      1.0  0.028773363565626875  0.791408452409771  0.9842226055663069  1.0000
  C   C395      1.0  0.03330999990052064  0.7338445276116634  0.022970826463835303  1.0000
  C   C396      1.0  0.04388025769534076  0.8050052484792718  0.04036379947880486  1.0000
  H   H281      1.0  0.003864337847821364  0.778239800730566  0.05880065479305307  1.0000
  H   H282      1.0  0.9927498371193091  0.769659604283451  0.016834461951772628  1.0000
  H   H283      1.0  0.0008521320131078536  0.8219147628632537  0.031013634190861783  1.0000
  H   H284      1.0  0.04548653940706959  0.7857841621138228  0.9740313682404226  1.0000
  H   H285      1.0  0.016807005261325836  0.7729314979852576  0.9680099641051693  1.0000
  H   H286      1.0  0.024711271243954336  0.8256915037715713  0.981172213572202  1.0000
  H   H287      1.0  0.05014401483446962  0.726485681173954  0.013871649554022978  1.0000
  H   H288      1.0  0.02142873919378685  0.7134623717554587  0.008194914343883086  1.0000
  H   H289      1.0  0.032954889094383155  0.7240643691314803  0.049731963692280834  1.0000
  H   H290      1.0  0.06098132160353953  0.8001375887789276  0.03152659194514573  1.0000
  H   H291      1.0  0.043921623243555974  0.7962598022390495  0.06731768432184082  1.0000
  H   H292      1.0  0.040073003590198386  0.8396041300957355  0.039306992511973116  1.0000
  N   N4        1.0  0.0676539774272622  0.3861253463081736  0.11959744404669226  1.0000
  C   C397      1.0  0.09046467965685623  0.3794486367720619  0.1325345974215406  1.0000
  C   C398      1.0  0.05690727073335044  0.3445615800096188  0.11330281566506972  1.0000
  C   C399      1.0  0.06810548820875573  0.4094388286851341  0.08782109744118705  1.0000
  C   C400      1.0  0.0551063597715813  0.41118366284687224  0.14475163445578532  1.0000
  H   H293      1.0  0.0989590986431026  0.4102541030993037  0.1377978085327327  1.0000
  H   H294      1.0  0.10054359707825022  0.36083770722479463  0.11421520102210048  1.0000
  H   H295      1.0  0.09083165246949855  0.36189999478672163  0.15653275621095308  1.0000
  H   H296      1.0  0.05609929487362275  0.32639867693717806  0.13689772142670487  1.0000
  H   H297      1.0  0.03968306845535619  0.34852250881317776  0.10334382568223877  1.0000
  H   H298      1.0  0.06597945512341809  0.324656786307776  0.09454142000488375  1.0000
  H   H299      1.0  0.05116542458927098  0.4150891182077634  0.0773803566445721  1.0000
  H   H300      1.0  0.07742521772948141  0.39143202146231576  0.06820585717073224  1.0000
  H   H301      1.0  0.07606111794730674  0.44103238799580075  0.09177416457196652  1.0000
  H   H302      1.0  0.03761541750908037  0.4154078075057294  0.13641733783898102  1.0000
  H   H303      1.0  0.062199681480034526  0.4434498429063404  0.14913083891613033  1.0000
  H   H304      1.0  0.05508399387701957  0.39536723385846023  0.1694835709551028  1.0000
  N   N5        1.0  0.7505872752921727  0.15326118229548596  0.5587585387773039  1.0000
  C   C401      1.0  0.7742530123101241  0.14349131954321315  0.5547513880890241  1.0000
  C   C402      1.0  0.7480512566033548  0.18572723816491118  0.5860795438488792  1.0000
  C   C403      1.0  0.7388855283672946  0.11414901250876851  0.5672951016376695  1.0000
  C   C404      1.0  0.7411554812349465  0.16973391417138917  0.5269243506645821  1.0000
  H   H305      1.0  0.7768210094898721  0.11894544732170352  0.5344314474207621  1.0000
  H   H306      1.0  0.781819291155386  0.13115074370498586  0.578452376042919  1.0000
  H   H307      1.0  0.783567710780794  0.17234293331097966  0.5482314900157514  1.0000
  H   H308      1.0  0.7571103545878385  0.21537881610154075  0.5808800975165087  1.0000
  H   H309      1.0  0.7304774453772064  0.19482633150467316  0.5891489258108398  1.0000
  H   H310      1.0  0.7543578846567989  0.17406939858453427  0.6107660860046251  1.0000
  H   H311      1.0  0.7209582364148758  0.12034054847361715  0.5705022999891967  1.0000
  H   H312      1.0  0.7454645854199393  0.10084296187565515  0.59129524420553  1.0000
  H   H313      1.0  0.7404732843598066  0.08886143205500896  0.5472944435343293  1.0000
  H   H314      1.0  0.7231521588776234  0.17625034442563225  0.5289139013023806  1.0000
  H   H315      1.0  0.7432852649353393  0.1465531785502813  0.5055206761085093  1.0000
  H   H316      1.0  0.7490958408750422  0.20004788618139407  0.5202473566857012  1.0000
  N   N6        1.0  0.9844397140808682  0.7198320128661576  0.22259330126404492  1.0000
  C   C405      1.0  0.975826009990765  0.6836821375612439  0.20173408671569362  1.0000
  C   C406      1.0  0.0003408076568438556  0.7437856807859963  0.20311733943735116  1.0000
  C   C407      1.0  0.9956010194208812  0.7036167671992591  0.25325718425884575  1.0000
  C   C408      1.0  0.9660532143311664  0.7483721374030473  0.2323131125093187  1.0000
  H   H317      1.0  0.9674250815536215  0.6945867484931864  0.17821048335384349  1.0000
  H   H318      1.0  0.9637516974959865  0.6648273902179922  0.21556422589209542  1.0000
  H   H319      1.0  0.9893030792510619  0.6614967280517223  0.194060226481996  1.0000
  H   H320      1.0  0.007033504597365514  0.7713787192455539  0.21820652514205843  1.0000
  H   H321      1.0  0.014463612499043155  0.7234265395139741  0.19510470529680096  1.0000
  H   H322      1.0  0.9924043981695582  0.7569087863117316  0.17997005053984702  1.0000
  H   H323      1.0  0.0023446568291507486  0.7300981683764782  0.2695727897086956  1.0000
  H   H324      1.0  0.00956313858706781  0.681939894830954  0.24677381332466508  1.0000
  H   H325      1.0  0.9840586602766876  0.6853809868049323  0.26858860392015665  1.0000
  H   H326      1.0  0.972039133379459  0.7757020961166008  0.24842340156187603  1.0000
  H   H327      1.0  0.9534719936853082  0.7314369667439433  0.24661467150701907  1.0000
  H   H328      1.0  0.9576693762544877  0.7621907060323578  0.20977355135738596  1.0000
  N   N7        1.0  0.6845575194575667  0.37121928862057624  0.17251916868402623  1.0000
  C   C409      1.0  0.6899857822727009  0.40123593873596497  0.1460427363593201  1.0000
  C   C410      1.0  0.6605393897754783  0.37218502087271116  0.17778102326385603  1.0000
  C   C411      1.0  0.6962950055814454  0.3836637004438636  0.20435581738104028  1.0000
  C   C412      1.0  0.6914207493157165  0.32777923422737704  0.16188831274024412  1.0000
  H   H329      1.0  0.7079453937711717  0.4008253426384  0.14106204411119222  1.0000
  H   H330      1.0  0.685354222177121  0.4344547824479703  0.153279359496357  1.0000
  H   H331      1.0  0.6812171162102512  0.39302033260408287  0.12177177682560618  1.0000
  H   H332      1.0  0.6558963015136885  0.3498826339178989  0.1975978274274364  1.0000
  H   H333      1.0  0.6547695939857702  0.40458135090672326  0.18552963614335832  1.0000
  H   H334      1.0  0.6511670871447879  0.36282725122946996  0.15426301474527485  1.0000
  H   H335      1.0  0.6932412229742048  0.36097097886751894  0.22468723272406393  1.0000
  H   H336      1.0  0.6913241779584156  0.4159978824541753  0.21349474828985962  1.0000
  H   H337      1.0  0.7143759689150763  0.38415063054942633  0.20105378911051752  1.0000
  H   H338      1.0  0.6827021164962292  0.3172256013275419  0.13807810496907255  1.0000
  H   H339      1.0  0.6879191866677465  0.30427481364223335  0.18140960327893854  1.0000
  H   H340      1.0  0.7094187363215877  0.32606605889902307  0.15730256748768823  1.0000
  N   N8        1.0  0.05919822289295218  0.5770795138417869  0.6612829549005435  1.0000
  C   C413      1.0  0.05014362246640314  0.6119096049132264  0.6826814344008165  1.0000
  C   C414      1.0  0.046747462911664206  0.5377344284627951  0.6664281141351104  1.0000
  C   C415      1.0  0.0827133278372687  0.5702859015998166  0.6705108169298556  1.0000
  C   C416      1.0  0.05711521405969111  0.588560400603082  0.6254770117020185  1.0000
  H   H341      1.0  0.05926010170673357  0.6420399792557981  0.6796879596928088  1.0000
  H   H342      1.0  0.05105308112722273  0.6041514525395681  0.7098421710358995  1.0000
  H   H343      1.0  0.032547810818485345  0.6184298920133945  0.6759929856832558  1.0000
  H   H344      1.0  0.05250552614541015  0.5111373982643754  0.6498039218010279  1.0000
  H   H345      1.0  0.04833501305648169  0.5273265922795333  0.6929369347887213  1.0000
  H   H346      1.0  0.028909423167521542  0.5422820531341395  0.660438701326291  1.0000
  H   H347      1.0  0.09025397297261128  0.5446691804446722  0.6545878481836768  1.0000
  H   H348      1.0  0.08488030750788655  0.560969953237832  0.6972355896818876  1.0000
  H   H349      1.0  0.09242681154378762  0.5997007310928982  0.6672960824278061  1.0000
  H   H350      1.0  0.039545915364683104  0.593966282201322  0.6177238919919452  1.0000
  H   H351      1.0  0.06371133797441142  0.5629420827854592  0.6085576129943157  1.0000
  H   H352      1.0  0.06628327474514295  0.6182282867549737  0.6206916403787068  1.0000
  N   N9        1.0  0.3929713731406712  0.8782830200048841  0.954335310684286  1.0000
  C   C417      1.0  0.37705041422928737  0.852352681464336  0.9339788828107255  1.0000
  C   C418      1.0  0.4114994951007898  0.8510406140139957  0.9657833190192259  1.0000
  C   C419      1.0  0.3818461389393007  0.8972697410410618  0.9839104574120188  1.0000
  C   C420      1.0  0.4014623665466245  0.9125992361429295  0.9337092885049991  1.0000
  H   H353      1.0  0.36230831403174324  0.871426621567143  0.9265441650091538  1.0000
  H   H354      1.0  0.3711333439456687  0.8249043306907137  0.9481720634017633  1.0000
  H   H355      1.0  0.38444925377849426  0.8395229871268762  0.910363136999447  1.0000
  H   H356      1.0  0.4057807742380407  0.8246215737791565  0.9813045821821902  1.0000
  H   H357      1.0  0.42033195409154267  0.8365582215020005  0.9440177189560712  1.0000
  H   H358      1.0  0.4237717807100467  0.8695328382491273  0.9814134537759821  1.0000
  H   H359      1.0  0.3934072637607593  0.9170662997897789  0.9998270010612298  1.0000
  H   H360      1.0  0.3751369112108308  0.8723561944717495  3.231547112858557e-05  1.0000
  H   H361      1.0  0.3677910874701674  0.9181670385121669  0.976013684934953  1.0000
  H   H362      1.0  0.4141549216457692  0.9317439885819639  0.9478792703545373  1.0000
  H   H363      1.0  0.3880412720197887  0.9348518148061643  0.9259441801906243  1.0000
  H   H364      1.0  0.40923873998339627  0.899713317142796  0.9103738760065203  1.0000
  N   N10       1.0  0.8176852185276408  0.9008585285359686  0.44268911585962134  1.0000
  C   C421      1.0  0.7997482565054252  0.8924890272820786  0.41750844375740576  1.0000
  C   C422      1.0  0.8310321461012989  0.8617505387982225  0.44691639309539744  1.0000
  C   C423      1.0  0.8080633588763897  0.9139643331546656  0.4752376988048273  1.0000
  C   C424      1.0  0.8318742935959107  0.9351543640797929  0.43103151220614405  1.0000
  H   H365      1.0  0.8062865834717476  0.8801359013469032  0.3932745602322723  1.0000
  H   H366      1.0  0.7901797078167989  0.9218452574118482  0.4118792264603147  1.0000
  H   H367      1.0  0.7880162429857732  0.868427890509314  0.42630816168770874  1.0000
  H   H368      1.0  0.8207921421310389  0.8350126205919178  0.4552283401559864  1.0000
  H   H369      1.0  0.8386621865461813  0.8513129943015489  0.42278643443530306  1.0000
  H   H370      1.0  0.8447043381446178  0.8667632814424959  0.46582715024463905  1.0000
  H   H371      1.0  0.7971372368287903  0.8889472416164395  0.4847615746047922  1.0000
  H   H372      1.0  0.7977637517491387  0.9432506558349565  0.472838910846434  1.0000
  H   H373      1.0  0.8210471425811465  0.9206072355974076  0.4949615274745134  1.0000
  H   H374      1.0  0.8457491178704174  0.9420436955015106  0.4492550045488284  1.0000
  H   H375      1.0  0.8224050036270878  0.9652153132792934  0.42750318277545385  1.0000
  H   H376      1.0  0.8392812290295124  0.9263867278762574  0.4064558583759897  1.0000
  N   N11       1.0  0.4204063221796348  0.8130092693185418  0.4544606788991137  1.0000
  C   C425      1.0  0.409919152615258  0.7759816553540452  0.4369719236252908  1.0000
  C   C426      1.0  0.41053868679109545  0.8198778025315353  0.48784914655492134  1.0000
  C   C427      1.0  0.41674271760368964  0.8513356197780921  0.43430859940957217  1.0000
  C   C428      1.0  0.44434288072300915  0.8050065291765846  0.4588477844626023  1.0000
  H   H377      1.0  0.41285687622898726  0.7462439348371518  0.45094904207870173  1.0000
  H   H378      1.0  0.41635308153676714  0.7706299128223536  0.41117160605691144  1.0000
  H   H379      1.0  0.3917317695583863  0.7804594712572367  0.4343058051224283  1.0000
  H   H380      1.0  0.41803017733456554  0.8477158352704453  0.5017106540644108  1.0000
  H   H381      1.0  0.3924458138391348  0.8260105103459667  0.4853441834346893  1.0000
  H   H382      1.0  0.4129628539949599  0.7916304718911052  0.5038108533739775  1.0000
  H   H383      1.0  0.39885007402939515  0.8585579597986791  0.4309290706669791  1.0000
  H   H384      1.0  0.4236650695400159  0.8472780552548668  0.40870422621303265  1.0000
  H   H385      1.0  0.42462310328138647  0.879749536274939  0.44670520933280894  1.0000
  H   H386      1.0  0.4526183997248721  0.8318206265518656  0.4728889925801331  1.0000
  H   H387      1.0  0.45247918009878396  0.8011041658301284  0.4341200596010765  1.0000
  H   H388      1.0  0.44776251512863174  0.7757029802935952  0.47316271922313874  1.0000
  N   N12       1.0  0.6087540689466601  0.362402994946151  0.5014132528557641  1.0000
  C   C429      1.0  0.6151475836874946  0.3579500661829373  0.4658016744310805  1.0000
  C   C430      1.0  0.6246001265532007  0.39035253512633655  0.5201110316617642  1.0000
  C   C431      1.0  0.6088993262641885  0.32006121001846133  0.5166019771152964  1.0000
  C   C432      1.0  0.5863737185832334  0.38112101571496426  0.503133623612703  1.0000
  H   H389      1.0  0.6320732230731076  0.3441747441096635  0.4636776512735397  1.0000
  H   H390      1.0  0.6151110582944037  0.3892630169338532  0.4534802885851826  1.0000
  H   H391      1.0  0.6036159833894166  0.33677016140167737  0.4510358844134021  1.0000
  H   H392      1.0  0.6249469543183033  0.42257039676730035  0.5093542494859793  1.0000
  H   H393      1.0  0.6202862463567  0.39451295380244017  0.5470886979444238  1.0000
  H   H394      1.0  0.6416511981852697  0.37704257823118525  0.5194703806877986  1.0000
  H   H395      1.0  0.6052287852399123  0.3224578805976154  0.5439447258567163  1.0000
  H   H396      1.0  0.6252618895278569  0.30414788634006845  0.514191122480964  1.0000
  H   H397      1.0  0.5963512912154526  0.2987924122966111  0.5041692770336988  1.0000
  H   H398      1.0  0.5739325319830471  0.3606589758587427  0.48953231725991947  1.0000
  H   H399      1.0  0.5855512325132682  0.41313349770189434  0.4919577137171654  1.0000
  H   H400      1.0  0.5811676307986121  0.3850745108141965  0.5296961493336426  1.0000
  N   N13       1.0  0.5313190869840414  0.9361944440969477  0.9280858760267932  1.0000
  C   C433      1.0  0.5395201112504018  0.9677919285318125  0.9047175386087948  1.0000
  C   C434      1.0  0.5180806005560267  0.9581296655458301  0.9540636793777957  1.0000
  C   C435      1.0  0.5501714937505957  0.9142559217327849  0.9445547204006252  1.0000
  C   C436      1.0  0.517451586885476  0.9047609024420425  0.9092216414013261  1.0000
  H   H401      1.0  0.5496623722506346  0.9524423145413815  0.8847849199489425  1.0000
  H   H402      1.0  0.5499159965548931  0.9921028607883423  0.9183953611854507  1.0000
  H   H403      1.0  0.5256255483546388  0.9849504666122503  0.8920056955912529  1.0000
  H   H404      1.0  0.5034932888261668  0.9746076020904633  0.9427419986769178  1.0000
  H   H405      1.0  0.5119566700147233  0.9352876655407023  0.9724832115884342  1.0000
  H   H406      1.0  0.5279121188819325  0.9825496148611383  0.9685297696337675  1.0000
  H   H407      1.0  0.5445323053508554  0.8912549426404442  0.9632665820695614  1.0000
  H   H408      1.0  0.5611657441626762  0.9373328431313425  0.9583687272574309  1.0000
  H   H409      1.0  0.5603239438898237  0.8964600283876816  0.9258975503399255  1.0000
  H   H410      1.0  0.5106118980002338  0.8810368604753407  0.9263409639514231  1.0000
  H   H411      1.0  0.5268985804428806  0.8870160254155194  0.8896705888468904  1.0000
  H   H412      1.0  0.5031964293324713  0.9203803307201507  0.8961560230768941  1.0000
  N   N14       1.0  0.10751980666230065  0.8619983228607683  0.6997814270236574  1.0000
  C   C437      1.0  0.1300467249342942  0.8437500792510872  0.7012269015664244  1.0000
  C   C438      1.0  0.09588979566282885  0.8518729272453615  0.7307670476055841  1.0000
  C   C439      1.0  0.09534000277462674  0.8437006317277944  0.6701749917417414  1.0000
  C   C440      1.0  0.10868204019666416  0.9086287209592294  0.6968085450662848  1.0000
  H   H413      1.0  0.12970084354985345  0.8084923729236478  0.7028862219623842  1.0000
  H   H414      1.0  0.13974479080897734  0.8564481934346345  0.7234174620471064  1.0000
  H   H415      1.0  0.13932100137752873  0.8510927040996528  0.678270203162747  1.0000
  H   H416      1.0  0.07897563948683174  0.8659089181548333  0.7306173381797814  1.0000
  H   H417      1.0  0.09412533164343406  0.8169215528733887  0.7332832723704059  1.0000
  H   H418      1.0  0.10475720088209031  0.864527878857957  0.753764567371113  1.0000
  H   H419      1.0  0.07838956315175483  0.8573477736516216  0.6679145869276661  1.0000
  H   H420      1.0  0.0937311058382493  0.808623177846343  0.6719042387525066  1.0000
  H   H421      1.0  0.10377393051292771  0.8500137765138217  0.6462905057869215  1.0000
  H   H422      1.0  0.09186748599804484  0.9231966003750517  0.695510214997701  1.0000
  H   H423      1.0  0.11728319567108567  0.9172982391315179  0.6735679632296535  1.0000
  H   H424      1.0  0.11772220361481829  0.9236171228535514  0.7187744783261548  1.0000
  N   N15       1.0  0.45627201288728786  0.3792971900028244  0.4657377070371039  1.0000
  C   C441      1.0  0.4644892704993235  0.3396742639092848  0.4809697439350102  1.0000
  C   C442      1.0  0.4325064129958646  0.3846240170329571  0.4721499438998662  1.0000
  C   C443      1.0  0.45963112249168225  0.37706991587547334  0.428990277852293  1.0000
  C   C444      1.0  0.46849103143350684  0.4158651708847941  0.4808432238553908  1.0000
  H   H425      1.0  0.4824176924830537  0.3347736226430569  0.47670483204078723  1.0000
  H   H426      1.0  0.45573582408718444  0.31136734760248175  0.4700134031701231  1.0000
  H   H427      1.0  0.4621305234656312  0.3403376043166662  0.5087368370213904  1.0000
  H   H428      1.0  0.425709829097548  0.41394500326087197  0.460518725286752  1.0000
  H   H429      1.0  0.422792509357245  0.35749041871259646  0.4611291814241824  1.0000
  H   H430      1.0  0.4293830404434207  0.3868366315296775  0.49968907140092705  1.0000
  H   H431      1.0  0.45420407826618864  0.4069875355154847  0.41683344405664646  1.0000
  H   H432      1.0  0.4500470893951299  0.3506950018972588  0.4165357297246245  1.0000
  H   H433      1.0  0.47728327312702107  0.37189769547863855  0.4231835842267807  1.0000
  H   H434      1.0  0.4864235553624451  0.4131725557468742  0.47584430828600827  1.0000
  H   H435      1.0  0.4666482403361191  0.41802107568802727  0.5087270207303841  1.0000
  H   H436      1.0  0.46244672981456914  0.4463786527053359  0.4703561413368192  1.0000
  N   N16       1.0  0.15383751418139682  0.9253169894301329  0.16692960637936105  1.0000
  C   C445      1.0  0.1452932017931176  0.8815053117265803  0.16615762385052624  1.0000
  C   C446      1.0  0.14178042332049154  0.9513118300148888  0.19211981044669502  1.0000
  C   C447      1.0  0.15059321771821546  0.9436035641230888  0.13325358506433393  1.0000
  C   C448      1.0  0.17759681617232245  0.9246586348476545  0.17624638084452204  1.0000
  H   H437      1.0  0.1272052882385543  0.8809404247077659  0.1606604495511621  1.0000
  H   H438      1.0  0.14845680407266873  0.8661134597793285  0.1906732494304091  1.0000
  H   H439      1.0  0.1532438775038451  0.8612800623290607  0.1465005468998659  1.0000
  H   H440      1.0  0.14375528502467522  0.9381187826245607  0.21775740307493763  1.0000
  H   H441      1.0  0.14769187912106657  0.9846795332072238  0.19348826219482795  1.0000
  H   H442      1.0  0.12374457719057887  0.952181528150077  0.1859972061759423  1.0000
  H   H443      1.0  0.15954041702029625  0.924654351632735  0.11370214511269161  1.0000
  H   H444      1.0  0.15678151592390344  0.9767460053642787  0.13286084822491828  1.0000
  H   H445      1.0  0.13283234564432184  0.9440873656088629  0.12541813512673383  1.0000
  H   H446      1.0  0.18716673465040082  0.9052300233080255  0.1577623383295379  1.0000
  H   H447      1.0  0.18060982040418513  0.9106472119506501  0.20142254315535268  1.0000
  H   H448      1.0  0.1846389979654729  0.9571983336532899  0.1770918245872657  1.0000
  N   N17       1.0  0.1659975222771685  0.608418688090199  0.6295783687964274  1.0000
  C   C449      1.0  0.19008014827418895  0.6027504788996538  0.6266706054362006  1.0000
  C   C450      1.0  0.15474951671414938  0.5695345631762093  0.6166956743623607  1.0000
  C   C451      1.0  0.15855159507327118  0.6451514758503453  0.6097178541128122  1.0000
  C   C452      1.0  0.16064664793422628  0.6161379235656236  0.6653532183484235  1.0000
  H   H449      1.0  0.1991537840246228  0.6309279070484889  0.6372263136415783  1.0000
  H   H450      1.0  0.19484066316164447  0.597935744570335  0.599955922051355  1.0000
  H   H451      1.0  0.196138382649297  0.5746654611397882  0.6407161601876948  1.0000
  H   H452      1.0  0.13654477451091837  0.5722190548970013  0.6189211146032402  1.0000
  H   H453      1.0  0.15832175297330853  0.5625579065462833  0.5897398813709935  1.0000
  H   H454      1.0  0.16016478315022742  0.5412852033576305  0.6311267252466523  1.0000
  H   H455      1.0  0.140478827813003  0.6508013887672016  0.6117929945042626  1.0000
  H   H456      1.0  0.16209293531633318  0.6403032029287586  0.5825128540317799  1.0000
  H   H457      1.0  0.1669863244234369  0.6748750513823699  0.6186180411436593  1.0000
  H   H458      1.0  0.14263230724647552  0.6211555279189465  0.6684646752034811  1.0000
  H   H459      1.0  0.1692063806417565  0.6448384479653888  0.6761202363924471  1.0000
  H   H460      1.0  0.1657994268154881  0.5888111865805502  0.6810031452020718  1.0000
  N   N18       1.0  0.8963639599774604  0.40792060031424443  0.7405922524040051  1.0000
  C   C453      1.0  0.872293019244253  0.4034642871970566  0.7350439152858281  1.0000
  C   C454      1.0  0.9024258962246958  0.39595065956964676  0.7753947883146861  1.0000
  C   C455      1.0  0.9027196577657021  0.4525078714718124  0.7356507285116346  1.0000
  C   C456      1.0  0.9080228542140021  0.379756662619927  0.7163600852729696  1.0000
  H   H461      1.0  0.8669370547537514  0.37024737467876007  0.739026587834225  1.0000
  H   H462      1.0  0.867035719102527  0.41205680227860403  0.7090264399173779  1.0000
  H   H463      1.0  0.862988733086749  0.42417390597198107  0.7530365927993503  1.0000
  H   H464      1.0  0.9203289367999379  0.4002601564515633  0.7809269738406007  1.0000
  H   H465      1.0  0.8933449278645915  0.4155527509691582  0.7943651577411103  1.0000
  H   H466      1.0  0.8984409531185464  0.3621506738592034  0.7797392591031284  1.0000
  H   H467      1.0  0.920819089865752  0.45687542246238366  0.7396850421239767  1.0000
  H   H468      1.0  0.8943032835751674  0.47459012535020473  0.7536511613259358  1.0000
  H   H469      1.0  0.8984675013705614  0.4626494010336101  0.7096259329642337  1.0000
  H   H470      1.0  0.92621782278996  0.38248480702022347  0.719776487393882  1.0000
  H   H471      1.0  0.9038586352693294  0.38785596385221877  0.6898062541601144  1.0000
  H   H472      1.0  0.9037772020031642  0.3458044458926967  0.7195408010023718  1.0000
  N   N19       1.0  0.9243353397912827  0.15936976533547104  0.8211477833756552  1.0000
  C   C457      1.0  0.9168674560120659  0.13782172638445445  0.8513767183764541  1.0000
  C   C458      1.0  0.9174627189732142  0.20456336451494264  0.8228706521254155  1.0000
  C   C459      1.0  0.9144936681937245  0.1384472440457911  0.7905736548237531  1.0000
  C   C460      1.0  0.9486083808650709  0.15649414943469891  0.8197658761630561  1.0000
  H   H473      1.0  0.9245871434426672  0.15188331008128952  0.8748930838355835  1.0000
  H   H474      1.0  0.9213465753089465  0.10340781706943931  0.8504542097586097  1.0000
  H   H475      1.0  0.8986910421694227  0.14022805292179585  0.8537992891672984  1.0000
  H   H476      1.0  0.923549968628059  0.22223699322157447  0.8011147054941865  1.0000
  H   H477      1.0  0.8992223398806221  0.20813633881814167  0.8232222151046913  1.0000
  H   H478      1.0  0.924300471774293  0.22087570308472132  0.846047555923695  1.0000
  H   H479      1.0  0.919887011068228  0.15384889869265653  0.7673045529124517  1.0000
  H   H480      1.0  0.8961717497477455  0.13978744241056604  0.790736489589125  1.0000
  H   H481      1.0  0.9194881148865486  0.10427683644605325  0.7886380193731378  1.0000
  H   H482      1.0  0.9549727690178427  0.1736428441204628  0.7979554532199536  1.0000
  H   H483      1.0  0.9543280177492145  0.12279057140703509  0.8175691451442301  1.0000
  H   H484      1.0  0.956593004571964  0.17100918795922287  0.8428757483965135  1.0000
  N   N20       1.0  0.20557470848378326  0.7952929447579852  0.3364688771603025  1.0000
  C   C461      1.0  0.2118004028696792  0.7733888283076417  0.30459511592775107  1.0000
  C   C462      1.0  0.20742251878940748  0.7653137683894611  0.36445140455392744  1.0000
  C   C463      1.0  0.18262697011876058  0.8110422749139061  0.33315321669291537  1.0000
  C   C464      1.0  0.2204416785750013  0.8315500535831672  0.3437069460983339  1.0000
  H   H485      1.0  0.21156549216200018  0.7955799651384864  0.28319371484130623  1.0000
  H   H486      1.0  0.2002186351192653  0.7471740952993708  0.2974496180199362  1.0000
  H   H487      1.0  0.22864606928950715  0.7593629167302275  0.30657197853559004  1.0000
  H   H488      1.0  0.1964505465525306  0.7374635378696395  0.35993514603635735  1.0000
  H   H489      1.0  0.22460616074960107  0.753050186010551  0.3677762335225609  1.0000
  H   H490      1.0  0.20297418040704673  0.7808908756818297  0.38895058776381886  1.0000
  H   H491      1.0  0.17731576456965356  0.8279638423407585  0.35659787097833767  1.0000
  H   H492      1.0  0.17091546185689654  0.7845100322714418  0.3276350962985357  1.0000
  H   H493      1.0  0.18070999788679665  0.8333995255567268  0.3120023428655547  1.0000
  H   H494      1.0  0.23784164067598423  0.8207679097135882  0.3470332238435819  1.0000
  H   H495      1.0  0.21599612207549249  0.8492097051813791  0.3672883496272786  1.0000
  H   H496      1.0  0.2199232634326983  0.8545501631140248  0.32287678982972245  1.0000
  N   N21       1.0  0.9891587902103313  0.40067101515288295  0.5008805971221911  1.0000
  C   C465      1.0  0.9980173018939115  0.43458152477818573  0.523832367262651  1.0000
  C   C466      1.0  0.9674146044849218  0.4141134751617709  0.48705545580903314  1.0000
  C   C467      1.0  0.9867205693521363  0.36130422302335957  0.5198436442556417  1.0000
  C   C468      1.0  0.00444071602792917  0.3927813781297242  0.47294748070971476  1.0000
  H   H497      1.0  0.014264089713806882  0.4254275282142092  0.535250255119715  1.0000
  H   H498      1.0  0.9867215372988006  0.44144936381933925  0.5450123177835492  1.0000
  H   H499      1.0  0.00019292825277106296  0.46482904210108783  0.5105134355890549  1.0000
  H   H500      1.0  0.9599425800056525  0.38901346512118257  0.47019467002142135  1.0000
  H   H501      1.0  0.9555762414623412  0.42091585536782905  0.5074842938800086  1.0000
  H   H502      1.0  0.9686755490768288  0.44329421324718016  0.47208162842921375  1.0000
  H   H503      1.0  0.9758863737893184  0.3665855747546079  0.5417446484186956  1.0000
  H   H504      1.0  0.0028685064501550173  0.3495170389364697  0.5298996115336516  1.0000
  H   H505      1.0  0.9792815416951551  0.33530893038506715  0.5038007052169673  1.0000
  H   H506      1.0  0.006242790235940987  0.42142906541581315  0.45744668569709324  1.0000
  H   H507      1.0  0.9984627459088908  0.3667881763351118  0.45551562215964236  1.0000
  H   H508      1.0  0.021140621191263476  0.3833582459448286  0.4824349866874117  1.0000
  N   N22       1.0  0.5127426984429504  0.18937004816868216  0.1527798933775656  1.0000
  C   C469      1.0  0.5189283371597245  0.2156643394265758  0.12429303057275934  1.0000
  C   C470      1.0  0.48857116518127786  0.1837599920428113  0.152255811274453  1.0000
  C   C471      1.0  0.5197773149186166  0.21074233790801286  0.1849009258447302  1.0000
  C   C472      1.0  0.523669253021564  0.14730337914413255  0.14967615875300605  1.0000
  H   H509      1.0  0.5369500409788631  0.22186563330269163  0.12452328531102207  1.0000
  H   H510      1.0  0.5104317335368636  0.24708918420102452  0.12509808230315575  1.0000
  H   H511      1.0  0.5145166256416143  0.1999195164294756  0.09964972847009337  1.0000
  H   H512      1.0  0.47972551587464163  0.21488254995181735  0.15364344379991604  1.0000
  H   H513      1.0  0.4827356107057299  0.16664780382108585  0.12883946050281392  1.0000
  H   H514      1.0  0.4832888110736173  0.1647750855557647  0.17379195806602515  1.0000
  H   H515      1.0  0.5114201377586343  0.24212965058591424  0.18829263819050637  1.0000
  H   H516      1.0  0.5378425288734975  0.21661812013325657  0.18588378121501287  1.0000
  H   H517      1.0  0.5157285353513645  0.19148764509448374  0.2069505020296903  1.0000
  H   H518      1.0  0.5191370291465397  0.12629630175680434  0.1704347183207726  1.0000
  H   H519      1.0  0.5419271034650689  0.15022027415939931  0.15006375314761183  1.0000
  H   H520      1.0  0.5187406719784902  0.13046499360849914  0.12559848750026803  1.0000
  N   N23       1.0  0.2324110923007928  0.17927492143884866  0.4924241538836909  1.0000
  C   C473      1.0  0.22914301298114778  0.15871997567110407  0.4587056691434323  1.0000
  C   C474      1.0  0.25623849849122626  0.18112770367746345  0.5010195981600543  1.0000
  C   C475      1.0  0.2211935488830113  0.15437982063099412  0.5177975436590885  1.0000
  C   C476      1.0  0.2231035271826165  0.22285411165358848  0.4922303789024367  1.0000
  H   H521      1.0  0.23607674356230385  0.12583313786868192  0.45780960715343194  1.0000
  H   H522      1.0  0.2374916948107379  0.1766136816710209  0.438961832059011  1.0000
  H   H523      1.0  0.21138964423593398  0.1567334124191546  0.45120705429523755  1.0000
  H   H524      1.0  0.2594674713201022  0.19808451317861414  0.5256655269071412  1.0000
  H   H525      1.0  0.26371433173676595  0.14880002591785046  0.502513268560065  1.0000
  H   H526      1.0  0.2653459332919755  0.19842441433113858  0.48176397223678913  1.0000
  H   H527      1.0  0.22775404526413787  0.1212363571541493  0.518437966996315  1.0000
  H   H528      1.0  0.20314087096591962  0.152603060875829  0.5122456855194808  1.0000
  H   H529      1.0  0.22352359426896243  0.16895535522153302  0.5435566296042357  1.0000
  H   H530      1.0  0.2052293586518511  0.22288117789409898  0.48524780275221674  1.0000
  H   H531      1.0  0.2315568448782743  0.24284302679495195  0.47395606597226675  1.0000
  H   H532      1.0  0.22497824992391638  0.2390857908966146  0.5174317301162491  1.0000
  N   N24       1.0  0.2513101910630602  0.8893891830718843  0.5484733252556692  1.0000
  C   C477      1.0  0.23956930115374853  0.8758651197987041  0.5169001943763399  1.0000
  C   C478      1.0  0.26388337047315874  0.8530462115596935  0.5621468500637693  1.0000
  C   C479      1.0  0.2351268972309938  0.9044906172458853  0.5733912052921176  1.0000
  C   C480      1.0  0.2666694764996475  0.9240202349713506  0.5414273618722187  1.0000
  H   H533      1.0  0.23022504608351088  0.9026420161639904  0.5054599112659695  1.0000
  H   H534      1.0  0.22769332609790285  0.8499459807856021  0.5212244219509085  1.0000
  H   H535      1.0  0.2512286958119884  0.8635697529855048  0.49772738970685165  1.0000
  H   H536      1.0  0.27572353502393604  0.8397419580322932  0.5435716415186864  1.0000
  H   H537      1.0  0.27344688798383193  0.862198542851108  0.5855054720758797  1.0000
  H   H538      1.0  0.2527285713509226  0.8269131161507638  0.5687130038873943  1.0000
  H   H539      1.0  0.2433852607581502  0.9143744305771948  0.5977211618622975  1.0000
  H   H540      1.0  0.22319870181607518  0.8790180708093582  0.578982145114215  1.0000
  H   H541      1.0  0.2254379767408331  0.9321219010810282  0.5640133276434629  1.0000
  H   H542      1.0  0.2578998757077612  0.9517073236584233  0.5302511803995636  1.0000
  H   H543      1.0  0.279268500574103  0.9133284287609647  0.5230468250500628  1.0000
  H   H544      1.0  0.27565195947677595  0.9355478139351749  0.5646691935749917  1.0000
  N   N25       1.0  0.24706003008735283  0.17394804550720486  0.9923628442676969  1.0000
  C   C481      1.0  0.22999353076696863  0.20216714417290463  0.9776246129921728  1.0000
  C   C482      1.0  0.2532905201323374  0.18956758849902053  0.026754413836155067  1.0000
  C   C483      1.0  0.26671154004005887  0.17368574824577696  0.9711410569277623  1.0000
  C   C484      1.0  0.23823113890989275  0.1304438514306614  0.9938176179707724  1.0000
  H   H545      1.0  0.22457112452976252  0.19064933528742845  0.9519374605101688  1.0000
  H   H546      1.0  0.23634997694419324  0.23481122019747908  0.9749942889854439  1.0000
  H   H547      1.0  0.21518275780098675  0.20457447939222828  0.9935212076078297  1.0000
  H   H548      1.0  0.2609286638298117  0.22154535562753064  0.026277286825884483  1.0000
  H   H549      1.0  0.2387097278550078  0.19241128626559648  0.043119945394457515  1.0000
  H   H550      1.0  0.26549723118737123  0.16798853998049326  0.03902540021447143  1.0000
  H   H551      1.0  0.2798195612709913  0.15204185716050905  0.9809453930831087  1.0000
  H   H552      1.0  0.2738967155028737  0.20605536383301887  0.9697960821400197  1.0000
  H   H553      1.0  0.2625394730088935  0.16298457077368905  0.944904219829616  1.0000
  H   H554      1.0  0.2240658317459001  0.12915716346912617  0.010956927692437501  1.0000
  H   H555      1.0  0.2509967201530141  0.1074051851401527  0.002673780832889161  1.0000
  H   H556      1.0  0.23221695682572682  0.11878946291542129  0.9685363572076208  1.0000
  N   N26       1.0  0.6046487768753027  0.10289901972090214  0.5844430776738421  1.0000
  C   C485      1.0  0.5916820136962612  0.14083741839212413  0.5747968009011649  1.0000
  C   C486      1.0  0.6209027535882053  0.09283026515008475  0.5582557082335264  1.0000
  C   C487      1.0  0.5897441451121128  0.06638686936026139  0.5875893790970488  1.0000
  C   C488      1.0  0.616304572659912  0.1115959089307784  0.617068379465462  1.0000
  H   H557      1.0  0.5791620182741767  0.1493946483594382  0.5939140441867103  1.0000
  H   H558      1.0  0.5826852898218491  0.13531338867332962  0.5502576389218775  1.0000
  H   H559      1.0  0.6024492037472988  0.16899774476080331  0.5722852372234586  1.0000
  H   H560      1.0  0.6309210927713131  0.06419933689087776  0.5646204197221689  1.0000
  H   H561      1.0  0.6126892572741227  0.08621256413365552  0.533271755581745  1.0000
  H   H562      1.0  0.6325221560727915  0.11965125642517713  0.5553751918222323  1.0000
  H   H563      1.0  0.5989181641970508  0.037516484394928266  0.595799375324874  1.0000
  H   H564      1.0  0.5812399923615897  0.05808840837990003  0.5631027653756584  1.0000
  H   H565      1.0  0.5766949285933445  0.07343674729552441  0.606168797161663  1.0000
  H   H566      1.0  0.6266293833944114  0.08392159476986216  0.6248007729191704  1.0000
  H   H567      1.0  0.6045167831769852  0.11892808183923753  0.6374722697905776  1.0000
  H   H568      1.0  0.6275047762501249  0.13932256060800463  0.6156480755528466  1.0000
  N   N27       1.0  0.4782041879707397  0.061939550305808444  0.4744466114927684  1.0000
  C   C489      1.0  0.4581831511262241  0.03944409153100259  0.4842952634889007  1.0000
  C   C490      1.0  0.4841962079193999  0.09450994821531689  0.5006495224341619  1.0000
  C   C491      1.0  0.4739436643882448  0.08265294098344467  0.44194114322289985  1.0000
  C   C492      1.0  0.49653375313997355  0.031056293642029997  0.47085867298624573  1.0000
  H   H569      1.0  0.443902884357071  0.0615648615919544  0.48703647355678287  1.0000
  H   H570      1.0  0.4608261755684278  0.023460237898556002  0.5087613179463587  1.0000
  H   H571      1.0  0.4534562989946942  0.014064567421246288  0.46537171296501145  1.0000
  H   H572      1.0  0.49938050918434923  0.11182453393105929  0.4941796949555699  1.0000
  H   H573      1.0  0.4707806771401713  0.11842283205036397  0.5041356386622072  1.0000
  H   H574      1.0  0.48766604417429255  0.07997506809055599  0.5255026481141689  1.0000
  H   H575      1.0  0.4887605322255006  0.09988201946566133  0.4338270254851406  1.0000
  H   H576      1.0  0.46017040871811193  0.10616418920047033  0.443705417170245  1.0000
  H   H577      1.0  0.4694274812631035  0.05890425996869819  0.42162553822808874  1.0000
  H   H578      1.0  0.49261809127750855  0.005711130303516443  0.45149570565732006  1.0000
  H   H579      1.0  0.5000162309534543  0.01484242876634645  0.4948788510859527  1.0000
  H   H580      1.0  0.512074786880375  0.04680689326282472  0.46396238301582465  1.0000
  N   N28       1.0  0.7612797416262014  0.6577503032047514  0.2371656545083793  1.0000
  C   C493      1.0  0.776444792984154  0.6266567003802623  0.25298739501760903  1.0000
  C   C494      1.0  0.7463991037767403  0.6757659689642022  0.2627955530092861  1.0000
  C   C495      1.0  0.7480544020097738  0.6363845589307796  0.20995732582804594  1.0000
  C   C496      1.0  0.774165885509466  0.692395067021441  0.2231043987742779  1.0000
  H   H581      1.0  0.7876945401709076  0.6116852107969818  0.23434432610600114  1.0000
  H   H582      1.0  0.7672561278977085  0.600722799032255  0.26482650576981587  1.0000
  H   H583      1.0  0.7869426769182939  0.6420825989865209  0.27324819988085297  1.0000
  H   H584      1.0  0.7347502275293533  0.6995844291592642  0.2518952699483844  1.0000
  H   H585      1.0  0.7364588611791557  0.6506436397811975  0.27423675326421404  1.0000
  H   H586      1.0  0.7559280401529396  0.6920984622091676  0.28358436569321  1.0000
  H   H587      1.0  0.7364046747433446  0.6591261777737742  0.1976709389165777  1.0000
  H   H588      1.0  0.7381210840974256  0.6101591750588312  0.21992119643533298  1.0000
  H   H589      1.0  0.7587355982375574  0.6223650028158786  0.1900984814369467  1.0000
  H   H590      1.0  0.7631745690023324  0.7171552097653585  0.21191452779957803  1.0000
  H   H591      1.0  0.7853072966576939  0.6802299538535022  0.20316688902494306  1.0000
  H   H592      1.0  0.784607671745449  0.7085264093847118  0.2430564391686041  1.0000
  N   N29       1.0  0.5203151647554738  0.4399097023347286  0.9285897809817782  1.0000
  C   C497      1.0  0.5050317232519838  0.45753029715490523  0.9028301731816243  1.0000
  C   C498      1.0  0.509574011694006  0.44055902740856306  0.9616016189142776  1.0000
  C   C499      1.0  0.5405025217053622  0.46588197977456397  0.9310913569332103  1.0000
  C   C500      1.0  0.5261653967587248  0.3956176460789627  0.9188469183858125  1.0000
  H   H593      1.0  0.4896743525860507  0.4386757553274236  0.9003119909199045  1.0000
  H   H594      1.0  0.512473224016945  0.4570827050040999  0.8774934553127298  1.0000
  H   H595      1.0  0.5001631470070321  0.49087971773354966  0.9093405101980243  1.0000
  H   H596      1.0  0.49449419061171096  0.4206615786414187  0.9607975619759834  1.0000
  H   H597      1.0  0.520793136076261  0.4279537163683918  0.9816779254677307  1.0000
  H   H598      1.0  0.5045820277526002  0.47332043501954774  0.9696313288214231  1.0000
  H   H599      1.0  0.5524306721686497  0.4534015700870541  0.9502808759635841  1.0000
  H   H600      1.0  0.5367069477967612  0.49943186522775534  0.9386263954307661  1.0000
  H   H601      1.0  0.549068861580802  0.4659771497251479  0.906661219791522  1.0000
  H   H602      1.0  0.5340459852815803  0.3937189732864018  0.8938641712803512  1.0000
  H   H603      1.0  0.5113103454308039  0.37506158862233047  0.9170995572831402  1.0000
  H   H604      1.0  0.5378775601199601  0.38150972530233357  0.937617697422538  1.0000
  N   N30       1.0  0.269291153117194  0.4408670967864817  0.5748856646922579  1.0000
  C   C501      1.0  0.2817304308645059  0.47969370881056433  0.5846215930492505  1.0000
  C   C502      1.0  0.24568650456414975  0.4518067456794538  0.5703690685686033  1.0000
  C   C503      1.0  0.2720345472087996  0.40943671289902  0.6016813669519178  1.0000
  C   C504      1.0  0.2776393069443939  0.42248753397999694  0.5429377592827335  1.0000
  H   H605      1.0  0.2996329143192333  0.4727094322970919  0.588247955017921  1.0000
  H   H606      1.0  0.27575629161927373  0.49412021134807865  0.6087500198773383  1.0000
  H   H607      1.0  0.2799014500235142  0.5042453057967091  0.5650801080831133  1.0000
  H   H608      1.0  0.2357066155248066  0.42312332822446636  0.5640544874741219  1.0000
  H   H609      1.0  0.23892584878681666  0.4665904707507959  0.5937235623956626  1.0000
  H   H610      1.0  0.2428442377037194  0.4744676788696036  0.5496706817884434  1.0000
  H   H611      1.0  0.2628401225804491  0.3797344708541632  0.5951490121376158  1.0000
  H   H612      1.0  0.26578795927616433  0.42218217264602864  0.6261287652457251  1.0000
  H   H613      1.0  0.2896525722979945  0.40043166937331054  0.6057915670786178  1.0000
  H   H614      1.0  0.2683939073345757  0.39335823387130436  0.534924424621299  1.0000
  H   H615      1.0  0.29534507755807604  0.41325676750131163  0.5454289690172863  1.0000
  H   H616      1.0  0.27589027566485624  0.44526285475345834  0.522077709174119  1.0000
  N   N31       1.0  0.6975177908572647  0.8783466735670293  0.9376879361337422  1.0000
  C   C505      1.0  0.6857773455613494  0.9191754136020929  0.9329041104461365  1.0000
  C   C506      1.0  0.7078621128122996  0.8782709545616046  0.9717770219486973  1.0000
  C   C507      1.0  0.7147850547731912  0.8729668378467268  0.9122882920761385  1.0000
  C   C508      1.0  0.6817095924720493  0.842957777802131  0.9340018633148108  1.0000
  H   H617      1.0  0.6726728458405631  0.9241006246177725  0.9518327004357265  1.0000
  H   H618      1.0  0.6778023841077097  0.9204814044003334  0.9073771410053588  1.0000
  H   H619      1.0  0.697243856579859  0.9465638222756969  0.9358668849555354  1.0000
  H   H620      1.0  0.7170711958240075  0.8481411445457574  0.976158801887377  1.0000
  H   H621      1.0  0.7195225315319542  0.9051406609622027  0.975672849803961  1.0000
  H   H622      1.0  0.6954195953029529  0.8815410031016646  0.9917008769564886  1.0000
  H   H623      1.0  0.724063203793936  0.8425350154574105  0.9154310185338392  1.0000
  H   H624      1.0  0.7270600316094677  0.8990636122450766  0.9145943904444187  1.0000
  H   H625      1.0  0.7076776936844064  0.8727270948067946  0.8860876844432266  1.0000
  H   H626      1.0  0.6900738021343515  0.8117364648382726  0.9377270463370604  1.0000
  H   H627      1.0  0.6736225153242815  0.8419467712637748  0.9084886739774695  1.0000
  H   H628      1.0  0.6685106262600583  0.8461394330770721  0.9529559690669687  1.0000
  N   N32       1.0  0.8431217023678957  0.8641142850676402  0.9240627302038228  1.0000
  C   C509      1.0  0.8286653835695055  0.836940174933196  0.943557907170889  1.0000
  C   C510      1.0  0.8294545311540472  0.8947070340716483  0.9049333350443819  1.0000
  C   C511      1.0  0.8559905340824399  0.8373308962287901  0.9003793492250883  1.0000
  C   C512      1.0  0.8584089849042749  0.8875871034566657  0.9473491411689069  1.0000
  H   H629      1.0  0.8187452764912043  0.856113653380335  0.9617687470381959  1.0000
  H   H630      1.0  0.8383435663120848  0.8132027011959637  0.9581573702435661  1.0000
  H   H631      1.0  0.8167772312556492  0.8190133571426594  0.9267835021714476  1.0000
  H   H632      1.0  0.8397557479071152  0.9154949194581625  0.8896072797965879  1.0000
  H   H633      1.0  0.8177073900405228  0.8780930781262684  0.8871301511743078  1.0000
  H   H634      1.0  0.8195715387269722  0.915605549492446  0.9219759523329493  1.0000
  H   H635      1.0  0.8450936087936524  0.8198637544305414  0.8818280246738097  1.0000
  H   H636      1.0  0.8662643145707406  0.8133697604665464  0.913803495556394  1.0000
  H   H637      1.0  0.8673569661328063  0.8568123122744126  0.8857422995218798  1.0000
  H   H638      1.0  0.8695478892135685  0.9084008331216397  0.9333722820940297  1.0000
  H   H639      1.0  0.8690851371645635  0.865486690934642  0.9620911713371766  1.0000
  H   H640      1.0  0.849303792206544  0.9081739997202503  0.9656377707799052  1.0000
  N   N33       1.0  0.2964113002545661  0.025717255475647738  0.8113283788554156  1.0000
  C   C513      1.0  0.30170602212861836  0.07035749109605427  0.8043836434629109  1.0000
  C   C514      1.0  0.30115652759963724  0.9984562158669709  0.7813953504870327  1.0000
  C   C515      1.0  0.27279412160869826  0.022524216395250374  0.8190934620464098  1.0000
  C   C516      1.0  0.31000709488675093  0.011367235027498035  0.8403760048209614  1.0000
  H   H641      1.0  0.2916798412330713  0.08237945335517716  0.7827263884649757  1.0000
  H   H642      1.0  0.3194068947833382  0.07404920998737219  0.7985525157753671  1.0000
  H   H643      1.0  0.2983316943374589  0.09186966394467744  0.8263963327386148  1.0000
  H   H644      1.0  0.29728505988131165  0.9645695344652805  0.7858056474321624  1.0000
  H   H645      1.0  0.29119529814558487  0.008285218619886514  0.7589331290093347  1.0000
  H   H646      1.0  0.3188749508945301  0.9998694085098712  0.7749528988565526  1.0000
  H   H647      1.0  0.26815511393383296  0.9891761604136192  0.8241183775926982  1.0000
  H   H648      1.0  0.26203278418215165  0.03357277914480172  0.7978990636750415  1.0000
  H   H649      1.0  0.2686386997962907  0.042301449406825675  0.8417917824441375  1.0000
  H   H650      1.0  0.3069585920994904  0.9774084233458514  0.8456605981437486  1.0000
  H   H651      1.0  0.3064492428104687  0.03018762665587582  0.8638104588636268  1.0000
  H   H652      1.0  0.3279550324929191  0.014313936471141986  0.8359456612504755  1.0000
  N   N34       1.0  0.965695025827275  0.7873381685598839  0.7552280840145678  1.0000
  C   C517      1.0  0.9741581746375518  0.7936425089381585  0.7902839213953912  1.0000
  C   C518      1.0  0.9432374306948218  0.8056140615289928  0.7521486269089568  1.0000
  C   C519      1.0  0.9650503574899904  0.741372794702802  0.7465152657138622  1.0000
  C   C520      1.0  0.9803308518795583  0.808697774928308  0.7319642554987648  1.0000
  H   H653      1.0  0.9908830038313058  0.7794094569561039  0.7938648701964112  1.0000
  H   H654      1.0  0.9630780882009342  0.7792751285891679  0.8086682381423572  1.0000
  H   H655      1.0  0.9755298770213489  0.8279917111855726  0.7973381528882424  1.0000
  H   H656      1.0  0.9429750467844266  0.8399403151560136  0.7598899198532812  1.0000
  H   H657      1.0  0.9365454234013555  0.8027048546810732  0.7258212216979396  1.0000
  H   H658      1.0  0.931597632311183  0.789269600149445  0.7685890993010402  1.0000
  H   H659      1.0  0.9589766656873508  0.7353690995381168  0.7200770433581584  1.0000
  H   H660      1.0  0.9540839009391453  0.7241474032369766  0.7634050542486449  1.0000
  H   H661      1.0  0.9817535111272948  0.7265638744514304  0.7486461090774068  1.0000
  H   H662      1.0  0.9743106325708296  0.8050628236663167  0.7053129243907033  1.0000
  H   H663      1.0  0.9973188810848437  0.7951582555012318  0.7332282759331046  1.0000
  H   H664      1.0  0.9815181024662923  0.843372719142453  0.7380761130889237  1.0000
  N   N35       1.0  0.9768737067374064  0.042938506966604395  0.338565585431034  1.0000
  C   C521      1.0  0.9921814966654636  0.028055725562953656  0.31230245856508365  1.0000
  C   C522      1.0  0.9870756581645197  0.036060403312607736  0.37223745611973447  1.0000
  C   C523      1.0  0.9561082353214129  0.01883852511292794  0.33498068784886237  1.0000
  C   C524      1.0  0.9720946184560421  0.08872272039047391  0.33480533640445376  1.0000
  H   H665      1.0  0.9962452555423755  0.9936448489098616  0.31481094530412096  1.0000
  H   H666      1.0  0.007981769665891703  0.045728766892377815  0.31408236095934106  1.0000
  H   H667      1.0  0.9848891512491512  0.03200523585266701  0.28655235006792745  1.0000
  H   H668      1.0  0.9759341571342786  0.04668557090567038  0.39267939149589354  1.0000
  H   H669      1.0  0.990927480181709  0.0018116731369297596  0.37596408709771073  1.0000
  H   H670      1.0  0.0027158877839521534  0.05395490896864885  0.37593742148204495  1.0000
  H   H671      1.0  0.9443898073363877  0.02829494687422351  0.35498285474652713  1.0000
  H   H672      1.0  0.9591627223891185  0.9841072577818385  0.33686050965351494  1.0000
  H   H673      1.0  0.9476204764289078  0.024075090292734247  0.31025075367706517  1.0000
  H   H674      1.0  0.9601109049069215  0.10039152305756975  0.3537165125356729  1.0000
  H   H675      1.0  0.9647880855202133  0.09533716899880096  0.30947919254942025  1.0000
  H   H676      1.0  0.9872078591025573  0.10825856250697005  0.3385911705459999  1.0000
  N   N36       1.0  0.22673488090928984  0.456007624331782  0.05775668845963233  1.0000
  C   C525      1.0  0.22359132663368625  0.48880962102524544  0.03213184032401939  1.0000
  C   C526      1.0  0.20500130542760722  0.44013669253669674  0.06735782072803165  1.0000
  C   C527      1.0  0.2383065479858851  0.47465733443840336  0.0878374256599419  1.0000
  C   C528      1.0  0.24000179341072925  0.42040005941775627  0.04376536300683065  1.0000
  H   H677      1.0  0.23966353388075112  0.5016006341633731  0.024363258064801663  1.0000
  H   H678      1.0  0.2135637729120874  0.5160371939997616  0.041996375373866135  1.0000
  H   H679      1.0  0.21492812581647905  0.47564824157689717  0.009078219792202358  1.0000
  H   H680      1.0  0.2067861924519397  0.4147553301376795  0.08611056677134488  1.0000
  H   H681      1.0  0.19470536021184448  0.46588495731378066  0.07884669660390697  1.0000
  H   H682      1.0  0.19566299172783388  0.4260088109630458  0.04528412340295085  1.0000
  H   H683      1.0  0.25492465928395697  0.4864169729216606  0.08180411081424999  1.0000
  H   H684      1.0  0.24052745604667589  0.45095792402452367  0.10801168393793836  1.0000
  H   H685      1.0  0.22889187018140225  0.5019559679466193  0.09890601282221834  1.0000
  H   H686      1.0  0.24277069300920157  0.3952832600690016  0.06264680476563611  1.0000
  H   H687      1.0  0.2564775381986102  0.43107729653233084  0.03594931140239188  1.0000
  H   H688      1.0  0.2316458315696925  0.40517807080149487  0.021270684980893018  1.0000
  N   N37       1.0  0.38009417485412933  0.34993135568259603  0.8956136941638156  1.0000
  C   C529      1.0  0.379816524341299  0.39694164783900193  0.8970614936960504  1.0000
  C   C530      1.0  0.39470370028437457  0.33399418883136506  0.9229561094693262  1.0000
  C   C531      1.0  0.3883756221935117  0.33470749080986845  0.8626663188418142  1.0000
  C   C532      1.0  0.3574796754742938  0.33412072705740153  0.8997401357949015  1.0000
  H   H689      1.0  0.3966808516846079  0.41002826870363074  0.8948678853835264  1.0000
  H   H690      1.0  0.37310675816776595  0.4095891480548848  0.9211974627042661  1.0000
  H   H691      1.0  0.36935428585259433  0.41006675228273815  0.8762439967118255  1.0000
  H   H692      1.0  0.39509770919431736  0.29862411485973234  0.9228770373362502  1.0000
  H   H693      1.0  0.4119790021574095  0.34481425231631574  0.9202670133778262  1.0000
  H   H694      1.0  0.38921570760811885  0.34549272096424755  0.9481867297339391  1.0000
  H   H695      1.0  0.38808485918821134  0.29941455764076  0.8601562523600946  1.0000
  H   H696      1.0  0.4056795963270211  0.34488054796093615  0.8591474385048831  1.0000
  H   H697      1.0  0.3781934597116222  0.3473519635344554  0.8413713675540371  1.0000
  H   H698      1.0  0.35693195070797795  0.2987651643310493  0.8986774191303165  1.0000
  H   H699      1.0  0.346077214048489  0.34560768677155085  0.8795109990721734  1.0000
  H   H700      1.0  0.3505791323587806  0.34522109178878385  0.924195131653831  1.0000
  N   N38       1.0  0.7305275304234922  0.48925009535465813  0.43369275392811063  1.0000
  C   C533      1.0  0.7431325466655402  0.525463001178202  0.42144088306967215  1.0000
  C   C534      1.0  0.714791132222503  0.504804415964113  0.45910188341654584  1.0000
  C   C535      1.0  0.7458212219684822  0.45807486696057514  0.44911504036163674  1.0000
  C   C536      1.0  0.7182645614644557  0.46858651348756897  0.4051094768094901  1.0000
  H   H701      1.0  0.7550387676163278  0.5149408664236019  0.40203011614688616  1.0000
  H   H702      1.0  0.7526614330187231  0.5419182046672758  0.44220954301068494  1.0000
  H   H703      1.0  0.7320887837521046  0.5493898291591642  0.4093344804675457  1.0000
  H   H704      1.0  0.7050254083652046  0.47818602283518363  0.468861615426536  1.0000
  H   H705      1.0  0.7234812814090326  0.5206059100943335  0.48105234734328195  1.0000
  H   H706      1.0  0.7029514657274137  0.528252956867062  0.44820222587285585  1.0000
  H   H707      1.0  0.736740522332268  0.43093884386615494  0.45939615111387305  1.0000
  H   H708      1.0  0.7558520502554011  0.4727101186039014  0.47017801804887344  1.0000
  H   H709      1.0  0.7574533042307526  0.44442980025781254  0.43036104450543883  1.0000
  H   H710      1.0  0.7079999726173793  0.4420128916915497  0.4135164432474178  1.0000
  H   H711      1.0  0.7296750605045468  0.4552898688696375  0.38594201966265457  1.0000
  H   H712      1.0  0.7071649829287111  0.4915138167907575  0.3919771833737405  1.0000
  N   N39       1.0  0.03493251805889397  0.32845912359935586  0.7722228709818084  1.0000
  C   C537      1.0  0.028049933163029284  0.32143596725173385  0.8070610340145348  1.0000
  C   C538      1.0  0.02717732918535498  0.37082782602248865  0.7616364468250576  1.0000
  C   C539      1.0  0.02522806320627069  0.29529532578056683  0.7493667865218202  1.0000
  C   C540      1.0  0.05924217800132947  0.3262661501066427  0.7708046520012576  1.0000
  H   H713      1.0  0.009806195130296347  0.323164501994038  0.8089297330872774  1.0000
  H   H714      1.0  0.03509421178247951  0.345763053208915  0.825091049808734  1.0000
  H   H715      1.0  0.03337547094471294  0.289572044483731  0.8158253655973462  1.0000
  H   H716      1.0  0.032317808637690515  0.3774325896393782  0.7356348099490403  1.0000
  H   H717      1.0  0.00889969940870361  0.37338917259530674  0.7617140859120783  1.0000
  H   H718      1.0  0.033881302802277524  0.39662599352491534  0.7785838546036055  1.0000
  H   H719      1.0  0.006899574675398368  0.29623466264942905  0.749572309091007  1.0000
  H   H720      1.0  0.0306616463470617  0.2629019027290644  0.7566466162300552  1.0000
  H   H721      1.0  0.03016505013810744  0.29947592292970676  0.7228426408151227  1.0000
  H   H722      1.0  0.06715632303847441  0.3510175080620028  0.7875389150295019  1.0000
  H   H723      1.0  0.06493927617009954  0.3313048526206821  0.7447563483643873  1.0000
  H   H724      1.0  0.06569848072816464  0.29471238963405316  0.7785523727940666  1.0000
  N   N40       1.0  0.7765170478848603  0.27012262334733544  0.9303897703506677  1.0000
  C   C541      1.0  0.7718008728528405  0.2670464113228366  0.8936663401893297  1.0000
  C   C542      1.0  0.7739205447610005  0.2279034936518153  0.9451720133894069  1.0000
  C   C543      1.0  0.7609595549661462  0.3005482897302047  0.9461932643486266  1.0000
  C   C544      1.0  0.7993366570579438  0.28507990898775915  0.9366260515829823  1.0000
  H   H725      1.0  0.7733948382046474  0.29848482771511897  0.8817826214793966  1.0000
  H   H726      1.0  0.7547218451989038  0.2558039003712087  0.8879980308172716  1.0000
  H   H727      1.0  0.7832930195372169  0.24455486805647708  0.880818251492842  1.0000
  H   H728      1.0  0.7770248023330185  0.22926789463380226  0.9730017911601321  1.0000
  H   H729      1.0  0.7568076754016977  0.21584205307524415  0.9410857858286438  1.0000
  H   H730      1.0  0.7854174952068489  0.20394179135164578  0.9340986524611001  1.0000
  H   H731      1.0  0.7642745136932226  0.30394783714738516  0.9738713321204895  1.0000
  H   H732      1.0  0.7436187665389082  0.289525427958566  0.9429135315180803  1.0000
  H   H733      1.0  0.7618839297806298  0.3325579206854972  0.9351413599511083  1.0000
  H   H734      1.0  0.8018433835090765  0.31685644020882303  0.9257226498601538  1.0000
  H   H735      1.0  0.8115552979743159  0.2628192134356146  0.9251246569243549  1.0000
  H   H736      1.0  0.8034262969146875  0.28785195660000534  0.9641318422220186  1.0000
  N   N41       1.0  0.8521292556850195  0.34958783517595404  0.4081571753373038  1.0000
  C   C545      1.0  0.866057256365873  0.38772823747141566  0.40644629132284316  1.0000
  C   C546      1.0  0.8524785526948655  0.32569602272786263  0.37556088838943325  1.0000
  C   C547      1.0  0.8292269043155724  0.3626803287740471  0.41526464472566393  1.0000
  C   C548      1.0  0.8607257467008188  0.3222787822283648  0.43528027950305825  1.0000
  H   H737      1.0  0.8594873591441415  0.40992392550569035  0.3872001658238635  1.0000
  H   H738      1.0  0.8832678693397086  0.37908831732837506  0.3997635091211172  1.0000
  H   H739      1.0  0.8670234825669959  0.4054910495307171  0.431099651572983  1.0000
  H   H740      1.0  0.8425769852486528  0.29615132970156044  0.3761283180167366  1.0000
  H   H741      1.0  0.8454613081681369  0.3450771102679375  0.3548278016166559  1.0000
  H   H742      1.0  0.8695794987454767  0.3163978278947937  0.3686842491635942  1.0000
  H   H743      1.0  0.8182201997272944  0.3346744920771407  0.4166101878066902  1.0000
  H   H744      1.0  0.8221801388053613  0.38320463690186896  0.39515940528175364  1.0000
  H   H745      1.0  0.8282553873313024  0.3808676310712755  0.43963157607557674  1.0000
  H   H746      1.0  0.877948565606828  0.3117947560504818  0.4305865912999161  1.0000
  H   H747      1.0  0.8505871578596502  0.29326778283046256  0.43748611332400317  1.0000
  H   H748      1.0  0.8610569748103426  0.3395303925614888  0.46019289295239035  1.0000
  N   N42       1.0  0.31308396826905865  0.7604003522877918  0.7633983622052353  1.0000
  C   C549      1.0  0.31799198673355084  0.8063693174201261  0.764743100542665  1.0000
  C   C550      1.0  0.3285107753588437  0.7379864827859671  0.7863724448903118  1.0000
  C   C551      1.0  0.3156054631278422  0.743596131684877  0.7285313421036157  1.0000
  C   C552      1.0  0.2902210424288491  0.7537064057929023  0.7738931387270803  1.0000
  H   H749      1.0  0.3354126511485319  0.8124731614098283  0.7583136333999438  1.0000
  H   H750      1.0  0.3154975428847442  0.8205024547251653  0.7903633765163756  1.0000
  H   H751      1.0  0.30712585931880965  0.824126297798164  0.7469238986822787  1.0000
  H   H752      1.0  0.32509059789465833  0.7033251770580959  0.7865573282118604  1.0000
  H   H753      1.0  0.3459230388208684  0.7418227325027469  0.7788811801947252  1.0000
  H   H754      1.0  0.32745477466124184  0.7508358568612017  0.8127408952319614  1.0000
  H   H755      1.0  0.30430714858029767  0.7602586939501496  0.710548517099193  1.0000
  H   H756      1.0  0.31175299850083493  0.70908552633015  0.7264061615986659  1.0000
  H   H757      1.0  0.33271995017274786  0.7479043037426375  0.7198863404067342  1.0000
  H   H758      1.0  0.2861234480208406  0.7193305037145138  0.7742288757760023  1.0000
  H   H759      1.0  0.2781623543415948  0.7687806337457062  0.756269278726593  1.0000
  H   H760      1.0  0.2873845048621733  0.7677370138745849  0.7995258307802121  1.0000
  N   N43       1.0  0.7730171795856089  0.9300920919941237  0.22761973118852483  1.0000
  C   C553      1.0  0.7631653924964867  0.9419609232947843  0.19469449705156025  1.0000
  C   C554      1.0  0.7583719608390369  0.9444910889334959  0.25491126012581905  1.0000
  C   C555      1.0  0.7947669555887737  0.9504793839547344  0.23256936320185703  1.0000
  C   C556      1.0  0.7757587391735944  0.8833961254189827  0.2283873043903242  1.0000
  H   H761      1.0  0.7469066263759527  0.9265861713650995  0.1900310214722197  1.0000
  H   H762      1.0  0.7738445224790735  0.9320447858031355  0.173464301355698  1.0000
  H   H763      1.0  0.7603780440184317  0.9769052327941701  0.19338597209322564  1.0000
  H   H764      1.0  0.7418755638156456  0.9294371307659812  0.25213643980105127  1.0000
  H   H765      1.0  0.7653970162579288  0.9362409265000443  0.28013688170249773  1.0000
  H   H766      1.0  0.7557818143300524  0.9795401583778921  0.2549675505763014  1.0000
  H   H767      1.0  0.8026041763362051  0.9422017258404857  0.2572869777898581  1.0000
  H   H768      1.0  0.7933296667855776  0.9857480751019202  0.2321705883918712  1.0000
  H   H769      1.0  0.8063162975485981  0.9401260075830619  0.21257582641734188  1.0000
  H   H770      1.0  0.7864091297470013  0.8712396633784727  0.20781979169505008  1.0000
  H   H771      1.0  0.759633601725563  0.8669594443992257  0.2254566714201965  1.0000
  H   H772      1.0  0.7834769974998472  0.8734482468681347  0.25269279783503695  1.0000
  N   N44       1.0  0.6134630625922503  0.9269460058167027  0.12808491325352914  1.0000
  C   C557      1.0  0.6235159894302458  0.8940846067802188  0.10584978939291825  1.0000
  C   C558      1.0  0.630381694552724  0.9439040341470504  0.1522991451941328  1.0000
  C   C559      1.0  0.5954353225814506  0.9079376023429679  0.1467805999475149  1.0000
  C   C560      1.0  0.6044375031285474  0.9617499051507853  0.10743578226028672  1.0000
  H   H773      1.0  0.6309109252863911  0.8677309277788879  0.12058078187657387  1.0000
  H   H774      1.0  0.6368649501571481  0.9074983700913494  0.09073846075860191  1.0000
  H   H775      1.0  0.611114150208161  0.8800187257431861  0.08773366858328085  1.0000
  H   H776      1.0  0.6234066827439018  0.9687563307286978  0.16953346363848748  1.0000
  H   H777      1.0  0.6376519755961952  0.9184275957735524  0.1681337484461322  1.0000
  H   H778      1.0  0.6442885104522297  0.9585116022127862  0.13922784857336593  1.0000
  H   H779      1.0  0.5874566130411791  0.9318113710116183  0.1638745394691566  1.0000
  H   H780      1.0  0.6014799237171415  0.8813440007561003  0.16252702369944  1.0000
  H   H781      1.0  0.5822093431930279  0.8951174940534634  0.1294008878459888  1.0000
  H   H782      1.0  0.5970578077658967  0.9875075170838494  0.12339357280246412  1.0000
  H   H783      1.0  0.5912614185059314  0.9501388036598298  0.08948890237158354  1.0000
  H   H784      1.0  0.6174032121800553  0.976225611452892  0.09219998155048917  1.0000
  N   N45       1.0  0.49747846512519434  0.5870241717593968  0.3413116771222847  1.0000
  C   C561      1.0  0.5161316496535269  0.6159978158001989  0.3366964371132213  1.0000
  C   C562      1.0  0.5045372482670801  0.5521983024773701  0.3634817572540574  1.0000
  C   C563      1.0  0.49006601272493366  0.5689431538100627  0.3081807525497809  1.0000
  C   C564      1.0  0.479131890094124  0.6110292106423784  0.35680722354431454  1.0000
  H   H785      1.0  0.5112790781924049  0.6425804484880266  0.3199852924791148  1.0000
  H   H786      1.0  0.5303086016239579  0.5989731612596619  0.3250825178329525  1.0000
  H   H787      1.0  0.5220347570835707  0.6305130661295408  0.36118429417633857  1.0000
  H   H788      1.0  0.4908243576702345  0.5297300436071773  0.3674152045987535  1.0000
  H   H789      1.0  0.5182486766494269  0.5330990119501045  0.3524409650654645  1.0000
  H   H790      1.0  0.5102804183687984  0.5645025301265186  0.3887341055816302  1.0000
  H   H791      1.0  0.47575416961417827  0.5475047497678833  0.3106561725426073  1.0000
  H   H792      1.0  0.5033291239069883  0.5499381854746139  0.295937570557082  1.0000
  H   H793      1.0  0.48479894889130326  0.5943336842866572  0.2906664025059563  1.0000
  H   H794      1.0  0.46454779281237135  0.5904632657355198  0.36007999171868055  1.0000
  H   H795      1.0  0.4736157212070365  0.6379000726475331  0.34090469504220067  1.0000
  H   H796      1.0  0.48395166958697877  0.624826627135352  0.3820233595140858  1.0000
  N   N46       1.0  0.7635108116336148  0.9372389295026189  0.7313881976197376  1.0000
  C   C565      1.0  0.7849639298479504  0.9591733503198111  0.7321833359670397  1.0000
  C   C566      1.0  0.7562217826772989  0.9321793126352828  0.7662822040561861  1.0000
  C   C567      1.0  0.7659495121996194  0.8949105371966264  0.7147112200384524  1.0000
  C   C568      1.0  0.7469632959762272  0.9625594824071348  0.7124301365264609  1.0000
  H   H797      1.0  0.7911158270447797  0.9630754345558137  0.7062943549130436  1.0000
  H   H798      1.0  0.7977239058751902  0.9410191400478113  0.7467185519807529  1.0000
  H   H799      1.0  0.7837042564255654  0.9913483959657854  0.7443999846676563  1.0000
  H   H800      1.0  0.7683907500782404  0.9133693790950731  0.7812983434756506  1.0000
  H   H801      1.0  0.7541351767933865  0.9634410067124121  0.7796497857574779  1.0000
  H   H802      1.0  0.7401804628278815  0.9153930022358054  0.7667623578896536  1.0000
  H   H803      1.0  0.7502790468852011  0.8769125444408463  0.7147380157573865  1.0000
  H   H804      1.0  0.7787580771662698  0.8753441620889519  0.72775923394564  1.0000
  H   H805      1.0  0.7706399671806683  0.8974226412732572  0.6879216659037368  1.0000
  H   H806      1.0  0.7306714539634501  0.94652698291824  0.7109412369435164  1.0000
  H   H807      1.0  0.7520415660307124  0.9675167951258073  0.6860947524710919  1.0000
  H   H808      1.0  0.7444503350926418  0.9946171351310881  0.7243706002011884  1.0000
  N   N47       1.0  0.22962592236026821  0.7946830090790237  0.9820965141079402  1.0000
  C   C569      1.0  0.21440430338828095  0.8292342004613115  0.9719474249595237  1.0000
  C   C570      1.0  0.2525230361997226  0.8103344742948502  0.9827506552551071  1.0000
  C   C571      1.0  0.22754165871940432  0.7586341344245499  0.9575417255099505  1.0000
  C   C572      1.0  0.22408194852311633  0.7806824464881847  0.016064870082852067  1.0000
  H   H809      1.0  0.21821126156498483  0.8406956137292745  0.946445421391514  1.0000
  H   H810      1.0  0.21556109748528873  0.8569976204803937  0.9899072981668745  1.0000
  H   H811      1.0  0.19696571998208895  0.8185998798834705  0.9711334455570881  1.0000
  H   H812      1.0  0.2644709735199985  0.7856181360548986  0.9912573861605545  1.0000
  H   H813      1.0  0.25743849736853036  0.8202062125379862  0.9573633525816403  1.0000
  H   H814      1.0  0.2545530001024813  0.8383868097597009  0.00017439084690473727  1.0000
  H   H815      1.0  0.23153880201437962  0.7685036199903474  0.9316332426123377  1.0000
  H   H816      1.0  0.21048073112603607  0.7459191093667026  0.9563952980730954  1.0000
  H   H817      1.0  0.2389735864317679  0.7321500446608887  0.9641865378531602  1.0000
  H   H818      1.0  0.23511750974717835  0.7544294361698042  0.02454126662448375  1.0000
  H   H819      1.0  0.20677142280656494  0.7694364174623399  0.016847269172975743  1.0000
  H   H820      1.0  0.22586106601735378  0.807143523291598  0.03510347798731961  1.0000
  N   N48       1.0  0.9910602763517755  0.04194096907208977  0.01162766391293868  1.0000
  C   C573      1.0  0.007089303476906839  0.023799572787030376  0.036073531966302586  1.0000
  C   C574      1.0  0.0024444578947662166  0.07170647253708928  0.989953607471445  1.0000
  C   C575      1.0  0.9735190391540338  0.06481709782299361  0.030058868741843936  1.0000
  C   C576      1.0  0.981176968455624  0.00733541146007699  0.9904453538691165  1.0000
  H   H821      1.0  0.01506802980470634  0.048964203785736515  0.05230832719606182  1.0000
  H   H822      1.0  0.02040316544799503  0.005624158687240088  0.02313130932325569  1.0000
  H   H823      1.0  0.9990319725044724  0.0014071412057083954  0.05303936100096385  1.0000
  H   H824      1.0  0.9908605057044908  0.08561981682685049  0.9710104721680771  1.0000
  H   H825      1.0  0.009789749797869396  0.09868968943119416  0.004978197585641553  1.0000
  H   H826      1.0  0.015865653158103177  0.055459182352343595  0.9758492163240725  1.0000
  H   H827      1.0  0.9608669785779415  0.07807667523779127  0.012424241585833329  1.0000
  H   H828      1.0  0.9802395859210918  0.09199478144303996  0.045561307073667116  1.0000
  H   H829      1.0  0.9648702362524025  0.04340509915094026  0.04710675336367576  1.0000
  H   H830      1.0  0.9691990250545406  0.019748840160081382  0.9714135634328248  1.0000
  H   H831      1.0  0.9721532611802944  0.9846278474737432  0.005902922674628552  1.0000
  H   H832      1.0  0.9939308854965027  0.9890801079200076  0.976386566512992  1.0000
  N   N49       1.0  0.7103369455863434  0.36313160473993417  0.723547057474814  1.0000
  C   C577      1.0  0.71364244886648  0.374587689952856  0.7596941284305229  1.0000
  C   C578      1.0  0.711047863750609  0.4018710852710555  0.7034211208365758  1.0000
  C   C579      1.0  0.6886521752492452  0.3426206288758013  0.7182724560024211  1.0000
  C   C580      1.0  0.7280167466773616  0.33346695865952786  0.7128528683697042  1.0000
  H   H833      1.0  0.7009913259803233  0.39782219230846905  0.7685562013517461  1.0000
  H   H834      1.0  0.7301443007349241  0.3888244055687307  0.7648630759930698  1.0000
  H   H835      1.0  0.7126603208699744  0.34612633086994965  0.7756230770707485  1.0000
  H   H836      1.0  0.7093421774902496  0.39401535107273233  0.6758941142817197  1.0000
  H   H837      1.0  0.6973280690544139  0.42419069554752925  0.7096600808233926  1.0000
  H   H838      1.0  0.7268840128875612  0.41901039173819865  0.7077592425936605  1.0000
  H   H839      1.0  0.6854340413476114  0.33416391998951406  0.6912438121079852  1.0000
  H   H840      1.0  0.6749525357458187  0.36422324635461983  0.7260510692878979  1.0000
  H   H841      1.0  0.6875467124882035  0.31297604400827794  0.7327224740555863  1.0000
  H   H842      1.0  0.7445831583313633  0.34798570080655916  0.7168324499987418  1.0000
  H   H843      1.0  0.7262818451845506  0.3245183575015566  0.6855548588307224  1.0000
  H   H844      1.0  0.7279297799063699  0.3036864976692265  0.7272998567761659  1.0000
  N   N50       1.0  0.4513016885073458  0.9094415379365535  0.2170493487797757  1.0000
  C   C581      1.0  0.4682211204763663  0.9213387602880561  0.24303099062363828  1.0000
  C   C582      1.0  0.4606426674023273  0.9130613184149368  0.1832457307843285  1.0000
  C   C583      1.0  0.4320195883870491  0.9381333010467747  0.22026949028886345  1.0000
  C   C584      1.0  0.4443540607960943  0.8651589125184779  0.22176348091328438  1.0000
  H   H845      1.0  0.46167546249977226  0.9193452453222098  0.2688982199887331  1.0000
  H   H846      1.0  0.4741090931113784  0.954344022439314  0.23994064905550552  1.0000
  H   H847      1.0  0.48290642534199385  0.8999220706194939  0.2415487304081007  1.0000
  H   H848      1.0  0.4485191884289749  0.903804759297357  0.1628608327850648  1.0000
  H   H849      1.0  0.46606511247103233  0.9460642873293378  0.1787091533819392  1.0000
  H   H850      1.0  0.4753131397173932  0.8919786946229508  0.18028260157975104  1.0000
  H   H851      1.0  0.42460733360197334  0.9358429571800919  0.24557706645608338  1.0000
  H   H852      1.0  0.41896129223123846  0.930076576240397  0.2009670856149015  1.0000
  H   H853      1.0  0.43666265404555693  0.9718876385153644  0.21702683308328355  1.0000
  H   H854      1.0  0.4319853739056351  0.8545956317864463  0.20216285547134843  1.0000
  H   H855      1.0  0.4369605705295268  0.8613398850938138  0.24685517842600127  1.0000
  H   H856      1.0  0.45856206177294984  0.8427499352666551  0.2201513142877795  1.0000
  N   N51       1.0  0.6587415489291915  0.8974044632878655  0.46752593128367886  1.0000
  C   C585      1.0  0.676563935884534  0.9290326886339002  0.46628580183847257  1.0000
  C   C586      1.0  0.637146541371675  0.9194656922809564  0.4660292410307851  1.0000
  C   C587      1.0  0.6609307086594902  0.8741429017314388  0.49927332395214835  1.0000
  C   C588      1.0  0.6603321497936077  0.8669552573349492  0.4386127944882047  1.0000
  H   H857      1.0  0.6759138293602093  0.9523396484206786  0.4879162031128264  1.0000
  H   H858      1.0  0.675516582311438  0.9471508008895715  0.4426412501719142  1.0000
  H   H859      1.0  0.693088284681233  0.9136086851751195  0.4674318401939938  1.0000
  H   H860      1.0  0.6357104494489224  0.9435070103122962  0.48699401334221576  1.0000
  H   H861      1.0  0.634700941499613  0.9363993069320281  0.441976761941931  1.0000
  H   H862      1.0  0.6232885602322581  0.8968220321310032  0.46816660651820674  1.0000
  H   H863      1.0  0.6476075950233494  0.8503692640815532  0.5013924297460216  1.0000
  H   H864      1.0  0.6600264992861388  0.8962230216620478  0.5215666665236425  1.0000
  H   H865      1.0  0.6770289544626017  0.8569767893038059  0.5011576027771832  1.0000
  H   H866      1.0  0.6759826612221644  0.8483619405835243  0.43990301605591825  1.0000
  H   H867      1.0  0.6600074062091771  0.8833897037127542  0.414139224432498  1.0000
  H   H868      1.0  0.6466098888098857  0.8437070830695067  0.4379588180470653  1.0000
  N   N52       1.0  0.47526784895964086  0.316973284583168  0.6860609729447148  1.0000
  C   C589      1.0  0.4652561629844419  0.3145824008286421  0.6516882170670261  1.0000
  C   C590      1.0  0.4954176425206089  0.2902499911864751  0.6872671966592175  1.0000
  C   C591      1.0  0.4593248855258729  0.30161221521234155  0.7103711299240812  1.0000
  C   C592      1.0  0.48103467338901446  0.3615243599374135  0.6949190654876994  1.0000
  H   H869      1.0  0.4767796875142105  0.32598979571652725  0.6326707465656249  1.0000
  H   H870      1.0  0.4500877232585704  0.3346223259915782  0.6497268410245692  1.0000
  H   H871      1.0  0.46072117619750275  0.2814312716160508  0.6440760063176652  1.0000
  H   H872      1.0  0.5079995821573842  0.3016891512548469  0.669839169625411  1.0000
  H   H873      1.0  0.5031496649407156  0.2903903230999846  0.7130040743562429  1.0000
  H   H874      1.0  0.49190504406393115  0.2566130587471046  0.6795688361210759  1.0000
  H   H875      1.0  0.4437705697196437  0.3207389653110985  0.7096305333576673  1.0000
  H   H876      1.0  0.4661230753215807  0.303878613557974  0.7367098961448931  1.0000
  H   H877      1.0  0.4548622782465756  0.2678550481180496  0.7048113179977451  1.0000
  H   H878      1.0  0.46612870851745886  0.3822440715468461  0.6951765492387192  1.0000
  H   H879      1.0  0.49242192599224577  0.37485214227714814  0.6764788274465786  1.0000
  H   H880      1.0  0.4891131392556415  0.3645319432978656  0.7203735376156325  1.0000
  N   N53       1.0  0.7532796601919746  0.5831044283465012  0.733861890215797  1.0000
  C   C593      1.0  0.7408495009749677  0.5431732038795837  0.7286520155567165  1.0000
  C   C594      1.0  0.7467277280115501  0.6133116658354836  0.7074861979023119  1.0000
  C   C595      1.0  0.7771445029217928  0.5738790971355957  0.7319124310179327  1.0000
  C   C596      1.0  0.7484500511422706  0.6021203108241752  0.767380058844316  1.0000
  H   H881      1.0  0.745728830344391  0.5196002895109716  0.7479404181961047  1.0000
  H   H882      1.0  0.7441266717907802  0.528023578425999  0.7035409566992725  1.0000
  H   H883      1.0  0.7227746429776125  0.548733219640552  0.7301460518488981  1.0000
  H   H884      1.0  0.755863859220383  0.6438174436974441  0.7108554824437031  1.0000
  H   H885      1.0  0.7502327086463576  0.600091791659072  0.6818437582417242  1.0000
  H   H886      1.0  0.7288180168386919  0.6211091794401603  0.708211936122307  1.0000
  H   H887      1.0  0.7813052491719682  0.5585043223173544  0.7072330678437633  1.0000
  H   H888      1.0  0.7827760659918822  0.5516966901162538  0.7518200658553078  1.0000
  H   H889      1.0  0.787013391088862  0.6034596419627996  0.7350982039301862  1.0000
  H   H890      1.0  0.7568070190548601  0.6332665134365757  0.7714331716207867  1.0000
  H   H891      1.0  0.7541802393862373  0.5812028923395742  0.7880950470545489  1.0000
  H   H892      1.0  0.7305017115996919  0.6080439409445008  0.7702814036780362  1.0000
  N   N54       1.0  0.5464050209328264  0.8715251309168693  0.6816013376183148  1.0000
  C   C597      1.0  0.5311541085957573  0.8653556136989882  0.6523293617638107  1.0000
  C   C598      1.0  0.5338443466299503  0.8870460542893918  0.7109700128454158  1.0000
  C   C599      1.0  0.5632010287658562  0.9031669972658511  0.6735511726419122  1.0000
  C   C600      1.0  0.5572856115235904  0.8306188255314403  0.6892842183614587  1.0000
  H   H893      1.0  0.5399512751932026  0.8538638367216581  0.6295134378759907  1.0000
  H   H894      1.0  0.5227349539669317  0.895725786967363  0.6460696531921132  1.0000
  H   H895      1.0  0.518145260127551  0.8418188103096017  0.6573601824229184  1.0000
  H   H896      1.0  0.5203943566172095  0.8647337507123156  0.716858794958399  1.0000
  H   H897      1.0  0.5446322360538468  0.8910939650031952  0.7338950195726108  1.0000
  H   H898      1.0  0.5258677782499633  0.918404253572048  0.7060640785657086  1.0000
  H   H899      1.0  0.555416634836242  0.9342560894465958  0.6672964235636276  1.0000
  H   H900      1.0  0.5728600819117118  0.8925277680027053  0.6513014260517053  1.0000
  H   H901      1.0  0.575036316424482  0.9088242564585644  0.6950542673355248  1.0000
  H   H902      1.0  0.5690655397293054  0.8340529921030595  0.7111432889011581  1.0000
  H   H903      1.0  0.5666941675518773  0.8180812789434508  0.6673371806111449  1.0000
  H   H904      1.0  0.5449855354900588  0.806138393124437  0.6954362302143943  1.0000
  N   N55       1.0  0.9298834778717461  0.40971212909076277  0.027970667107937386  1.0000
  C   C601      1.0  0.9426264906606884  0.43549601820001027  0.053255660848365194  1.0000
  C   C602      1.0  0.9425227263831618  0.4050105288644613  0.9967558371138724  1.0000
  C   C603      1.0  0.9085810411779138  0.43093208592812043  0.020316736601988516  1.0000
  C   C604      1.0  0.9258151431616918  0.36727586161318854  0.041468026054375384  1.0000
  H   H905      1.0  0.9336961925744375  0.4395281791038537  0.07728027839120744  1.0000
  H   H906      1.0  0.9461106340222646  0.4677236000963828  0.043957013701250824  1.0000
  H   H907      1.0  0.9587719936673244  0.420192885503125  0.05938558234460811  1.0000
  H   H908      1.0  0.9331206677398909  0.38672832985343125  0.9768373690824546  1.0000
  H   H909      1.0  0.9465149880231606  0.43635784003907485  0.986310180981915  1.0000
  H   H910      1.0  0.9583572076393255  0.3878104992983519  0.0012395686225978864  1.0000
  H   H911      1.0  0.911030373346157  0.46289723318635884  0.009796905381734167  1.0000
  H   H912      1.0  0.8985625303216122  0.43502328226341186  0.04327090338379724  1.0000
  H   H913      1.0  0.8986115874752265  0.41199329031804444  0.0013233765774991468  1.0000
  H   H914      1.0  0.9162941938187581  0.3468896518530438  0.022943811615850684  1.0000
  H   H915      1.0  0.9162674537820646  0.36952612255171713  0.06499037208150726  1.0000
  H   H916      1.0  0.9415554070709052  0.3503298751041892  0.047465995346055  1.0000
  N   N56       1.0  0.17593129207228558  0.31423038963776345  0.29553825494919717  1.0000
  C   C605      1.0  0.18044551482596163  0.2870977545459244  0.26543471297705595  1.0000
  C   C606      1.0  0.1694092150490598  0.2871859446322502  0.3233518701910711  1.0000
  C   C607      1.0  0.1579000461323063  0.34450378078763777  0.2875217185422753  1.0000
  C   C608      1.0  0.19599982415484282  0.3380598665186511  0.3058735933558533  1.0000
  H   H917      1.0  0.19424611445843354  0.26430094847407126  0.2702892981384466  1.0000
  H   H918      1.0  0.1852825634074316  0.3063654563466316  0.24386464135179725  1.0000
  H   H919      1.0  0.16571469951228576  0.2685218500349484  0.25688327752947454  1.0000
  H   H920      1.0  0.16602035288598235  0.30657927013096775  0.34657581636557216  1.0000
  H   H921      1.0  0.1542462442109782  0.26890016979072284  0.31644214757732225  1.0000
  H   H922      1.0  0.18268081115977208  0.2638798943829327  0.3298284890521058  1.0000
  H   H923      1.0  0.15367965826210792  0.3649529145560543  0.30979118415855467  1.0000
  H   H924      1.0  0.1426477048042849  0.3277738421398688  0.2785379861717852  1.0000
  H   H925      1.0  0.16248317756676037  0.36602095457833816  0.2671139235602771  1.0000
  H   H926      1.0  0.19324703844186608  0.35906511530412205  0.32842532218405446  1.0000
  H   H927      1.0  0.20151307877496097  0.35855179587938374  0.2853756041973948  1.0000
  H   H928      1.0  0.20994276437524964  0.316218448675068  0.3121803131065085  1.0000
  N   N57       1.0  0.6100399571303966  0.23055963288841108  0.024127346592972106  1.0000
  C   C609      1.0  0.6061083072597333  0.2701933810778648  0.005680191470966322  1.0000
  C   C610      1.0  0.6203755359928255  0.2409896536243657  0.057464741235327514  1.0000
  C   C611      1.0  0.6249344867892427  0.20215014348839838  0.004798499305499471  1.0000
  C   C612      1.0  0.5887927009624484  0.20900748265118804  0.028614384348917273  1.0000
  H   H929      1.0  0.5984597723878214  0.26368463633552125  0.980278837236675  1.0000
  H   H930      1.0  0.6217385011211363  0.28767408704043207  0.0022676132838368446  1.0000
  H   H931      1.0  0.5947861727900601  0.2921645011011151  0.0195061578409359  1.0000
  H   H932      1.0  0.6234182004773761  0.21193376993800422  0.07230536433745116  1.0000
  H   H933      1.0  0.6365738532709473  0.2568270593778647  0.05487159270298969  1.0000
  H   H934      1.0  0.6098669880830974  0.263155231455144  0.07254731832103678  1.0000
  H   H935      1.0  0.6285205450392146  0.17211989817475926  0.018268788999387775  1.0000
  H   H936      1.0  0.641076732692411  0.217566994310214  0.0007448100786553447  1.0000
  H   H937      1.0  0.6176280177563197  0.1932152488372406  0.9795966846505849  1.0000
  H   H938      1.0  0.5910955471167249  0.17865983306340202  0.04205444643542644  1.0000
  H   H939      1.0  0.5803251434512814  0.2012863372641217  0.003947817787267827  1.0000
  H   H940      1.0  0.5771967332520781  0.22938099279791468  0.04332337748015114  1.0000
  N   N58       1.0  0.33579591288129584  0.3372147227598951  0.3087910064073018  1.0000
  C   C613      1.0  0.3534237846261826  0.36725763121792815  0.30101911365746  1.0000
  C   C614      1.0  0.32905185227250355  0.34495911139971214  0.3439041212426034  1.0000
  C   C615      1.0  0.34408782881372457  0.29308785472242493  0.30472277881213483  1.0000
  C   C616      1.0  0.3165510172478814  0.34343866241860316  0.2857578355902882  1.0000
  H   H941      1.0  0.3590599936365904  0.3623374194641624  0.2747406376884603  1.0000
  H   H942      1.0  0.3680964002634946  0.36329666675111133  0.31822892932145275  1.0000
  H   H943      1.0  0.3477146940665276  0.40084397830664886  0.3040174353529765  1.0000
  H   H944      1.0  0.31640348301721327  0.3218416451116311  0.3509463930573929  1.0000
  H   H945      1.0  0.34320576888139526  0.34184095846828655  0.3619834943462871  1.0000
  H   H946      1.0  0.32178724041233686  0.3772946260561615  0.3477299377575521  1.0000
  H   H947      1.0  0.3312416084766093  0.269564180582815  0.31058535570656653  1.0000
  H   H948      1.0  0.3583872627763323  0.2870175233499884  0.3220548594167661  1.0000
  H   H949      1.0  0.34945942455385487  0.2860746935996395  0.2785651299234585  1.0000
  H   H950      1.0  0.3031741334245076  0.3206449388921763  0.29086703772908495  1.0000
  H   H951      1.0  0.32099234089840706  0.3386287478708968  0.25890585636863894  1.0000
  H   H952      1.0  0.3093573461545998  0.3759526782272846  0.2889033010788561  1.0000
  N   N59       1.0  0.755208146024986  0.49333494762981916  0.9616080050852541  1.0000
  C   C617      1.0  0.7754717914923763  0.5187103045925545  0.9666909675446294  1.0000
  C   C618      1.0  0.7459401706063278  0.4841213506834188  0.9946979013310416  1.0000
  C   C619      1.0  0.7605452119474567  0.4529837984226695  0.9435176919408417  1.0000
  C   C620      1.0  0.7388767665270018  0.5175470650580162  0.9413838173609888  1.0000
  H   H953      1.0  0.7881505422190049  0.5015078726305142  0.981945566114741  1.0000
  H   H954      1.0  0.7720280405004437  0.5496195970504951  0.9799221001821808  1.0000
  H   H955      1.0  0.7829048444383147  0.5259621110840607  0.942146680421409  1.0000
  H   H956      1.0  0.7304460855910798  0.46551179431642004  0.9916927730850272  1.0000
  H   H957      1.0  0.7576360390047805  0.46529038950885665  0.010564381481071639  1.0000
  H   H958      1.0  0.7418629905082249  0.5138228440631764  0.009179825685855514  1.0000
  H   H959      1.0  0.7669163583779938  0.45881979810935064  0.9179733113983607  1.0000
  H   H960      1.0  0.7457157281456585  0.43266290902405175  0.940064494855753  1.0000
  H   H961      1.0  0.7732380441671927  0.43436601263176927  0.9575851312207498  1.0000
  H   H962      1.0  0.7452143338653316  0.5244273323517792  0.9160258474825389  1.0000
  H   H963      1.0  0.7346333925978771  0.5484478068869533  0.9539948470432053  1.0000
  H   H964      1.0  0.7232740313213764  0.49954617792150036  0.9374121000458939  1.0000
  N   N60       1.0  0.9488818271396355  0.3917530308931796  0.25174090251167425  1.0000
  C   C621      1.0  0.935552264334917  0.3600448777468264  0.2322491660922307  1.0000
  C   C622      1.0  0.9562320217939816  0.37369788774217505  0.28416033253031414  1.0000
  C   C623      1.0  0.9353895260224593  0.4303327646173784  0.2582209166500686  1.0000
  C   C624      1.0  0.9683530860379974  0.40298756128943547  0.23237078978955722  1.0000
  H   H965      1.0  0.9298445618513184  0.3725044569510134  0.20753668570818068  1.0000
  H   H966      1.0  0.9206557146754922  0.35112760347920235  0.24616685918793876  1.0000
  H   H967      1.0  0.9451290241765968  0.330310502919356  0.22725927909769947  1.0000
  H   H968      1.0  0.9671040621217936  0.39601461179077213  0.2988091511870397  1.0000
  H   H969      1.0  0.9420373573791649  0.366800891052832  0.3001867014184223  1.0000
  H   H970      1.0  0.9656444097848271  0.34351465722840235  0.28039130563166076  1.0000
  H   H971      1.0  0.930209266732131  0.4456878240761316  0.23435648016899147  1.0000
  H   H972      1.0  0.9446783704072116  0.45441725141896666  0.27382707105639803  1.0000
  H   H973      1.0  0.9202227374593763  0.42287031921167584  0.27195002741492363  1.0000
  H   H974      1.0  0.978454362431884  0.4275929643102985  0.24614554386945917  1.0000
  H   H975      1.0  0.9634743542344207  0.4159501300900483  0.2074460532371449  1.0000
  H   H976      1.0  0.97918544843137  0.37486902829755997  0.22753319391951865  1.0000
  N   N61       1.0  0.1116201766496745  0.6580221368595188  0.18217125746920135  1.0000
  C   C625      1.0  0.11345763699397031  0.6135661960899191  0.16938545185597456  1.0000
  C   C626      1.0  0.13132246075716528  0.6687157355255682  0.2033816605842308  1.0000
  C   C627      1.0  0.09163997578479322  0.6628116141314919  0.20247603287191523  1.0000
  C   C628      1.0  0.11005935268216695  0.6868872893960529  0.15344400737663588  1.0000
  H   H977      1.0  0.11470047805186322  0.5909343401575196  0.19042308073537423  1.0000
  H   H978      1.0  0.12831773408102562  0.6087524504002828  0.15383304775275922  1.0000
  H   H979      1.0  0.09879402660696313  0.6041636908328816  0.15350980652981086  1.0000
  H   H980      1.0  0.13064902708213272  0.7021090230395384  0.21340081610373335  1.0000
  H   H981      1.0  0.13302792311379721  0.6475371151505658  0.2252867966037571  1.0000
  H   H982      1.0  0.14668439835854702  0.6650895709321223  0.18880782991743508  1.0000
  H   H983      1.0  0.0897391401865444  0.6959809522554715  0.21259278007295906  1.0000
  H   H984      1.0  0.09218101720989692  0.6411022585515265  0.22416237367988984  1.0000
  H   H985      1.0  0.0765010106966564  0.6549669969586602  0.18715953129026852  1.0000
  H   H986      1.0  0.10815299359483643  0.7206491118983894  0.16207767438299725  1.0000
  H   H987      1.0  0.09565034519671256  0.6792309434183532  0.13652299497359338  1.0000
  H   H988      1.0  0.12502041416599263  0.684594805842108  0.13786374591519343  1.0000
  N   N62       1.0  0.44978761894233005  0.6311983178461781  0.7513479088701561  1.0000
  C   C629      1.0  0.4667478875133961  0.6081674898949122  0.7318054006844745  1.0000
  C   C630      1.0  0.4604235403855279  0.6541972551532946  0.7803253265925378  1.0000
  C   C631      1.0  0.43380975009597467  0.6004389511103406  0.7637080243542221  1.0000
  C   C632      1.0  0.43817560230081776  0.6620380480578715  0.7296059801469058  1.0000
  H   H989      1.0  0.4593040185684002  0.5905718906885521  0.7096032153664233  1.0000
  H   H990      1.0  0.4755716631846139  0.584129195529381  0.7473581417694755  1.0000
  H   H991      1.0  0.47923826679719295  0.6302098719486582  0.7223263607814276  1.0000
  H   H992      1.0  0.44807508874302787  0.6721012102758078  0.7953858094830133  1.0000
  H   H993      1.0  0.46912753559175935  0.6320631494340175  0.7976615810668986  1.0000
  H   H994      1.0  0.47260775516743786  0.6777278947997516  0.7720861605326435  1.0000
  H   H995      1.0  0.4204975323857645  0.6166640545796778  0.7780816220501068  1.0000
  H   H996      1.0  0.441933090383184  0.5773935504855565  0.7809009811434167  1.0000
  H   H997      1.0  0.42589088005711  0.5815969197106894  0.7425858933889059  1.0000
  H   H998      1.0  0.42507190705290276  0.6795337316144396  0.7435511913283004  1.0000
  H   H999      1.0  0.4302101118766565  0.6459128392219058  0.7071778158712966  1.0000
  H   H1000     1.0  0.44967382878385004  0.6863490399422346  0.7204428603011487  1.0000
  N   N63       1.0  0.4637132247035013  0.44730813193689944  0.16496469610936249  1.0000
  C   C633      1.0  0.4532893862583408  0.488069371261846  0.1555396338592543  1.0000
  C   C634      1.0  0.4479029384053738  0.42211744122290984  0.18368139762827693  1.0000
  C   C635      1.0  0.4834983214622751  0.45570669776616757  0.18659826701281632  1.0000
  C   C636      1.0  0.47017785631259745  0.42339308176000673  0.13410911428258934  1.0000
  H   H1001     1.0  0.46479143142890883  0.5080971983344981  0.1416248170212419  1.0000
  H   H1002     1.0  0.44814288871328567  0.5069203878744062  0.17822613903470452  1.0000
  H   H1003     1.0  0.4382842857536205  0.4828689932215585  0.13925074529169035  1.0000
  H   H1004     1.0  0.4425114844518525  0.4395371325204742  0.20691062757989562  1.0000
  H   H1005     1.0  0.4328675906932134  0.4145186334709783  0.16810238217248974  1.0000
  H   H1006     1.0  0.45533851043192247  0.3915475516210422  0.19180555804196386  1.0000
  H   H1007     1.0  0.49155631424289276  0.4255250205505654  0.1945851801386251  1.0000
  H   H1008     1.0  0.479209168586636  0.4742267825841798  0.20989808602004376  1.0000
  H   H1009     1.0  0.49595307456921783  0.4741644384864001  0.17323027871959878  1.0000
  H   H1010     1.0  0.47853893351009885  0.39295458535549055  0.14030557640154434  1.0000
  H   H1011     1.0  0.4818872225397076  0.4417303046696848  0.11916854225231106  1.0000
  H   H1012     1.0  0.45563233079294757  0.4156284616343243  0.11743120087551084  1.0000
  N   N64       1.0  0.25376883023287167  0.4097758800600734  0.7677003406867939  1.0000
  C   C637      1.0  0.24719940738659937  0.37398880918136357  0.744755942418624  1.0000
  C   C638      1.0  0.23987801297539027  0.41026752167502156  0.7977447293207546  1.0000
  C   C639      1.0  0.25082189562893664  0.4502115341189439  0.7499855604591393  1.0000
  C   C640      1.0  0.27714859269884473  0.4045815624991732  0.7783470013864965  1.0000
  H   H1013     1.0  0.2575046300147655  0.3721475233806515  0.7220016382082795  1.0000
  H   H1014     1.0  0.22972932907550403  0.37726034431228983  0.7358398548626447  1.0000
  H   H1015     1.0  0.24876294719868705  0.3429812672756805  0.7574922793448112  1.0000
  H   H1016     1.0  0.24455542597814364  0.43642708590556867  0.8159352561932904  1.0000
  H   H1017     1.0  0.2221157260411819  0.4143474488590204  0.7907653633381526  1.0000
  H   H1018     1.0  0.2414899248790552  0.37999565094228016  0.8114943437339808  1.0000
  H   H1019     1.0  0.2554513095474649  0.47801078310920153  0.7665687162604926  1.0000
  H   H1020     1.0  0.23339039169497333  0.4549268104410652  0.7412785152898594  1.0000
  H   H1021     1.0  0.2611428119941734  0.45101015263708966  0.72723989798599  1.0000
  H   H1022     1.0  0.28264061367117416  0.4308121558682423  0.7959911479502437  1.0000
  H   H1023     1.0  0.2882392491789928  0.40412552275445573  0.7564664567666132  1.0000
  H   H1024     1.0  0.2799299059983985  0.3743624794416653  0.79177818261833  1.0000
