data_image0
_chemical_formula_structural       FeS2FeS2FeSFeS3FeS2FeS2FeSFeS3FeS2FeS2FeSFeS3FeS2FeS2FeSFeS3FeS2FeS2FeSFeS3FeS2FeS2FeSFeS3FeS2FeS2FeSFeS3FeS2FeS2FeSFeS3FeS2FeS2FeSFeS3FeS2FeS2FeSFeS3FeS2FeS2FeSFeS3FeS2FeS2FeSFeS3C6H4C6H4C6H4C6H4C6H4C6H4C6H4C6H4C6H4C6H4C6H4C6H4C6H4C6H4C6H4C6H4C6H4C6H4C6H4C6H4C6H4C6H4C6H4C6H4NC4H12NC4H12NC4H12NC4H12NC4H12NC4H12NC4H12NC4H12NC4H12NC4H12NC4H12NC4H12NC4H12NC4H12NC4H12NC4H12NC4H12NC4H12NC4H12NC4H12NC4H12NC4H12NC4H12NC4H12
_chemical_formula_sum              "Fe48 S96 C240 H384 N24"
_cell_length_a       36.57867810429694
_cell_length_b       35.881099009728736
_cell_length_c       36.90654443225149
_cell_angle_alpha    89.68437296399514
_cell_angle_beta     89.95270986153159
_cell_angle_gamma    96.03786171650033

_space_group_name_H-M_alt    "P 1"
_space_group_IT_number       1

loop_
  _space_group_symop_operation_xyz
  'x, y, z'

loop_
  _atom_site_type_symbol
  _atom_site_label
  _atom_site_symmetry_multiplicity
  _atom_site_fract_x
  _atom_site_fract_y
  _atom_site_fract_z
  _atom_site_occupancy
  Fe  Fe1       1.0  0.05067030414677589  0.27447257718309137  0.5208225187445145  1.0000
  S   S1        1.0  0.9928304096673733  0.2657078335812222  0.5423171278371789  1.0000
  S   S2        1.0  0.09677235809657993  0.24525659390248872  0.54575369792347  1.0000
  Fe  Fe2       1.0  0.03252970176204406  0.3327393966082885  0.4652354050877453  1.0000
  S   S3        1.0  0.9732602863326846  0.3284057867031325  0.48141500994493147  1.0000
  S   S4        1.0  0.06153919475602354  0.3718135039696573  0.4232855353882898  1.0000
  Fe  Fe3       1.0  0.9936151021208365  0.3284467762338295  0.5388605294882709  1.0000
  S   S5        1.0  0.9611047667093413  0.3606269017743304  0.5782412104527487  1.0000
  Fe  Fe4       1.0  0.9762820815349231  0.26621463950593177  0.4837919619742019  1.0000
  S   S6        1.0  0.9294611779441674  0.22923413514110874  0.45810373568898577  1.0000
  S   S7        1.0  0.053053109323414005  0.3374852522682626  0.522710874352104  1.0000
  S   S8        1.0  0.03414767833823351  0.2704071313958008  0.4623014633100557  1.0000
  Fe  Fe5       1.0  0.9918383126801312  0.5058128516157586  0.27540688442424055  1.0000
  S   S9        1.0  0.05127534419414563  0.5285241863139754  0.27546203720647616  1.0000
  S   S10       1.0  0.9693742064097652  0.4535146731274021  0.30650917975185527  1.0000
  Fe  Fe6       1.0  0.9713538672150663  0.5642557581651184  0.21947638809922915  1.0000
  S   S11       1.0  0.02991499817858978  0.5903168393711171  0.21543563913321342  1.0000
  S   S12       1.0  0.9298160232304044  0.5946666821419636  0.18823417459341665  1.0000
  Fe  Fe7       1.0  0.04524345473210983  0.5313022443206278  0.21480746392573374  1.0000
  S   S13       1.0  0.08130901455805555  0.5004668538004966  0.17757891673188675  1.0000
  Fe  Fe8       1.0  0.02985479681923331  0.5850599634654398  0.27636724010169167  1.0000
  S   S14       1.0  0.05436421953654014  0.6335811302399796  0.3108918863096757  1.0000
  S   S15       1.0  0.9864635711588304  0.5056222324393016  0.21464407168903327  1.0000
  S   S16       1.0  0.9705500262914944  0.5621975696364903  0.2803998771603275  1.0000
  Fe  Fe9       1.0  0.027121100175540702  0.8239080755974643  0.4779560536172253  1.0000
  S   S17       1.0  0.010721337184838253  0.8255403188799327  0.5362319435460312  1.0000
  S   S18       1.0  0.061947076742770224  0.8720890474196017  0.45107888348409536  1.0000
  Fe  Fe10      1.0  0.9768950524720529  0.7526957695010027  0.4637400473435705  1.0000
  S   S19       1.0  0.9552290089969787  0.7497134821864012  0.5210644948605345  1.0000
  S   S20       1.0  0.9538241371570422  0.70747554753815  0.4249338929961287  1.0000
  Fe  Fe11      1.0  0.9531199108917252  0.8119394513550604  0.5158653616183765  1.0000
  S   S21       1.0  0.9111968684171686  0.8443503889646918  0.5438906340620535  1.0000
  Fe  Fe12      1.0  0.014250330004120348  0.7634085136073872  0.5366722600310594  1.0000
  S   S22       1.0  0.041675772520232135  0.7380020415455271  0.5846731871013745  1.0000
  S   S23       1.0  0.9691358905350451  0.8138253621803704  0.457259692971384  1.0000
  S   S24       1.0  0.036358202871616334  0.7628516955809894  0.479669478379801  1.0000
  Fe  Fe13      1.0  0.9801518589062684  0.5806176577387896  0.7286719719429807  1.0000
  S   S25       1.0  0.9544327973209085  0.5207874993810293  0.7312004781261375  1.0000
  S   S26       1.0  0.9546238693430076  0.6148409991660851  0.6853007306369823  1.0000
  Fe  Fe14      1.0  0.035869170327976346  0.5668803552907367  0.7882220386898482  1.0000
  S   S27       1.0  0.014477353158946604  0.5063977859468997  0.7939538677159352  1.0000
  S   S28       1.0  0.08533603350734253  0.5924359400092335  0.8201122855476911  1.0000
  Fe  Fe15      1.0  0.012333433775969294  0.5058293188807933  0.7331146991874217  1.0000
  S   S29       1.0  0.040989343332110906  0.4649798168142524  0.6992401780986417  1.0000
  Fe  Fe16      1.0  0.9585698028552576  0.5274884829667467  0.7917917346981048  1.0000
  S   S30       1.0  0.914289225841099  0.502209409674117  0.8306468419041525  1.0000
  S   S31       1.0  0.03787692547241718  0.5652086200068859  0.7272734146447662  1.0000
  S   S32       1.0  0.980095906948195  0.5884353244433523  0.7893205347780017  1.0000
  Fe  Fe17      1.0  0.23254005175840853  0.5496168126390959  0.029615029022937753  1.0000
  S   S33       1.0  0.21912470067787665  0.4895549009823043  0.01373081421969169  1.0000
  S   S34       1.0  0.20150352437201915  0.5813222969520871  0.07063052838410142  1.0000
  Fe  Fe18      1.0  0.2924750960231978  0.5631023360874293  0.9717763894322489  1.0000
  S   S35       1.0  0.2824433194350042  0.5042596572733364  0.950390594301301  1.0000
  S   S36       1.0  0.33848582378239067  0.6011675849073682  0.9456803597215244  1.0000
  Fe  Fe19      1.0  0.2223213424093416  0.5118101252217807  0.9564963454318532  1.0000
  S   S37       1.0  0.17559030874039075  0.48974599434500804  0.9193321927711844  1.0000
  Fe  Fe20      1.0  0.28033419525988795  0.48741224580824993  0.008993395556959438  1.0000
  S   S38       1.0  0.3117579546128388  0.44271708416558864  0.034700654207441284  1.0000
  S   S39       1.0  0.2326451745512355  0.5720877505079196  0.9725232153756509  1.0000
  S   S40       1.0  0.293551219213529  0.5460003704460068  0.03016863372385248  1.0000
  Fe  Fe21      1.0  0.4578494320614785  0.30826725395271054  0.9801278560993278  1.0000
  S   S41       1.0  0.4757346103667987  0.3105178425677078  0.03824815143379516  1.0000
  S   S42       1.0  0.4173385948581769  0.3417980175804346  0.9507192563090657  1.0000
  Fe  Fe22      1.0  0.5136260814103997  0.25434753567245205  0.9594387046937076  1.0000
  S   S43       1.0  0.5369704786287359  0.2527234684673645  0.01566069478481813  1.0000
  S   S44       1.0  0.5398042160280232  0.22575997849809662  0.9128742544636759  1.0000
  Fe  Fe23      1.0  0.4783321000701595  0.24827821338607908  0.033957293482692635  1.0000
  S   S45       1.0  0.4559664385647321  0.2095516073657264  0.07930269311639439  1.0000
  Fe  Fe24      1.0  0.5333863992201711  0.3148275099932308  0.016318529508872942  1.0000
  S   S46       1.0  0.5764553587563693  0.35270460482733956  0.04614963556253815  1.0000
  S   S47       1.0  0.4547512557957881  0.24516102816880053  0.9775085740909218  1.0000
  S   S48       1.0  0.5155921955597838  0.31717429032347844  0.9584236241378681  1.0000
  Fe  Fe25      1.0  0.5470094711268881  0.7756070384107812  0.9785982382193132  1.0000
  S   S49       1.0  0.489547614788051  0.7671189891574469  0.9560168277056632  1.0000
  S   S50       1.0  0.5937315016085687  0.7465568485106276  0.9548778263947978  1.0000
  Fe  Fe26      1.0  0.5276562701131858  0.8338200339159347  0.03341350159719165  1.0000
  S   S51       1.0  0.46873687598367647  0.8295053394541221  0.015982437739262334  1.0000
  S   S52       1.0  0.5558588313875089  0.8725620807829726  0.07576072251386441  1.0000
  Fe  Fe27      1.0  0.4720011599979115  0.7673125305258937  0.014244737489404136  1.0000
  S   S53       1.0  0.42512616061611025  0.7293702086225722  0.03886911170742868  1.0000
  Fe  Fe28      1.0  0.49062559557979113  0.8298539329448477  0.9590430450688701  1.0000
  S   S54       1.0  0.45989070076247884  0.8623796773164847  0.9182052908446411  1.0000
  S   S55       1.0  0.5293031252543305  0.771397513084995  0.036798771920084  1.0000
  S   S56       1.0  0.5496643054463984  0.8386550166013711  0.9763954579401163  1.0000
  Fe  Fe29      1.0  0.7154999057769339  0.5190799312834886  0.9878502608919795  1.0000
  S   S57       1.0  0.7121292112545742  0.5363068386272263  0.045943312585870276  1.0000
  S   S58       1.0  0.6799684378135188  0.47422890881170154  0.9573287019773724  1.0000
  Fe  Fe30      1.0  0.7798729762109683  0.5777694114206733  0.971431543684955  1.0000
  S   S59       1.0  0.7812889848592613  0.600743892065833  0.028160080382442887  1.0000
  S   S60       1.0  0.8200257455003966  0.6020928501131122  0.9284529356956541  1.0000
  Fe  Fe31      1.0  0.77401463941475  0.5403183074310609  0.04559657666803178  1.0000
  S   S61       1.0  0.8086383960860799  0.5109699997097402  0.08553952270642502  1.0000
  Fe  Fe32      1.0  0.7193766748953083  0.5954513022053533  0.023872952775142897  1.0000
  S   S62       1.0  0.6833701647673607  0.6371687758583359  0.047683047677813395  1.0000
  S   S63       1.0  0.7766675826435776  0.5179100197216904  0.9890583808985278  1.0000
  S   S64       1.0  0.718730541202913  0.5778562980727853  0.9656508777400284  1.0000
  Fe  Fe33      1.0  0.48047655295229347  0.07808908782352575  0.7644031139387706  1.0000
  S   S65       1.0  0.4569214792024421  0.017623573470050058  0.7632105733800878  1.0000
  S   S66       1.0  0.4519770796393733  0.11185249878333242  0.8054843618650523  1.0000
  Fe  Fe34      1.0  0.5378337242039033  0.06612565249623303  0.7060688583525939  1.0000
  S   S67       1.0  0.5186594277359972  0.005020020289524751  0.7015681731847297  1.0000
  S   S68       1.0  0.587822542267139  0.0927776200175948  0.6754681443045722  1.0000
  Fe  Fe35      1.0  0.46183202539677864  0.023857731768871515  0.7026245616433704  1.0000
  S   S69       1.0  0.4193098873567739  0.997199795602477  0.6633829643362298  1.0000
  Fe  Fe36      1.0  0.5155977033300377  0.00508863433010287  0.7623158690108404  1.0000
  S   S70       1.0  0.5443734990594634  0.9653832573552097  0.797686606180677  1.0000
  S   S71       1.0  0.4811616637895742  0.08533882945873754  0.7036745540401711  1.0000
  S   S72       1.0  0.5390540506965873  0.0651982804324591  0.7669477608745827  1.0000
  Fe  Fe37      1.0  0.22171247823658674  0.09553065973161458  0.4763055469965773  1.0000
  S   S73       1.0  0.22155165092705315  0.07770083019548459  0.5346673337957214  1.0000
  S   S74       1.0  0.18610274688519285  0.1373877637677711  0.4521002954167086  1.0000
  Fe  Fe38      1.0  0.2723935960090643  0.03695180780999546  0.4534946189874428  1.0000
  S   S75       1.0  0.2756876044085385  0.01459689120475094  0.510151094503604  1.0000
  S   S76       1.0  0.2999115773317177  0.00375588671630056  0.4110888033533058  1.0000
  Fe  Fe39      1.0  0.21510147522528497  0.019046631895013322  0.5131257119378099  1.0000
  S   S77       1.0  0.1806359181032191  0.9722846238858008  0.5425271867256883  1.0000
  Fe  Fe40      1.0  0.28226505879685815  0.07476591666395412  0.5269013657093666  1.0000
  S   S78       1.0  0.32174833502233396  0.09859973290094766  0.5702942777371733  1.0000
  S   S79       1.0  0.2109460593951984  0.03670260759478072  0.4551409956197088  1.0000
  S   S80       1.0  0.283278498010574  0.09743525373882736  0.46980665628501084  1.0000
  Fe  Fe41      1.0  0.5257292921011741  0.08238463882149817  0.22633049413944914  1.0000
  S   S81       1.0  0.4667075475678383  0.06179877115954957  0.21670563036914203  1.0000
  S   S82       1.0  0.5548364228204902  0.12570008516577785  0.1881171691897619  1.0000
  Fe  Fe42      1.0  0.5319558423944892  0.028615991009247388  0.29035084514546633  1.0000
  S   S83       1.0  0.4731306751914729  0.0037212773891102113  0.2840107820569222  1.0000
  S   S84       1.0  0.5595877071393449  0.0039313814404906555  0.3389020879641213  1.0000
  Fe  Fe43      1.0  0.4850032562364621  0.004440209620150348  0.2241714743304122  1.0000
  S   S85       1.0  0.4608898970045369  0.95946430245587  0.1854115328029618  1.0000
  Fe  Fe44      1.0  0.460629997295217  0.06302402391145345  0.27704963380965064  1.0000
  S   S86       1.0  0.4163013732577973  0.09150975230950542  0.30521633154282257  1.0000
  S   S87       1.0  0.544758176816701  0.02464597293742532  0.23069200028497863  1.0000
  S   S88       1.0  0.5187146791789289  0.0882163501634413  0.28659844498515286  1.0000
  Fe  Fe45      1.0  0.7875791124907336  0.06875489201286578  0.5234938461167933  1.0000
  S   S89       1.0  0.7794180046856687  0.009440667648040524  0.5449094572305503  1.0000
  S   S90       1.0  0.8280553842788885  0.11082955220187317  0.5515902464008122  1.0000
  Fe  Fe46      1.0  0.7316931991555873  0.05264995302764475  0.46266863660161406  1.0000
  S   S91       1.0  0.7197812517434355  0.9926621528570251  0.47917527758673745  1.0000
  S   S92       1.0  0.705755547074195  0.07799377976007205  0.4138258864182701  1.0000
  Fe  Fe47      1.0  0.7192802252045829  0.01490360404703095  0.5359371806905231  1.0000
  S   S93       1.0  0.6707360545372861  0.9909560763212508  0.5697993992372752  1.0000
  Fe  Fe48      1.0  0.7808885122017097  0.9929491180634785  0.4862746283469744  1.0000
  S   S94       1.0  0.8113260580879872  0.9496455487689117  0.45736491044207955  1.0000
  S   S95       1.0  0.727287807734824  0.07531204018211733  0.5189506774734577  1.0000
  S   S96       1.0  0.7929693031984665  0.051961462585515594  0.4656465766134368  1.0000
  C   C1        1.0  0.6001146895078826  0.02519562306115808  0.3593335976879252  1.0000
  C   C2        1.0  0.6142492935560585  0.007894714936168556  0.3897667388824982  1.0000
  C   C3        1.0  0.6465396051314968  0.02379538898731437  0.4067831684813092  1.0000
  C   C4        1.0  0.6649815498994526  0.057168387805633936  0.39343786421259974  1.0000
  C   C5        1.0  0.6507191276491326  0.0746147507605357  0.3631902008023981  1.0000
  C   C6        1.0  0.6183620507165699  0.058735942251983975  0.3461836708463813  1.0000
  H   H1        1.0  0.6003141220535427  0.9818450431720872  0.3999923327155665  1.0000
  H   H2        1.0  0.6571879062877826  0.01008184084353303  0.43005368261627375  1.0000
  H   H3        1.0  0.6647707906848227  0.10052705141546969  0.3527579147862534  1.0000
  H   H4        1.0  0.607675838098015  0.07232844697937835  0.3227884881705922  1.0000
  C   C7        1.0  0.3314257888191907  0.02839510366364069  0.3809947159676994  1.0000
  C   C8        1.0  0.35022712722908944  0.008489514797817233  0.3555380993940953  1.0000
  C   C9        1.0  0.37615753963882104  0.027497111327136947  0.33187012869291055  1.0000
  C   C10       1.0  0.38328730628036944  0.06652984263535955  0.33350032312694905  1.0000
  C   C11       1.0  0.36425977437087814  0.08636355939865618  0.35871274996550767  1.0000
  C   C12       1.0  0.3385500509172512  0.06738922288183845  0.38248128618700905  1.0000
  H   H5        1.0  0.34462649201081147  0.9783349349718945  0.3540167346787274  1.0000
  H   H6        1.0  0.39020456980843754  0.012072590616587497  0.31203155759251966  1.0000
  H   H7        1.0  0.36948526507732676  0.11658728530994611  0.3599473929975614  1.0000
  H   H8        1.0  0.3240895688171523  0.0830418152404173  0.4017588268033876  1.0000
  C   C13       1.0  0.6102697691021174  0.06507423213444077  0.6449627611577765  1.0000
  C   C14       1.0  0.5929643767185291  0.031110627363410526  0.6321645711502244  1.0000
  C   C15       1.0  0.6118523876846542  0.008712002131332497  0.6090925151029083  1.0000
  C   C16       1.0  0.6479894338520026  0.02036162661335217  0.5981479662463013  1.0000
  C   C17       1.0  0.665200406210649  0.054633226242533306  0.6103726074995834  1.0000
  C   C18       1.0  0.6463458728959576  0.07691646815958439  0.633757045218715  1.0000
  H   H9        1.0  0.5649062221172378  0.022168612507498908  0.6398213374636168  1.0000
  H   H10       1.0  0.5983451601825602  0.982277916902241  0.5995898483307168  1.0000
  H   H11       1.0  0.6931949131131904  0.06370959777989874  0.6022789994740694  1.0000
  H   H12       1.0  0.6599101200820896  0.10320181919686246  0.6435543432046817  1.0000
  C   C19       1.0  0.39390947590250264  0.026172991974214802  0.6364960946292255  1.0000
  C   C20       1.0  0.3931631219400769  0.0641867895024555  0.6442574452642957  1.0000
  C   C21       1.0  0.3716769852812113  0.08624951193558297  0.6231131327760173  1.0000
  C   C22       1.0  0.3508541929015037  0.0705722295056899  0.5939910769054958  1.0000
  C   C23       1.0  0.35205327258538593  0.03268755534248919  0.5858437562131242  1.0000
  C   C24       1.0  0.3732329674910732  0.010513582851173764  0.6072387566196985  1.0000
  H   H13       1.0  0.40865966903067175  0.07650243246959398  0.6669004577324844  1.0000
  H   H14       1.0  0.3708834733523984  0.11552471090110061  0.6296332348903422  1.0000
  H   H15       1.0  0.33655775336732485  0.020373261220261174  0.563229858398496  1.0000
  H   H16       1.0  0.3737869639870877  0.9811442551256498  0.6010220385133515  1.0000
  C   C25       1.0  0.5291931262065264  0.8964219127119555  0.10625872786402665  1.0000
  C   C26       1.0  0.4908656509863171  0.8894999189330449  0.10718347216093792  1.0000
  C   C27       1.0  0.47042934625463384  0.9086395888920946  0.1319644798872742  1.0000
  C   C28       1.0  0.488044408576457  0.9349279789304983  0.15597585470399433  1.0000
  C   C29       1.0  0.5263835712744616  0.9420724573861139  0.15491768716334825  1.0000
  C   C30       1.0  0.5468519689220016  0.9228129147987144  0.13019577459375747  1.0000
  H   H17       1.0  0.4769390714913181  0.8690708649394635  0.08912595847751614  1.0000
  H   H18       1.0  0.44078927884427843  0.9029187471463584  0.1326148042938906  1.0000
  H   H19       1.0  0.5403054628504164  0.9621759897688995  0.1732886895675819  1.0000
  H   H20       1.0  0.576495219318815  0.928289538307856  0.12971948116144394  1.0000
  C   C31       1.0  0.4837767861713415  0.890680862345066  0.8847267870507654  1.0000
  C   C32       1.0  0.4637231643261819  0.9095439191153416  0.8593073396828942  1.0000
  C   C33       1.0  0.481907619421237  0.9325216059960363  0.8324172694621563  1.0000
  C   C34       1.0  0.5203238108165594  0.9367336446194191  0.8308062155683399  1.0000
  C   C35       1.0  0.5403477526173535  0.9179457889903934  0.8562505903487381  1.0000
  C   C36       1.0  0.5221716660145074  0.8950401663891171  0.883164160591964  1.0000
  H   H21       1.0  0.4339973369287791  0.9061497561378397  0.8602512238621486  1.0000
  H   H22       1.0  0.46618578650684617  0.9465116141608059  0.8126954056079533  1.0000
  H   H23       1.0  0.5700676370334182  0.9209591202464711  0.8551158861963091  1.0000
  H   H24       1.0  0.5378688766758678  0.8805473726209287  0.9025251293730768  1.0000
  C   C37       1.0  0.6164505367993116  0.7136051975954777  0.9799263909932613  1.0000
  C   C38       1.0  0.6055557963951891  0.7029588273207525  0.015149650767363854  1.0000
  C   C39       1.0  0.6259019019083922  0.6789154240083864  0.0353504392485271  1.0000
  C   C40       1.0  0.6567575313584232  0.6645494786718943  0.020236029200666472  1.0000
  C   C41       1.0  0.6669253944435808  0.6741787741273175  0.9845778541926118  1.0000
  C   C42       1.0  0.6469791247213729  0.6988209927736795  0.9646249680757693  1.0000
  H   H25       1.0  0.5815733422527564  0.7133305817555415  0.0268745481360555  1.0000
  H   H26       1.0  0.6177024339343419  0.6713075640772285  0.0628116260670264  1.0000
  H   H27       1.0  0.6907374397060392  0.6634458921648728  0.9727283820883876  1.0000
  H   H28       1.0  0.6555112701258986  0.706791012655689  0.9373444579800614  1.0000
  C   C43       1.0  0.48427008718820924  0.18662255035750663  0.10897046308918305  1.0000
  C   C44       1.0  0.5218729301482509  0.18567986355870159  0.1024842379877166  1.0000
  C   C45       1.0  0.5433308421057671  0.16693208107001242  0.12691241119364635  1.0000
  C   C46       1.0  0.5273760638670373  0.1491179282015122  0.15794870804172328  1.0000
  C   C47       1.0  0.489824549781574  0.1501057606074046  0.16431633602982484  1.0000
  C   C48       1.0  0.4683830400277755  0.1686030420134289  0.1398612106725558  1.0000
  H   H29       1.0  0.5343741523841028  0.19913745456459522  0.078598108951906  1.0000
  H   H30       1.0  0.5723636360444629  0.166147736144918  0.12171696242314094  1.0000
  H   H31       1.0  0.4773281894421972  0.13731562909914105  0.1885018890365127  1.0000
  H   H32       1.0  0.4393556851664538  0.16936990067020177  0.1451897415246937  1.0000
  C   C49       1.0  0.515484898735044  0.1921567531049644  0.8847939442733481  1.0000
  C   C50       1.0  0.5336293862865875  0.1782426884528611  0.8550270356020137  1.0000
  C   C51       1.0  0.5146185119707521  0.15314675832164187  0.8307326360064778  1.0000
  C   C52       1.0  0.47716762050889183  0.14225280766644946  0.8358482515595601  1.0000
  C   C53       1.0  0.459122896775182  0.15568209270473599  0.8659196462051686  1.0000
  C   C54       1.0  0.4783246927116514  0.1801649639512208  0.8906105164183501  1.0000
  H   H33       1.0  0.5624289518121308  0.18736186968050625  0.8504318546496895  1.0000
  H   H34       1.0  0.5287420078322977  0.14298954855232818  0.8075984482855478  1.0000
  H   H35       1.0  0.43017162859152147  0.1470767882546284  0.8701417895668623  1.0000
  H   H36       1.0  0.46427623202275153  0.19003244577471073  0.9138950058237951  1.0000
  C   C55       1.0  0.6048545653402881  0.38649894408675695  0.021096705777827518  1.0000
  C   C56       1.0  0.6034874479689022  0.38783256984461856  0.9832362893468845  1.0000
  C   C57       1.0  0.6266381460526393  0.41485813183197234  0.9640013005916144  1.0000
  C   C58       1.0  0.6511815443923914  0.44084224347231343  0.9824552878768834  1.0000
  C   C59       1.0  0.6525463061904466  0.4395215548876808  0.020311558542448926  1.0000
  C   C60       1.0  0.6295152426950074  0.41237653363263177  0.03953795752494127  1.0000
  H   H37       1.0  0.5848203529060676  0.36790716384963884  0.9687441678008986  1.0000
  H   H38       1.0  0.6255023834906835  0.41561246061675977  0.9347377785347883  1.0000
  H   H39       1.0  0.6714710317520742  0.4592368154973237  0.034814675593035416  1.0000
  H   H40       1.0  0.6308282854297306  0.41150792174852824  0.06879927903312621  1.0000
  C   C61       1.0  0.4024975665803202  0.6923938657574521  0.013539111440497686  1.0000
  C   C62       1.0  0.4166476254101037  0.6813052912785144  0.9805630079035064  1.0000
  C   C63       1.0  0.3968588172458307  0.6530878552377495  0.960042864197544  1.0000
  C   C64       1.0  0.36299185731570377  0.6356859911892896  0.9724959423663277  1.0000
  C   C65       1.0  0.3492601396691113  0.6461540959303885  0.0058576274871531275  1.0000
  C   C66       1.0  0.36898957947027244  0.6744408693542117  0.0262924452853186  1.0000
  H   H41       1.0  0.4427121800613056  0.6945808270832259  0.9707701967022562  1.0000
  H   H42       1.0  0.4077408424443884  0.6448697099172873  0.9343550465181466  1.0000
  H   H43       1.0  0.323201104016436  0.63282932017249  0.015737048379001906  1.0000
  H   H44       1.0  0.3580041138442802  0.6827658345263723  0.05191050313077395  1.0000
  C   C67       1.0  0.3409833512835956  0.4150676630072706  0.010695253292160256  1.0000
  C   C68       1.0  0.3630960942612245  0.39235729855890095  0.03030166467653582  1.0000
  C   C69       1.0  0.38689840999139113  0.3701341812695079  0.012328433432709616  1.0000
  C   C70       1.0  0.38862791797228485  0.37023676241371783  0.9744737010112633  1.0000
  C   C71       1.0  0.36673036499121886  0.39319244600713243  0.9548351924857048  1.0000
  C   C72       1.0  0.34310879241685915  0.4156391750380543  0.9728338035874611  1.0000
  H   H45       1.0  0.3616504887549009  0.39176323980670125  0.05958872356646855  1.0000
  H   H46       1.0  0.4034839647235152  0.3525328389603003  0.027780547017821886  1.0000
  H   H47       1.0  0.36780477479876444  0.3933956746313322  0.9255525777025764  1.0000
  H   H48       1.0  0.32616876544233464  0.432904545485579  0.9574163676747361  1.0000
  C   C73       1.0  0.888777917866487  0.5304803484366967  0.8580156494801413  1.0000
  C   C74       1.0  0.8633110403218845  0.5132202393486766  0.8830519903441161  1.0000
  C   C75       1.0  0.8422605923281906  0.5348282234621436  0.9049973200226143  1.0000
  C   C76       1.0  0.8464344052416813  0.5739142457340094  0.9020021510656795  1.0000
  C   C77       1.0  0.8719311021170808  0.5911620103542642  0.8770918523544917  1.0000
  C   C78       1.0  0.8930633095323108  0.5695763332463192  0.8552134363032486  1.0000
  H   H49       1.0  0.859837554050652  0.4829690554901186  0.8853328496683696  1.0000
  H   H50       1.0  0.8226667062527755  0.5212175074020042  0.9239483304875451  1.0000
  H   H51       1.0  0.8752752029293364  0.6213962065144976  0.8745287790843309  1.0000
  H   H52       1.0  0.912412447139833  0.5832129803737623  0.8359571803849236  1.0000
  C   C79       1.0  0.1088909891922862  0.5648645295508156  0.8502780411401906  1.0000
  C   C80       1.0  0.14370256703314985  0.5788460974289142  0.8632956289886119  1.0000
  C   C81       1.0  0.16414399362786747  0.5565157548245913  0.885358331268631  1.0000
  C   C82       1.0  0.14987092683396167  0.5199716986590123  0.8944453175304131  1.0000
  C   C83       1.0  0.11469976291405388  0.5063368172369472  0.8821989931563597  1.0000
  C   C84       1.0  0.0941538111609806  0.5288117393737214  0.860521700528666  1.0000
  H   H53       1.0  0.15527702158386544  0.6067686641758385  0.8555773967216324  1.0000
  H   H54       1.0  0.1913595175063625  0.5671991718363623  0.8944135065731484  1.0000
  H   H55       1.0  0.10339052465242099  0.4781565387586244  0.8893402169595683  1.0000
  H   H56       1.0  0.06701201799975852  0.5181197496455003  0.8515568876104143  1.0000
  C   C85       1.0  0.09263023277668882  0.9008698194433593  0.47810718508647937  1.0000
  C   C86       1.0  0.10824454194283235  0.9353004218228056  0.4640656785102582  1.0000
  C   C87       1.0  0.13412506224842993  0.9581698562322574  0.48429049182649414  1.0000
  C   C88       1.0  0.14511337172984645  0.9463650658250387  0.5183728849902137  1.0000
  C   C89       1.0  0.12872670407776754  0.9123921914519029  0.5328387327157709  1.0000
  C   C90       1.0  0.10246480204104857  0.8896926641947209  0.5127862511885672  1.0000
  H   H57       1.0  0.10051246904710229  0.9442117852812201  0.4373341637944171  1.0000
  H   H58       1.0  0.14587855472541533  0.9847271913072358  0.4732790414371053  1.0000
  H   H59       1.0  0.1369851787528789  0.9031445074230956  0.5592751836730787  1.0000
  H   H60       1.0  0.09066829883182785  0.8630814671618553  0.5237625620564514  1.0000
  C   C91       1.0  0.8841004783888385  0.8738119992797009  0.5192603998205699  1.0000
  C   C92       1.0  0.8647459555329527  0.8994088311811822  0.5381355001282229  1.0000
  C   C93       1.0  0.8426506386950934  0.9230400663968557  0.5194988053707416  1.0000
  C   C94       1.0  0.839459576607533  0.9210285575512747  0.4817789933999022  1.0000
  C   C95       1.0  0.8590484459060712  0.895608152099964  0.46286148912284386  1.0000
  C   C96       1.0  0.8813867116641984  0.8721764568584568  0.48147734994875724  1.0000
  H   H61       1.0  0.8666435772541632  0.9008847055513685  0.5673508487136755  1.0000
  H   H62       1.0  0.8277245733418785  0.9424727059446907  0.5343832662494692  1.0000
  H   H63       1.0  0.8566379290011599  0.8937415513225152  0.433701371708538  1.0000
  H   H64       1.0  0.8958572314895085  0.8523428232783195  0.46663229505016873  1.0000
  C   C97       1.0  0.018285650118336605  0.7018168769190486  0.6111204416543966  1.0000
  C   C98       1.0  0.034668677939866166  0.6900096299294441  0.6430148413688197  1.0000
  C   C99       1.0  0.015846332237748673  0.6627142036268724  0.6657015967443547  1.0000
  C   C100      1.0  0.9803154443224229  0.6473711757114878  0.6567424961810551  1.0000
  C   C101      1.0  0.9642019053539065  0.6586528403315497  0.6245202890194117  1.0000
  C   C102      1.0  0.983250669638953  0.6854855270863969  0.6016017547031022  1.0000
  H   H65       1.0  0.061851943818183874  0.7024346331492324  0.650469541687144  1.0000
  H   H66       1.0  0.028486219278505205  0.6542460434705355  0.6905085208556607  1.0000
  H   H67       1.0  0.9368213334679589  0.6466310434431503  0.6172849434228485  1.0000
  H   H68       1.0  0.9708023704802774  0.6936365854814449  0.5766568032175414  1.0000
  C   C103      1.0  0.11511613217864763  0.523562345889519  0.14866569384434875  1.0000
  C   C104      1.0  0.12216485425951759  0.562617181858144  0.1477093415999877  1.0000
  C   C105      1.0  0.14930439448834656  0.579886538143637  0.12422748158995202  1.0000
  C   C106      1.0  0.16946424308218289  0.5583126089933264  0.10145554219919503  1.0000
  C   C107      1.0  0.16236450970664665  0.5192586658080909  0.10241526816965621  1.0000
  C   C108      1.0  0.13529533762684368  0.5019984453517085  0.12592087851176956  1.0000
  H   H69       1.0  0.1069040135598773  0.5794950816472347  0.16521898930584408  1.0000
  H   H70       1.0  0.15467073154874034  0.6101236288595226  0.12369053677528037  1.0000
  H   H71       1.0  0.17786479310582642  0.5023015712475624  0.08525465122681765  1.0000
  H   H72       1.0  0.13012732629608284  0.4717602961550233  0.12661859860714472  1.0000
  C   C109      1.0  0.8962954999880516  0.5709042407639358  0.1598424092129686  1.0000
  C   C110      1.0  0.8914947981905239  0.5317993926796322  0.15802286441617003  1.0000
  C   C111      1.0  0.8640668916889964  0.513844618885911  0.13556311427551337  1.0000
  C   C112      1.0  0.8414645880490141  0.5348050924351643  0.11458567364361737  1.0000
  C   C113      1.0  0.8465007354600338  0.5739334945742934  0.11613334549341964  1.0000
  C   C114      1.0  0.8737654648671864  0.591883285324179  0.1387821279792509  1.0000
  H   H73       1.0  0.908567405277349  0.5153812004019664  0.1742563085723795  1.0000
  H   H74       1.0  0.8602944167709291  0.4835519398050969  0.13448825697861352  1.0000
  H   H75       1.0  0.8291205643505778  0.5903392983696664  0.10024927141581726  1.0000
  H   H76       1.0  0.8772574810410604  0.6221510741738059  0.1401508600596095  1.0000
  C   C115      1.0  0.02759082751493036  0.6522900850421153  0.3449649662850716  1.0000
  C   C116      1.0  0.04006267342077052  0.6867993238388501  0.3608118871697019  1.0000
  C   C117      1.0  0.01825812129527704  0.7034740452262405  0.38631600603305327  1.0000
  C   C118      1.0  0.9836435531127655  0.6858308063791185  0.3959315039955805  1.0000
  C   C119      1.0  0.9714475279335115  0.6510380453309998  0.3805424591840797  1.0000
  C   C120      1.0  0.9934672296083542  0.6341687721019147  0.3554593422990352  1.0000
  H   H77       1.0  0.06651835284967145  0.7009178251242423  0.35300965504459014  1.0000
  H   H78       1.0  0.027901273581847408  0.7303335883054564  0.3979213749923442  1.0000
  H   H79       1.0  0.9448625222544174  0.6370548801981781  0.3881107751235641  1.0000
  H   H80       1.0  0.9840348882033976  0.6071131394608784  0.3443480103608617  1.0000
  C   C121      1.0  0.15986287015194386  0.164674155156223  0.47967490694047166  1.0000
  C   C122      1.0  0.12914762799892576  0.17946985398148627  0.4647063592836374  1.0000
  C   C123      1.0  0.10880171082207875  0.2030532479639834  0.48517918510942737  1.0000
  C   C124      1.0  0.11961708532653917  0.21290449624813573  0.5204760113739954  1.0000
  C   C125      1.0  0.15010714610918152  0.19780882452825232  0.5355927173903704  1.0000
  C   C126      1.0  0.17002631108602698  0.17354506023949068  0.5153833997587708  1.0000
  H   H81       1.0  0.12096633955594703  0.17245623536961124  0.4372028393828493  1.0000
  H   H82       1.0  0.0848204589894411  0.2136136553447718  0.47362265630959255  1.0000
  H   H83       1.0  0.15858607605736288  0.2052065002630677  0.5629274242692608  1.0000
  H   H84       1.0  0.1937884662084232  0.16250631332696044  0.527086045318174  1.0000
  C   C127      1.0  0.9035209201194919  0.19388540617211827  0.4834652794277492  1.0000
  C   C128      1.0  0.9124890444239044  0.18597194179744617  0.5193185461231484  1.0000
  C   C129      1.0  0.8892369915434515  0.16029503934880743  0.5399075276707279  1.0000
  C   C130      1.0  0.8574356500046125  0.14157355706607597  0.524506283487524  1.0000
  C   C131      1.0  0.8489818707305943  0.1486851478676269  0.4883389062319829  1.0000
  C   C132      1.0  0.8718907708463708  0.17489273334449026  0.46795660582184273  1.0000
  H   H85       1.0  0.9371647030614644  0.19980535237592176  0.531338403198758  1.0000
  H   H86       1.0  0.8960396828637627  0.1546911301957468  0.5678064811483926  1.0000
  H   H87       1.0  0.8243997794612847  0.13460634781145103  0.47630175879493963  1.0000
  H   H88       1.0  0.8648066980926641  0.1808467387624603  0.4402123795636219  1.0000
  C   C133      1.0  0.9836731019614124  0.38911894963358584  0.6120370731798956  1.0000
  C   C134      1.0  0.9627080592043143  0.40882504428026395  0.6357588528848743  1.0000
  C   C135      1.0  0.9798023617053417  0.4317407277995072  0.663008659509732  1.0000
  C   C136      1.0  0.018067390924021876  0.43528343890387766  0.6665363305891043  1.0000
  C   C137      1.0  0.039016185305241646  0.41554662034419343  0.6428609156252574  1.0000
  C   C138      1.0  0.021916460154146885  0.3925884321881607  0.615660015594682  1.0000
  H   H89       1.0  0.9330836493315211  0.40607014031846644  0.6332494816057669  1.0000
  H   H90       1.0  0.9633279514534178  0.4463627164596244  0.6814252059406064  1.0000
  H   H91       1.0  0.06862620795205696  0.4180470337891293  0.645441590309901  1.0000
  H   H92       1.0  0.0383003540550516  0.37741885017367427  0.5976268671104173  1.0000
  C   C139      1.0  0.0347196496216573  0.39584482281252364  0.392917764524916  1.0000
  C   C140      1.0  0.9984346097018665  0.3822062083607312  0.38480275421141347  1.0000
  C   C141      1.0  0.9785255224737335  0.40063553641450006  0.3588117927647818  1.0000
  C   C142      1.0  0.9944200335447093  0.4331999947288055  0.3412085458577918  1.0000
  C   C143      1.0  0.030371300025680847  0.4474193151881059  0.35012908647988844  1.0000
  C   C144      1.0  0.05060689540904533  0.428461261582852  0.37542309527346496  1.0000
  H   H93       1.0  0.9859370028259417  0.357017011875044  0.3979818339471257  1.0000
  H   H94       1.0  0.950721412416467  0.3894609362526884  0.35216603453858325  1.0000
  H   H95       1.0  0.042737254337299295  0.47290047097537286  0.3374557581953729  1.0000
  H   H96       1.0  0.07855293139334202  0.4393810519319379  0.38176424051387053  1.0000
  N   N1        1.0  0.48033177457883425  0.04467375924888506  0.10547324623442123  1.0000
  C   C145      1.0  0.4896874244418305  0.07622573977946967  0.08004662615577285  1.0000
  C   C146      1.0  0.5104739429898282  0.04318451056672035  0.13189683225130255  1.0000
  C   C147      1.0  0.47524350229938567  0.009012083813551452  0.08533211701294952  1.0000
  C   C148      1.0  0.4459337930811673  0.05028981625540485  0.12480563547023649  1.0000
  H   H97       1.0  0.4674178018657474  0.07859980276546485  0.05991489959314644  1.0000
  H   H98       1.0  0.5155831585638487  0.07305747116725758  0.06508376702997909  1.0000
  H   H99       1.0  0.4937706970908235  0.10341961266196376  0.09469133068115676  1.0000
  H   H100      1.0  0.504427924905683  0.019804423036577923  0.1515662997624947  1.0000
  H   H101      1.0  0.5369696300688309  0.03914963329421606  0.11842949166208538  1.0000
  H   H102      1.0  0.5148128810947622  0.06941292429028989  0.14781932931958197  1.0000
  H   H103      1.0  0.4668735630162373  0.9850155967660376  0.10387802895350107  1.0000
  H   H104      1.0  0.5010992388053537  0.0028763291562392546  0.0717355627992795  1.0000
  H   H105      1.0  0.45342806650967155  0.00939573190991938  0.06441591550477099  1.0000
  H   H106      1.0  0.4485866357894081  0.07725972055300012  0.13986858764597154  1.0000
  H   H107      1.0  0.43845499827532297  0.02733614550837493  0.14483294977729022  1.0000
  H   H108      1.0  0.422431986031746  0.0509088629334471  0.10579473843497866  1.0000
  N   N2        1.0  0.9399168062789213  0.676015544077793  0.2677906746195524  1.0000
  C   C149      1.0  0.9185778089475272  0.6422477197847517  0.2830259046001526  1.0000
  C   C150      1.0  0.9195450779033809  0.6903416405890948  0.2370282673160933  1.0000
  C   C151      1.0  0.9759691402959263  0.6662850757249583  0.25494838042092405  1.0000
  C   C152      1.0  0.9456432802152842  0.7050626566677837  0.29609106585158207  1.0000
  H   H109      1.0  0.9142089032888371  0.61957247198275  0.2624657854990629  1.0000
  H   H110      1.0  0.8910623940260711  0.648408795619748  0.29270660678137134  1.0000
  H   H111      1.0  0.9329897432434865  0.6307862727542991  0.306458568486501  1.0000
  H   H112      1.0  0.9351048289619933  0.7154365136188268  0.22444737165345482  1.0000
  H   H113      1.0  0.9145936929310904  0.6687386227809674  0.21545091376322703  1.0000
  H   H114      1.0  0.8922591883202639  0.6981616248973134  0.24573577718766842  1.0000
  H   H115      1.0  0.9935864233174848  0.6912570128856528  0.244678827267706  1.0000
  H   H116      1.0  0.9728965506040216  0.6454139944409327  0.2327402216178602  1.0000
  H   H117      1.0  0.9913142959773151  0.65378647945027  0.27703204993685093  1.0000
  H   H118      1.0  0.9609684697361759  0.7312373219640296  0.2853810500080128  1.0000
  H   H119      1.0  0.9620208696309739  0.6954449531573521  0.319079438754999  1.0000
  H   H120      1.0  0.9191110878725327  0.7122290753601885  0.3074954819577154  1.0000
  N   N3        1.0  0.4138994935589144  0.5359845412057702  0.00707706933514074  1.0000
  C   C153      1.0  0.4195536697675242  0.5471144439163176  0.9686872919737851  1.0000
  C   C154      1.0  0.4496772214737158  0.5308888366275025  0.023953853093103605  1.0000
  C   C155      1.0  0.38960726537136936  0.5004162363344266  0.009114053546194878  1.0000
  C   C156      1.0  0.39661574601724847  0.5654943415637647  0.026516323367527184  1.0000
  H   H121      1.0  0.39288882486415655  0.5501466968249026  0.9549898655115833  1.0000
  H   H122      1.0  0.4332616095871051  0.525870746275895  0.953334231998547  1.0000
  H   H123      1.0  0.4366788485701036  0.5745531044638468  0.9660827996575397  1.0000
  H   H124      1.0  0.44626359737693827  0.5225435335955212  0.05297245184204824  1.0000
  H   H125      1.0  0.4633662325872498  0.5085986618807742  0.01007628220304202  1.0000
  H   H126      1.0  0.46873918691236977  0.5572081519817434  0.022760114699305944  1.0000
  H   H127      1.0  0.3842145774390646  0.49119284551982056  0.03767553339667051  1.0000
  H   H128      1.0  0.4017128156897483  0.4772931902841798  0.9949336423551722  1.0000
  H   H129      1.0  0.36234794211518895  0.5031505801144749  0.9964899589557052  1.0000
  H   H130      1.0  0.3913060675928575  0.5578669316138503  0.05546297229148611  1.0000
  H   H131      1.0  0.3697624118438204  0.5700920105622741  0.014162252209696913  1.0000
  H   H132      1.0  0.41406944669461854  0.5928714400945648  0.0255969623856529  1.0000
  N   N4        1.0  0.22039539970883654  0.9056670329303539  0.4370418995471557  1.0000
  C   C157      1.0  0.22270478533293955  0.8893811653751516  0.4005231966767956  1.0000
  C   C158      1.0  0.25693610685458074  0.9083502820220335  0.4545119770586714  1.0000
  C   C159      1.0  0.19355547985739374  0.8817822267153195  0.45932208905992733  1.0000
  C   C160      1.0  0.20839690614973752  0.943535366315794  0.43386360969820553  1.0000
  H   H133      1.0  0.23181030406546319  0.8607688950312913  0.4018128458131066  1.0000
  H   H134      1.0  0.24262291719530305  0.9070303873709689  0.38308101130125516  1.0000
  H   H135      1.0  0.19553743315409586  0.8871679006064666  0.3866326820880745  1.0000
  H   H136      1.0  0.27768880924943556  0.9265402220513869  0.4384497076263959  1.0000
  H   H137      1.0  0.256107397454644  0.9209278408712303  0.48200831050254417  1.0000
  H   H138      1.0  0.2670737400337833  0.8803373590600303  0.4574534277610851  1.0000
  H   H139      1.0  0.19136668049573582  0.8933206743363796  0.4871161704812035  1.0000
  H   H140      1.0  0.2014310133280532  0.8527929684239014  0.4621167207175027  1.0000
  H   H141      1.0  0.16548050269446934  0.8797566869002043  0.44725645132735037  1.0000
  H   H142      1.0  0.20715591381164467  0.956719162605421  0.4609783206755584  1.0000
  H   H143      1.0  0.18064306217093457  0.942856566891231  0.42139363273850283  1.0000
  H   H144      1.0  0.22771202443850772  0.9623250517794079  0.4168654245921046  1.0000
  N   N5        1.0  0.12909124712948408  0.47510199567994155  0.7695129780020121  1.0000
  C   C161      1.0  0.16057107535712362  0.4798317693741325  0.7947929155702216  1.0000
  C   C162      1.0  0.09754507640214523  0.4532433602921707  0.7874310999026585  1.0000
  C   C163      1.0  0.13948388115510385  0.45498990506701137  0.7368420116050413  1.0000
  C   C164      1.0  0.11869071400872315  0.5123486000717798  0.7589089728810943  1.0000
  H   H145      1.0  0.15401635487631513  0.4960252615903454  0.8191426171893587  1.0000
  H   H146      1.0  0.18516897258756396  0.49536141179927334  0.7818783148750194  1.0000
  H   H147      1.0  0.16842759733816412  0.4523480560100231  0.8045030369789997  1.0000
  H   H148      1.0  0.08893219772551382  0.4674800877700956  0.8122091583122611  1.0000
  H   H149      1.0  0.07322178289823171  0.449401069292385  0.7691506787205857  1.0000
  H   H150      1.0  0.1042973491458457  0.42488593272841046  0.7956420485759219  1.0000
  H   H151      1.0  0.11609678461386631  0.45067976109120567  0.7174220456111394  1.0000
  H   H152      1.0  0.14768637057349412  0.4268294953650231  0.7438443513726554  1.0000
  H   H153      1.0  0.16285427824842139  0.4708776940579034  0.7222795244089952  1.0000
  H   H154      1.0  0.09557489186756626  0.5099192494140427  0.7392490265662227  1.0000
  H   H155      1.0  0.14204070470093924  0.5300764631511838  0.7461745350183993  1.0000
  H   H156      1.0  0.10960418177876585  0.5278787104267334  0.7826879141423072  1.0000
  N   N6        1.0  0.6128434500629176  0.08155711102127759  0.5056910449976562  1.0000
  C   C165      1.0  0.5729302384695881  0.08328073110129558  0.5010653345530769  1.0000
  C   C166      1.0  0.6246121083438929  0.09860014667799252  0.5407197529036961  1.0000
  C   C167      1.0  0.6329611696680296  0.10233037167466776  0.47581387569720773  1.0000
  C   C168      1.0  0.6207498383469777  0.041984616378318254  0.5052045817666921  1.0000
  H   H157      1.0  0.5659517585658406  0.11275029764696498  0.5016783789922671  1.0000
  H   H158      1.0  0.5569884753395916  0.06765515111143049  0.5231345791758896  1.0000
  H   H159      1.0  0.5632100925007053  0.07093877094123045  0.47475235448289316  1.0000
  H   H160      1.0  0.6544601980976438  0.09712915283042318  0.5455297501739886  1.0000
  H   H161      1.0  0.6196178467052156  0.12862680949220698  0.5419561836634007  1.0000
  H   H162      1.0  0.6094749156995464  0.0839643120049714  0.5637973741510782  1.0000
  H   H163      1.0  0.6631831696027466  0.10127537520169635  0.4781883208479471  1.0000
  H   H164      1.0  0.6280043331026084  0.1323948365701794  0.47547164344396686  1.0000
  H   H165      1.0  0.6246415501849533  0.09037956359947327  0.4489232154541823  1.0000
  H   H166      1.0  0.6506716547089673  0.039577452674820754  0.5082243311922177  1.0000
  H   H167      1.0  0.6118312794511989  0.028033308353440988  0.47938181669416474  1.0000
  H   H168      1.0  0.6066969656659907  0.0255632467873188  0.527864971787766  1.0000
  N   N7        1.0  0.24884991952895164  0.028662628686685628  0.6410206174606969  1.0000
  C   C169      1.0  0.22039198306149277  0.05373020535910156  0.6324588627115694  1.0000
  C   C170      1.0  0.26134033310178234  0.012315676597322245  0.607143172505093  1.0000
  C   C171      1.0  0.23331834815063898  0.9981687650070517  0.6653395024014345  1.0000
  C   C172      1.0  0.2803639035114008  0.05039009120786904  0.658874202293038  1.0000
  H   H169      1.0  0.20942130351837146  0.06581007912165183  0.6574075244935054  1.0000
  H   H170      1.0  0.19687651987172095  0.03860607425897536  0.617524598333109  1.0000
  H   H171      1.0  0.23174755946111059  0.07765296285240458  0.6149861540987148  1.0000
  H   H172      1.0  0.2724233878067229  0.034624087362714065  0.5879447085355658  1.0000
  H   H173      1.0  0.2834628263588728  0.9938924408109864  0.6122506214491011  1.0000
  H   H174      1.0  0.23843747598072498  0.9953097115433451  0.5931256023695607  1.0000
  H   H175      1.0  0.254248690900245  0.9788450548659429  0.6722068683176401  1.0000
  H   H176      1.0  0.20963240962931953  0.9811839929748579  0.6523974887929836  1.0000
  H   H177      1.0  0.22338927478610948  0.00939550256143229  0.6911824396222046  1.0000
  H   H178      1.0  0.3034310347634912  0.03299667428081382  0.6637339373667359  1.0000
  H   H179      1.0  0.27240136452828134  0.061806510567413424  0.6853476090303748  1.0000
  H   H180      1.0  0.2915269852612115  0.0746820050418798  0.6418268946346657  1.0000
  N   N8        1.0  0.45884350707451305  0.2896275283243802  0.8539972921771988  1.0000
  C   C173      1.0  0.447199684117641  0.2666652976261072  0.8860713812081945  1.0000
  C   C174      1.0  0.48259206223579276  0.3233197794879136  0.8656485208420209  1.0000
  C   C175      1.0  0.4259790607371212  0.3010626354985917  0.8354634247271657  1.0000
  C   C176      1.0  0.47960619726116593  0.2673538877219231  0.829189067601083  1.0000
  H   H181      1.0  0.4301604085302743  0.2403676248545334  0.8784360701400692  1.0000
  H   H182      1.0  0.4306311556642453  0.2820689010224039  0.9050600236907634  1.0000
  H   H183      1.0  0.47144461715505886  0.2588172265477563  0.9012979967896454  1.0000
  H   H184      1.0  0.49092848906426817  0.34211477138811797  0.8423671794659461  1.0000
  H   H185      1.0  0.468300987516071  0.3398228289622463  0.8857946678681645  1.0000
  H   H186      1.0  0.5082048365310025  0.31558328074087505  0.8787298533707435  1.0000
  H   H187      1.0  0.43361665957364165  0.31846567929327074  0.811032235643353  1.0000
  H   H188      1.0  0.4099291000845617  0.31789282017905596  0.8538094921966527  1.0000
  H   H189      1.0  0.40732774809561934  0.2762338578611886  0.8266749069864598  1.0000
  H   H190      1.0  0.4885840219710514  0.2835456646691261  0.8043875552169429  1.0000
  H   H191      1.0  0.4628505689380077  0.2411589809670022  0.820590775133709  1.0000
  H   H192      1.0  0.5047489860555844  0.2586999260403813  0.8425518437035907  1.0000
  N   N9        1.0  0.04558790198985381  0.4022260249246878  0.24004973436095098  1.0000
  C   C177      1.0  0.029903527639600122  0.37307373067223387  0.2657825271740645  1.0000
  C   C178      1.0  0.06287187347158359  0.43465269660175115  0.26049391089200413  1.0000
  C   C179      1.0  0.015913791426148464  0.4142997966982464  0.21701818634928274  1.0000
  C   C180      1.0  0.07360011475414871  0.3872423666933491  0.21697805774622572  1.0000
  H   H193      1.0  0.01679103856585229  0.3479875157530679  0.2514040723386864  1.0000
  H   H194      1.0  0.008401479494955616  0.3837831248499104  0.2831915958141001  1.0000
  H   H195      1.0  0.0512827027163165  0.3638819505031836  0.2842750727270173  1.0000
  H   H196      1.0  0.07639846165723045  0.45664509942685094  0.242123857576795  1.0000
  H   H197      1.0  0.042017697353870696  0.44781536743969147  0.2764244370048527  1.0000
  H   H198      1.0  0.08402300415860055  0.42649057022664943  0.27977463402563896  1.0000
  H   H199      1.0  0.02666065148130744  0.43692830197826504  0.19781058421373152  1.0000
  H   H200      1.0  0.9941379682699674  0.425453250821095  0.2337313253509128  1.0000
  H   H201      1.0  0.002456260836902312  0.3907186902062451  0.20078592516911786  1.0000
  H   H202      1.0  0.085671501785722  0.40892436295405166  0.19732249233570712  1.0000
  H   H203      1.0  0.06162268521626476  0.3626962218291509  0.20106757234462766  1.0000
  H   H204      1.0  0.0966016413909131  0.3782919580780561  0.23350260468273992  1.0000
  N   N10       1.0  0.9243978020932103  0.7734053677281915  0.63327466293367  1.0000
  C   C181      1.0  0.9308722299265906  0.7489713322436243  0.6645237293839052  1.0000
  C   C182      1.0  0.9033700431277271  0.7512084096477458  0.6051342200874748  1.0000
  C   C183      1.0  0.9600795338308085  0.7894159155818076  0.6181453576762589  1.0000
  C   C184      1.0  0.9033198520156789  0.8041418766838921  0.6451180017889439  1.0000
  H   H205      1.0  0.9461351600952556  0.7649469034716044  0.6865318523609877  1.0000
  H   H206      1.0  0.947596392275641  0.7261207199674609  0.6566023384345507  1.0000
  H   H207      1.0  0.9046101835237401  0.735490074683918  0.6761021788136228  1.0000
  H   H208      1.0  0.8984393996960559  0.7687995302514763  0.5809689026623015  1.0000
  H   H209      1.0  0.9183320215798794  0.7276311861369916  0.5956611414472753  1.0000
  H   H210      1.0  0.8760997478263983  0.7389720163616488  0.6154182946435254  1.0000
  H   H211      1.0  0.9562259787809294  0.8088414990365995  0.5952255738658622  1.0000
  H   H212      1.0  0.9761525953705951  0.7671495163823677  0.6076721299056999  1.0000
  H   H213      1.0  0.9773585222710293  0.8053271627139433  0.6388157916910113  1.0000
  H   H214      1.0  0.8978115668412538  0.8228272959379597  0.6219134601867143  1.0000
  H   H215      1.0  0.9185728764788794  0.8218645672414538  0.6659509402577388  1.0000
  H   H216      1.0  0.8762624890914867  0.7931259640805727  0.6568476923582212  1.0000
  N   N11       1.0  0.14951165696615587  0.3040707696643481  0.4366735831060921  1.0000
  C   C185      1.0  0.1326044363638096  0.31343207233043674  0.4713580565468342  1.0000
  C   C186      1.0  0.17890735322059825  0.2796397059754826  0.44372754268932185  1.0000
  C   C187      1.0  0.16513258484499194  0.3390119574514141  0.41855992403037423  1.0000
  C   C188      1.0  0.12117236428016281  0.28431112302132294  0.4131302491875657  1.0000
  H   H217      1.0  0.11119343338695035  0.3328627176724255  0.4671725950713177  1.0000
  H   H218      1.0  0.153258824975146  0.32702182513281164  0.4905397673976997  1.0000
  H   H219      1.0  0.11915597338739764  0.2879388097007069  0.48500557403179767  1.0000
  H   H220      1.0  0.19171934579950045  0.2711000089587945  0.418132377201537  1.0000
  H   H221      1.0  0.201015789416575  0.2938348734965462  0.46101136062968107  1.0000
  H   H222      1.0  0.16804518040902872  0.25347268486701746  0.4582260209087862  1.0000
  H   H223      1.0  0.17832715489750686  0.333112844646458  0.39233159316712957  1.0000
  H   H224      1.0  0.18620534804642838  0.3549532704293746  0.4358067618018864  1.0000
  H   H225      1.0  0.14334173634739258  0.3578047061272432  0.41279232829042944  1.0000
  H   H226      1.0  0.13277262746551036  0.27725800834131126  0.3864728967575948  1.0000
  H   H227      1.0  0.09817899816378887  0.301732542356555  0.40795259075471535  1.0000
  H   H228      1.0  0.1090837962429951  0.257589456854065  0.42577467348370707  1.0000
  N   N12       1.0  0.36344390890807204  0.7744784028120759  0.939662342465865  1.0000
  C   C189      1.0  0.3617469491714761  0.7342452921103785  0.9306664921955474  1.0000
  C   C190      1.0  0.383689315036138  0.7815392708823848  0.9739853015066687  1.0000
  C   C191      1.0  0.3257636715448528  0.7852111313380125  0.9437818617083965  1.0000
  C   C192      1.0  0.38268267746050205  0.7969063849846281  0.9103207667460617  1.0000
  H   H229      1.0  0.34875037983737933  0.7163361556017557  0.9529203645988008  1.0000
  H   H230      1.0  0.3897480208300215  0.7256121001360085  0.9261971888112784  1.0000
  H   H231      1.0  0.3456311502580467  0.7274904837875351  0.905569155572814  1.0000
  H   H232      1.0  0.41177047736552064  0.7725024984750912  0.9722647079230213  1.0000
  H   H233      1.0  0.38685257520539923  0.8118283537031975  0.9810425763796744  1.0000
  H   H234      1.0  0.369616153125647  0.7658166426900046  0.9970670655541529  1.0000
  H   H235      1.0  0.3261468264293653  0.8153394213577717  0.9510122030605415  1.0000
  H   H236      1.0  0.3105595121411508  0.7684690727859322  0.9656021348904691  1.0000
  H   H237      1.0  0.3097428370092394  0.7805477221347195  0.9182859729224317  1.0000
  H   H238      1.0  0.3841183781346079  0.8274874545960275  0.9159774366771778  1.0000
  H   H239      1.0  0.3687710013373113  0.7918011430201128  0.8837603831183443  1.0000
  H   H240      1.0  0.4116024533433208  0.7901694988021817  0.9072496760902389  1.0000
  N   N13       1.0  0.8657491839320982  0.2876338729339386  0.5377716230453196  1.0000
  C   C193      1.0  0.8992590558728508  0.27167946019014494  0.5498840782431439  1.0000
  C   C194      1.0  0.8762739959166702  0.321651443007153  0.5157776985281823  1.0000
  C   C195      1.0  0.8445928572517466  0.2974496295904078  0.5698191654680973  1.0000
  C   C196      1.0  0.8432608888652846  0.25968705565099415  0.5156055258738993  1.0000
  H   H241      1.0  0.8926450107179738  0.2453470366911751  0.5657316718697315  1.0000
  H   H242      1.0  0.9166975876198538  0.29157339503217977  0.5672740120314282  1.0000
  H   H243      1.0  0.9162169158210784  0.26504643378225584  0.5262905426010409  1.0000
  H   H244      1.0  0.8517838287008271  0.3351303182472696  0.5068055599467887  1.0000
  H   H245      1.0  0.8944987473042131  0.3427643373356785  0.5312702348192114  1.0000
  H   H246      1.0  0.8916551138810407  0.31488180755236583  0.49099361442584244  1.0000
  H   H247      1.0  0.8190853803209179  0.30972066052858527  0.5618099732372537  1.0000
  H   H248      1.0  0.8611788337068348  0.3183750804844632  0.587014024807309  1.0000
  H   H249      1.0  0.8364953956577577  0.27230917900898766  0.587000243706088  1.0000
  H   H250      1.0  0.8363997622646101  0.23285508905433258  0.5307023874652904  1.0000
  H   H251      1.0  0.8582659699423487  0.2527608927144354  0.4906347001482393  1.0000
  H   H252      1.0  0.8171074389035341  0.2701699036549248  0.506866571415958  1.0000
  N   N14       1.0  0.630874258504584  0.9762094204703354  0.7241164807504924  1.0000
  C   C197      1.0  0.6424094257835002  0.9553046789388672  0.7560264104797528  1.0000
  C   C198      1.0  0.661500297397031  0.9819078497752153  0.6978123150072839  1.0000
  C   C199      1.0  0.6205460600494566  0.0130279521282064  0.7357942772064223  1.0000
  C   C200      1.0  0.5989325810539936  0.9546323553604725  0.7068702245320402  1.0000
  H   H253      1.0  0.6196403071779774  0.9503538065959971  0.7761825820964086  1.0000
  H   H254      1.0  0.6661546557516236  0.9709489800635837  0.7700336254830272  1.0000
  H   H255      1.0  0.6505470285698404  0.9274128199319754  0.7482371091341978  1.0000
  H   H256      1.0  0.6538161441420776  0.9983058372418686  0.6738247254504054  1.0000
  H   H257      1.0  0.6862717867253517  0.9976552166520721  0.7100008944657681  1.0000
  H   H258      1.0  0.669523182562853  0.9547753963537978  0.687625862314832  1.0000
  H   H259      1.0  0.5981432501740194  0.00990502861547049  0.7562928076861278  1.0000
  H   H260      1.0  0.6104824982405486  0.0290253715396378  0.7126692307285458  1.0000
  H   H261      1.0  0.644201626394557  0.03063805759615046  0.7479201870391657  1.0000
  H   H262      1.0  0.5895128148101642  0.9695053012297176  0.6826297740849337  1.0000
  H   H263      1.0  0.5752031978543185  0.9500728087070631  0.7259262150217393  1.0000
  H   H264      1.0  0.605632559329658  0.9265960945639211  0.6978810335084622  1.0000
  N   N15       1.0  0.11234071938164367  0.5599112456076565  0.9991930658787571  1.0000
  C   C201      1.0  0.13913744288739477  0.5888314190765416  0.9827422503870679  1.0000
  C   C202      1.0  0.13080127318724394  0.5262297903138499  0.007710032213926076  1.0000
  C   C203      1.0  0.08206675959328104  0.5498873513883277  0.9733954985974244  1.0000
  C   C204      1.0  0.09757685729217787  0.5746830715531585  0.03289651247710955  1.0000
  H   H265      1.0  0.12614999082583894  0.6145020399168059  0.9754190923826903  1.0000
  H   H266      1.0  0.15139910580642088  0.5783435241403201  0.9576595458830649  1.0000
  H   H267      1.0  0.16216075905471833  0.5973408002848072  0.0017532666799984218  1.0000
  H   H268      1.0  0.11189421527516553  0.5041017975235614  0.021224060591049004  1.0000
  H   H269      1.0  0.14169610808306368  0.5138646378483385  0.982874080691886  1.0000
  H   H270      1.0  0.15447636977869236  0.5330512148811244  0.026164351457407992  1.0000
  H   H271      1.0  0.06762902917576996  0.5746603444013028  0.9660750090673981  1.0000
  H   H272      1.0  0.06149379455817787  0.5279188613899188  0.9848523307028805  1.0000
  H   H273      1.0  0.09258981235726639  0.5387430086954205  0.9477334480530218  1.0000
  H   H274      1.0  0.07866350827776575  0.5530792375143021  0.04717569706771976  1.0000
  H   H275      1.0  0.08247103432487199  0.5994409993667089  0.027440897436917525  1.0000
  H   H276      1.0  0.12010665421771495  0.5838297185225253  0.05217369938229091  1.0000
  N   N16       1.0  0.983836248776674  0.9486404924486516  0.48776052636206907  1.0000
  C   C205      1.0  0.947857810802576  0.9632894153932444  0.4927459344211151  1.0000
  C   C206      1.0  0.012902489067199598  0.9734534532265432  0.5060401184169877  1.0000
  C   C207      1.0  0.9923226564195154  0.9469465886196976  0.44866518546245493  1.0000
  C   C208      1.0  0.9823795904187869  0.9106177392340267  0.5035582154913901  1.0000
  H   H277      1.0  0.9254914878540903  0.9454877837879394  0.47871857205703533  1.0000
  H   H278      1.0  0.9480462037873192  0.9922697650428605  0.48177547916160124  1.0000
  H   H279      1.0  0.9400701292910315  0.963911212365778  0.5219025486089739  1.0000
  H   H280      1.0  0.04036439963663594  0.9629512847427242  0.5028324341808218  1.0000
  H   H281      1.0  0.01500474369338334  0.0024228238400456625  0.4946977384242605  1.0000
  H   H282      1.0  0.007422123412848648  0.9752782879375528  0.5356173416453021  1.0000
  H   H283      1.0  0.019403253092429518  0.9361174673760618  0.4440375612727911  1.0000
  H   H284      1.0  0.9934198824492946  0.9750933681657833  0.4356625278507742  1.0000
  H   H285      1.0  0.9713029478140656  0.9278591262916593  0.4341601836207217  1.0000
  H   H286      1.0  0.9613866515694026  0.890884921396064  0.4898542778108097  1.0000
  H   H287      1.0  0.9751902670839081  0.9103760337708083  0.5328816654579568  1.0000
  H   H288      1.0  0.009286968589782953  0.8990629864059636  0.5007788995495159  1.0000
  N   N17       1.0  0.7589588077879958  0.9929330940256296  0.35918112301403254  1.0000
  C   C209      1.0  0.7335327624012338  0.9765894992745107  0.3875254388914339  1.0000
  C   C210      1.0  0.7863145538530675  0.021111161092218333  0.3755688115593252  1.0000
  C   C211      1.0  0.7378788524606165  0.011152128545407702  0.33121001752778106  1.0000
  C   C212      1.0  0.7780808295874887  0.962897191974295  0.3427368275848106  1.0000
  H   H289      1.0  0.7122744274020524  0.9553539159087792  0.37624734808236737  1.0000
  H   H290      1.0  0.7189197595221978  0.9985959273812722  0.40057921976762806  1.0000
  H   H291      1.0  0.7484968283239825  0.9626073386118522  0.4091677727980566  1.0000
  H   H292      1.0  0.7727965757119497  0.04441075331986365  0.3879246970683459  1.0000
  H   H293      1.0  0.8022742430462912  0.008415805642871142  0.39730222243172914  1.0000
  H   H294      1.0  0.8063027440881966  0.03381397147363588  0.35512241027513  1.0000
  H   H295      1.0  0.7233804525736003  0.034098637143479445  0.34305855556899895  1.0000
  H   H296      1.0  0.7165500728743439  0.9908736225702098  0.3186018756099812  1.0000
  H   H297      1.0  0.7561245415831246  0.023789070582388435  0.3092734918610652  1.0000
  H   H298      1.0  0.7976793517255659  0.9741687621453371  0.321294270539651  1.0000
  H   H299      1.0  0.7582455662011492  0.9410152696037636  0.3302744557044605  1.0000
  H   H300      1.0  0.7940897263729784  0.9487720041456733  0.3635201595883904  1.0000
  N   N18       1.0  0.4656065841422212  0.019692466678694842  0.40059334133456515  1.0000
  C   C213      1.0  0.4325170474953887  0.027693329726283872  0.42099753666259787  1.0000
  C   C214      1.0  0.49545675269154277  0.013361922508709599  0.4261169793900477  1.0000
  C   C215      1.0  0.47767795484964537  0.05191340618070488  0.37679373700411256  1.0000
  C   C216      1.0  0.45688679714455327  0.9858110191560439  0.37831491259656086  1.0000
  H   H301      1.0  0.4098431943955821  0.03343511773385714  0.40238732536581745  1.0000
  H   H302      1.0  0.4381082356004992  0.052846330490183197  0.438434938184755  1.0000
  H   H303      1.0  0.4219076934514143  0.0036877073608858617  0.43861729897986484  1.0000
  H   H304      1.0  0.5027625993075028  0.03839709151761299  0.4432666277745276  1.0000
  H   H305      1.0  0.4873313484213564  0.9890953683377844  0.44437331428656585  1.0000
  H   H306      1.0  0.5207539336990124  0.007302970672400155  0.41127851199882  1.0000
  H   H307      1.0  0.50304558036022  0.04735642922515133  0.36154714354448164  1.0000
  H   H308      1.0  0.48328010315317416  0.0783550188729543  0.39232473212081725  1.0000
  H   H309      1.0  0.4563478136413537  0.05657122782883006  0.3563844878899284  1.0000
  H   H310      1.0  0.4346547422016068  0.9896563646844513  0.3585157235268661  1.0000
  H   H311      1.0  0.4475043349131918  0.960915055947929  0.3952787900026937  1.0000
  H   H312      1.0  0.48133727853354386  0.9790395992728725  0.36254884102347035  1.0000
  N   N19       1.0  0.5534861182040232  0.2949654349777042  0.1452147058178425  1.0000
  C   C217      1.0  0.5636373112231923  0.2579099833763207  0.15674458349639464  1.0000
  C   C218      1.0  0.5346556959199025  0.3121774174818156  0.1752914085162913  1.0000
  C   C219      1.0  0.5285409843835751  0.2903457708368744  0.11375246036277457  1.0000
  C   C220      1.0  0.5869766590291551  0.31946606737348454  0.1348790500392109  1.0000
  H   H313      1.0  0.5779395643482025  0.24423903581163947  0.1345982481201049  1.0000
  H   H314      1.0  0.5388957691526551  0.23861503992607477  0.16436761178483883  1.0000
  H   H315      1.0  0.5823234895049595  0.2601587375901573  0.18057886779395566  1.0000
  H   H316      1.0  0.5264533137476984  0.34010285617122876  0.16728197948329454  1.0000
  H   H317      1.0  0.5092066399450654  0.294328939642967  0.18357269647136548  1.0000
  H   H318      1.0  0.5526989844235658  0.31621584002214376  0.19952128744965672  1.0000
  H   H319      1.0  0.5207256024362021  0.31788351970286594  0.10412131850916073  1.0000
  H   H320      1.0  0.5027939537195546  0.27206961655094625  0.12024736834275887  1.0000
  H   H321      1.0  0.5418820548924262  0.27748024545852135  0.09055896079966501  1.0000
  H   H322      1.0  0.5802624271678744  0.3477691827131709  0.12619556331004328  1.0000
  H   H323      1.0  0.6012516532910691  0.3077789798328039  0.11148167853216416  1.0000
  H   H324      1.0  0.6068716198124493  0.3232684391826938  0.15765702266654544  1.0000
  N   N20       1.0  0.8957861367060869  0.5414299116297289  0.009966614761544257  1.0000
  C   C221      1.0  0.9199398129995793  0.5519479525527394  0.9786006142600756  1.0000
  C   C222      1.0  0.8755261952405677  0.5041520603382901  0.0037238853553362983  1.0000
  C   C223      1.0  0.8693412727862564  0.5694791356611443  0.014337809871211027  1.0000
  C   C224      1.0  0.9181202107707519  0.5401823054928567  0.043241749230745086  1.0000
  H   H325      1.0  0.9356687129553861  0.579912756961794  0.9824526812278203  1.0000
  H   H326      1.0  0.9037158590774693  0.553587900224827  0.9531953525040527  1.0000
  H   H327      1.0  0.939928650961722  0.5311231659926141  0.9740247994512873  1.0000
  H   H328      1.0  0.8565497299749878  0.49563236281758044  0.026661530516221  1.0000
  H   H329      1.0  0.8585263580307747  0.5040176733615015  0.9787434695632193  1.0000
  H   H330      1.0  0.8945231998711339  0.48211388725381615  0.0007503499946024395  1.0000
  H   H331      1.0  0.8506804407054271  0.5624306632768512  0.03772481605530342  1.0000
  H   H332      1.0  0.8518340297412366  0.5709806125324473  0.9898970496204884  1.0000
  H   H333      1.0  0.8834298174453677  0.5980499998827846  0.019016511789023305  1.0000
  H   H334      1.0  0.9005595028473687  0.5315939181881364  0.06714585736075884  1.0000
  H   H335      1.0  0.932886170520564  0.5681109598891212  0.049542535152845346  1.0000
  H   H336      1.0  0.9387910219559171  0.5197096156589085  0.04086161820600931  1.0000
  N   N21       1.0  0.7312283024184184  0.517250198960043  0.8637381969893108  1.0000
  C   C225      1.0  0.6930252824816334  0.5220052136465434  0.8744239411988467  1.0000
  C   C226      1.0  0.7315084759493012  0.5013828160495805  0.8268916511290947  1.0000
  C   C227      1.0  0.7467948749331214  0.4914966680472439  0.8894915939370706  1.0000
  C   C228      1.0  0.7536330455794343  0.5540339534948371  0.8642139136492287  1.0000
  H   H337      1.0  0.691902598469205  0.534125135515274  0.9020515882495387  1.0000
  H   H338      1.0  0.675531814941529  0.49464801667517033  0.8753680136880333  1.0000
  H   H339      1.0  0.6801141017432478  0.5409686048608706  0.8555077384927111  1.0000
  H   H340      1.0  0.7600090559045235  0.49749983453792895  0.8180799803440211  1.0000
  H   H341      1.0  0.7149636393534534  0.4735248323933988  0.8257366094710478  1.0000
  H   H342      1.0  0.7199042742156083  0.5200711793136176  0.8067238972455021  1.0000
  H   H343      1.0  0.7753341318619342  0.486543567891067  0.881956729393348  1.0000
  H   H344      1.0  0.7298715024700092  0.4638233623629433  0.8908744174404545  1.0000
  H   H345      1.0  0.7475133815640196  0.5029880899221413  0.917403206363233  1.0000
  H   H346      1.0  0.782627431033289  0.5515941854023054  0.8561452969186272  1.0000
  H   H347      1.0  0.7544034977005103  0.5665854250105855  0.8917674073766301  1.0000
  H   H348      1.0  0.7425266480677811  0.5744364505907555  0.8454766857199913  1.0000
  N   N22       1.0  0.003944113539443575  0.5388752992240592  0.607918532747873  1.0000
  C   C229      1.0  0.019553701744025043  0.5070586572340352  0.5904882377497948  1.0000
  C   C230      1.0  0.9855460986171001  0.5604683897685337  0.580418031307356  1.0000
  C   C231      1.0  0.03373153334300003  0.5635252287824413  0.6253000359257949  1.0000
  C   C232      1.0  0.9769215923359867  0.5244578760852083  0.6357149144749683  1.0000
  H   H349      1.0  0.03402487043444979  0.4905783890357801  0.6105666389698071  1.0000
  H   H350      1.0  0.0397096345778728  0.5167877599690407  0.5689613788460669  1.0000
  H   H351      1.0  0.9977525544959139  0.48730357651512524  0.5778295978652331  1.0000
  H   H352      1.0  0.9736182921296301  0.5847194241058291  0.5928760352791766  1.0000
  H   H353      1.0  0.00511802216835644  0.5718894344774867  0.5589778486260709  1.0000
  H   H354      1.0  0.9627562850649426  0.5427614488577596  0.5669265105777851  1.0000
  H   H355      1.0  0.022665972777814944  0.5870663516849836  0.6397897793566492  1.0000
  H   H356      1.0  0.05410692380779594  0.5759697395256517  0.6050545961756129  1.0000
  H   H357      1.0  0.04873652796466758  0.5478437785774515  0.6456195007967483  1.0000
  H   H358      1.0  0.9904339805105711  0.5102173721071876  0.6580594053473482  1.0000
  H   H359      1.0  0.9551500580473667  0.5039179574571421  0.6241951211550616  1.0000
  H   H360      1.0  0.9630776982886882  0.5474537302819936  0.6480957339268969  1.0000
  N   N23       1.0  0.4924607311544962  0.03913097806857882  0.8895165028735675  1.0000
  C   C233      1.0  0.4525514586320657  0.04236283555899115  0.8873438560874725  1.0000
  C   C234      1.0  0.5108494315575649  0.07179269796717905  0.909000139312209  1.0000
  C   C235      1.0  0.5076692126645019  0.03824675565308481  0.852517904726407  1.0000
  C   C236      1.0  0.49876104301164936  0.004184298955684618  0.9088761567115914  1.0000
  H   H361      1.0  0.43798074773427975  0.01849293937611618  0.8721556696317367  1.0000
  H   H362      1.0  0.44691461682130895  0.06850198242323073  0.8728829687583322  1.0000
  H   H363      1.0  0.4399001912742755  0.04291370449213975  0.9147156537828594  1.0000
  H   H364      1.0  0.5410373783548745  0.07033298133506079  0.9109314963785871  1.0000
  H   H365      1.0  0.5067848286637049  0.09855763645175226  0.8948315844810889  1.0000
  H   H366      1.0  0.49987625070106645  0.07371103613495605  0.9369649502636728  1.0000
  H   H367      1.0  0.4939956324197934  0.014409146232768228  0.8367479580877941  1.0000
  H   H368      1.0  0.5376295523860397  0.03512241368215976  0.8527273736762598  1.0000
  H   H369      1.0  0.5036946570289478  0.0644092675625031  0.8373985726599021  1.0000
  H   H370      1.0  0.5285273658166837  0.00017392945891603345  0.9098774554677769  1.0000
  H   H371      1.0  0.48460514260554177  0.97914290902635  0.8951708870238528  1.0000
  H   H372      1.0  0.48829085398443317  0.004050825409101843  0.937178324017545  1.0000
  N   N24       1.0  0.6404866355496293  0.8012009373276681  0.07029054087210677  1.0000
  C   C237      1.0  0.6543370720528813  0.836268736037542  0.08884187001468825  1.0000
  C   C238      1.0  0.6704669730951014  0.7768514913116936  0.06652359950400007  1.0000
  C   C239      1.0  0.6268221937386982  0.8102884775545061  0.03397821230207446  1.0000
  C   C240      1.0  0.6101514976951089  0.7814975064559644  0.09175985444847715  1.0000
  H   H373      1.0  0.6320803735267427  0.8550055361063614  0.0922054638220783  1.0000
  H   H374      1.0  0.6768876596817972  0.8521808493207101  0.07316153644393102  1.0000
  H   H375      1.0  0.6649834948449467  0.830542560291549  0.1163222052500113  1.0000
  H   H376      1.0  0.6610077487540168  0.7505416073131004  0.05187064239482224  1.0000
  H   H377      1.0  0.6940098846739595  0.7909803176288128  0.05083630074831728  1.0000
  H   H378      1.0  0.6809273893498357  0.7685741790589015  0.09337807106492796  1.0000
  H   H379      1.0  0.6151007358155475  0.7846419746454666  0.019639340608672527  1.0000
  H   H380      1.0  0.6490725022653354  0.8241849194173002  0.016513685139344307  1.0000
  H   H381      1.0  0.6047966861048236  0.8293426682047883  0.0357273379025213  1.0000
  H   H382      1.0  0.599162607794871  0.7547428882570006  0.07872273565326737  1.0000
  H   H383      1.0  0.5868586604807958  0.7989913943018941  0.094695205231517  1.0000
  H   H384      1.0  0.6193117791305733  0.7745290312654386  0.11948298222627447  1.0000
