data_image0
_chemical_formula_structural       FeS2FeS2FeSFeS3FeS2FeS2FeSFeS3FeS2FeS2FeSFeS3FeS2FeS2FeSFeS3FeS2FeS2FeSFeS3FeS2FeS2FeSFeS3FeS2FeS2FeSFeS3FeS2FeS2FeSFeS3C6H4C6H4C6H4C6H4C6H4C6H4C6H4C6H4C6H4C6H4C6H4C6H4C6H4C6H4C6H4C6H4FeS2FeS2FeSFeS3FeS2FeS2FeSFeS3FeS2FeS2FeSFeS3FeS2FeS2FeSFeS3FeS2FeS2FeSFeS3FeS2FeS2FeSFeS3FeS2FeS2FeSFeS3FeS2FeS2FeSFeS3C6H4C6H4C6H4C6H4C6H4C6H4C6H4C6H4C6H4C6H4C6H4C6H4C6H4C6H4C6H4C6H4FeS2FeS2FeSFeS3FeS2FeS2FeSFeS3FeS2FeS2FeSFeS3FeS2FeS2FeSFeS3FeS2FeS2FeSFeS3FeS2FeS2FeSFeS3FeS2FeS2FeSFeS3FeS2FeS2FeSFeS3C6H4C6H4C6H4C6H4C6H4C6H4C6H4C6H4C6H4C6H4C6H4C6H4C6H4C6H4C6H4C6H4FeS2FeS2FeSFeS3FeS2FeS2FeSFeS3FeS2FeS2FeSFeS3FeS2FeS2FeSFeS3FeS2FeS2FeSFeS3FeS2FeS2FeSFeS3FeS2FeS2FeSFeS3FeS2FeS2FeSFeS3C6H4C6H4C6H4C6H4C6H4C6H4C6H4C6H4C6H4C6H4C6H4C6H4C6H4C6H4C6H4C6H4NC4H12NC4H12NC4H12NC4H12NC4H12NC4H12NC4H12NC4H12NC4H12NC4H12NC4H12NC4H12NC4H12NC4H12NC4H12NC4H12NC4H12NC4H12NC4H12NC4H12NC4H12NC4H12NC4H12NC4H12NC4H12NC4H12NC4H12NC4H12NC4H12NC4H12NC4H12NC4H12NC4H12NC4H12NC4H12NC4H12NC4H12NC4H12NC4H12NC4H12NC4H12NC4H12NC4H12NC4H12NC4H12NC4H12NC4H12NC4H12NC4H12NC4H12NC4H12NC4H12NC4H12NC4H12NC4H12NC4H12NC4H12NC4H12NC4H12NC4H12NC4H12NC4H12NC4H12NC4H12
_chemical_formula_sum              "Fe128 S256 C640 H1024 N64"
_cell_length_a       19.7997348333854
_cell_length_b       33.34786734693574
_cell_length_c       44.720906948775074
_cell_angle_alpha    93.35220747501172
_cell_angle_beta     90.98784670831813
_cell_angle_gamma    87.66009477700737

_space_group_name_H-M_alt    "P 1"
_space_group_IT_number       1

loop_
  _space_group_symop_operation_xyz
  'x, y, z'

loop_
  _atom_site_type_symbol
  _atom_site_label
  _atom_site_symmetry_multiplicity
  _atom_site_fract_x
  _atom_site_fract_y
  _atom_site_fract_z
  _atom_site_occupancy
  Fe  Fe1       1.0  0.6807275830904044  0.37727190522630466  0.020939790286680825  1.0000
  S   S1        1.0  0.6914142235876408  0.41880134879153663  0.9841504742051462  1.0000
  S   S2        1.0  0.6156221415267346  0.39423277776594995  0.06035179042379887  1.0000
  Fe  Fe2       1.0  0.7858358467307752  0.3185625588293914  0.4929374588650252  1.0000
  S   S3        1.0  0.7996333391756791  0.35823378907776277  0.4550445383403226  1.0000
  S   S4        1.0  0.8497035301981898  0.2619587384560307  0.4944144435276847  1.0000
  Fe  Fe3       1.0  0.8023802860193034  0.40550313626742024  0.9898089984596147  1.0000
  S   S5        1.0  0.8734163616596756  0.45609952241300034  0.9903854159434926  1.0000
  Fe  Fe4       1.0  0.6865360149930477  0.36521443066094467  0.45548455860808756  1.0000
  S   S6        1.0  0.6222882682727815  0.3654133214534813  0.4139121654555638  1.0000
  S   S7        1.0  0.7920194089917895  0.36826450840030167  0.029350848619329333  1.0000
  S   S8        1.0  0.6725955787708566  0.3210059700988051  0.49034691777997014  1.0000
  Fe  Fe5       1.0  0.7112570518312934  0.29442673745395287  0.19660385867137642  1.0000
  S   S9        1.0  0.7229251385584542  0.3485490919599638  0.22790338274410168  1.0000
  S   S10       1.0  0.7624531040264376  0.285043264306484  0.15265263593640482  1.0000
  Fe  Fe6       1.0  0.606036869198098  0.2584087673675626  0.234142878183661  1.0000
  S   S11       1.0  0.6077736651893014  0.309108178387619  0.26923322946257733  1.0000
  S   S12       1.0  0.5408917173698995  0.20509793820987454  0.2358462263759656  1.0000
  Fe  Fe7       1.0  0.6100423691539103  0.34870252238486127  0.23046736619179245  1.0000
  S   S13       1.0  0.5477560282075902  0.4057237307612819  0.226071502807688  1.0000
  Fe  Fe8       1.0  0.7202584434068539  0.30415085743309905  0.26351894564980954  1.0000
  S   S14       1.0  0.7932380201939997  0.30477659016588665  0.30221016594129724  1.0000
  S   S15       1.0  0.5985245028295864  0.29832644497917893  0.19575037841451687  1.0000
  S   S16       1.0  0.718635587664704  0.2497189554511876  0.23187109184760074  1.0000
  Fe  Fe9       1.0  0.08392515183583345  0.31327260659106065  0.37764647667934725  1.0000
  S   S17       1.0  0.07457329069336813  0.36584399016567326  0.4111699461898829  1.0000
  S   S18       1.0  0.0063353938136438285  0.26590319338675034  0.37325683725278247  1.0000
  Fe  Fe10      1.0  0.20427960737106052  0.34629461092048097  0.3479263138012891  1.0000
  S   S19       1.0  0.2061467003983647  0.40148571104639463  0.37876305122720755  1.0000
  S   S20       1.0  0.2762379818192901  0.3425268652798694  0.30987407847093  1.0000
  Fe  Fe11      1.0  0.18772468030373846  0.35899428349044366  0.41441060882238456  1.0000
  S   S21       1.0  0.23993785141731827  0.36730008463624025  0.4590953051094811  1.0000
  Fe  Fe12      1.0  0.09390942845590472  0.40321928982781563  0.3726199949375325  1.0000
  S   S22       1.0  0.0329373027055159  0.4598266689304968  0.36473449722441725  1.0000
  S   S23       1.0  0.19609041882234768  0.30291975132733084  0.38407283303123135  1.0000
  S   S24       1.0  0.09302603053432178  0.35137838210390093  0.33855096689063074  1.0000
  Fe  Fe13      1.0  0.17917092316402738  0.2539539858439764  0.09212341897181615  1.0000
  S   S25       1.0  0.1934469040150433  0.20314154535199547  0.12254787449594887  1.0000
  S   S26       1.0  0.1121018352653319  0.24983951839172033  0.051257791655205644  1.0000
  Fe  Fe14      1.0  0.2810861084193661  0.30499711924755923  0.12635920569881995  1.0000
  S   S27       1.0  0.30387023121206264  0.258680916204822  0.15978262186806116  1.0000
  S   S28       1.0  0.33030549490854455  0.3643538438602533  0.12525887981396094  1.0000
  Fe  Fe15      1.0  0.3035713634848974  0.2148377956830734  0.12026848369723162  1.0000
  S   S29       1.0  0.38564377610724937  0.16704457157970104  0.11443524744056346  1.0000
  Fe  Fe16      1.0  0.1918219628131338  0.2520150579409125  0.1591682378513527  1.0000
  S   S30       1.0  0.13696140709443774  0.24673063128174108  0.20205306648468196  1.0000
  S   S31       1.0  0.28965132696154494  0.2614970899669036  0.08647113317706882  1.0000
  S   S32       1.0  0.1683277901749077  0.30219587656141284  0.12898564469742035  1.0000
  Fe  Fe17      1.0  0.0967421719091728  0.9957084557235709  0.10067587031870456  1.0000
  S   S33       1.0  0.10522193540675939  0.051404213095202406  0.07555093045523745  1.0000
  S   S34       1.0  0.01753117072164  0.9516420781886148  0.08753013439279846  1.0000
  Fe  Fe18      1.0  0.2037527981879184  0.020925577645044907  0.14654712508962123  1.0000
  S   S35       1.0  0.22226570363953801  0.07826784218027873  0.12497475173950869  1.0000
  S   S36       1.0  0.2596294808045213  0.006744285812025996  0.18900012768082938  1.0000
  Fe  Fe19      1.0  0.10903676841918714  0.08361805674307016  0.12092338323457061  1.0000
  S   S37       1.0  0.05365826993701923  0.1433819572394312  0.12962115441460972  1.0000
  Fe  Fe20      1.0  0.2167923656461084  0.04027978102823142  0.08203538559981943  1.0000
  S   S38       1.0  0.29088249074880523  0.04116356028334997  0.04464188266854504  1.0000
  S   S39       1.0  0.09077494040348567  0.028530848830382084  0.14546073596706488  1.0000
  S   S40       1.0  0.20817161695305014  0.9819469419361326  0.10400834820700719  1.0000
  Fe  Fe21      1.0  0.31380883547401117  0.15925532039749513  0.35925343150674727  1.0000
  S   S41       1.0  0.30950064240458386  0.1097235323428081  0.32341525037309504  1.0000
  S   S42       1.0  0.37322738647056064  0.21452370128602571  0.35519963722866027  1.0000
  Fe  Fe22      1.0  0.22160197282253555  0.11758526790302047  0.4002549975037593  1.0000
  S   S43       1.0  0.20973283598333123  0.06406909833625478  0.36808825543645785  1.0000
  S   S44       1.0  0.16527466615759895  0.1251825483867231  0.4436140796286481  1.0000
  Fe  Fe23      1.0  0.32115356610336554  0.06856529162036906  0.36114974606545824  1.0000
  S   S45       1.0  0.3941342059406336  0.015236740919774725  0.35570043917332383  1.0000
  Fe  Fe24      1.0  0.19926033887716205  0.11013196231953076  0.33363023215287496  1.0000
  S   S46       1.0  0.1234001782465015  0.108943099548943  0.29610987831272156  1.0000
  S   S47       1.0  0.3344345389114479  0.11852494418235338  0.39649749540598217  1.0000
  S   S48       1.0  0.20190697489031773  0.16349443775921324  0.36622169180773173  1.0000
  Fe  Fe25      1.0  0.8129851723276889  0.5342011718836661  0.17411559578163682  1.0000
  S   S49       1.0  0.6733943983116258  0.09978883914073378  0.22000431471139903  1.0000
  S   S50       1.0  0.7579719011767693  0.523086172105908  0.13047723918061996  1.0000
  Fe  Fe26      1.0  0.9162066328102547  0.4979787593905826  0.21619946070661694  1.0000
  S   S51       1.0  0.9155352295179022  0.5533686740958726  0.24704487402058034  1.0000
  S   S52       1.0  0.9864756270203782  0.44569061603111815  0.2252554726850451  1.0000
  Fe  Fe27      1.0  0.8033940878823986  0.5533610036929154  0.24025402529430098  1.0000
  S   S53       1.0  0.5999379317404085  0.05935998924017462  0.2935742400215832  1.0000
  Fe  Fe28      1.0  0.7848940170940653  0.10009092966248458  0.22930634769842775  1.0000
  S   S54       1.0  0.8353487526992894  0.15895851192497068  0.2307175443609836  1.0000
  S   S55       1.0  0.8036684186409071  0.4950977501134967  0.2127640159313718  1.0000
  S   S56       1.0  0.9262929826807373  0.5312538843606489  0.17489457387833807  1.0000
  Fe  Fe29      1.0  0.60456983037733  0.15953674673429108  0.9875259358782422  1.0000
  S   S57       1.0  0.6255740723959133  0.11310756076260249  0.020966619986823604  1.0000
  S   S58       1.0  0.534350622628064  0.2124220249773983  0.9984541918309854  1.0000
  Fe  Fe30      1.0  0.7061551875971818  0.1370661125011215  0.44453883245302334  1.0000
  S   S59       1.0  0.8322109306085378  0.5818728099757591  0.4592133200559906  1.0000
  S   S60       1.0  0.7517467407659362  0.1497888535248147  0.40062025266883194  1.0000
  Fe  Fe31      1.0  0.7187234030840859  0.582360327736316  0.457797924532887  1.0000
  S   S61       1.0  0.6627763290656569  0.5248896642126032  0.45231836156004224  1.0000
  Fe  Fe32      1.0  0.8156082362608281  0.6296276006752839  0.9972843670907152  1.0000
  S   S62       1.0  0.883611110117999  0.6323167144082104  0.03776570211446525  1.0000
  S   S63       1.0  0.5946182510941731  0.12922350314748948  0.44814202226230465  1.0000
  S   S64       1.0  0.7134207267567033  0.16762746488473515  0.9780485036152191  1.0000
  C   C1        1.0  0.706446520557563  0.12608588241763213  0.3710998858466534  1.0000
  C   C2        1.0  0.7935404248571573  0.5896124789439119  0.36328874909780506  1.0000
  C   C3        1.0  0.7587028681260543  0.5728300206376675  0.3384386767698286  1.0000
  C   C4        1.0  0.6365640671985159  0.08720221064572775  0.3234763385533136  1.0000
  C   C5        1.0  0.6253087812370978  0.07741280715678675  0.3528898681251827  1.0000
  C   C6        1.0  0.660991653261928  0.09643273150766059  0.37665592787417357  1.0000
  H   H1        1.0  0.7817350516783094  0.5810718530576462  0.38543667036840773  1.0000
  H   H2        1.0  0.7195462359825897  0.5517732350150458  0.34153500795789843  1.0000
  H   H3        1.0  0.5907538626834417  0.05416161304450186  0.357203387613253  1.0000
  H   H4        1.0  0.6543324753893002  0.0872647458102987  0.3991115519514399  1.0000
  C   C7        1.0  0.7970575234253867  0.5511437351675288  0.1043408154644459  1.0000
  C   C8        1.0  0.8377697774128434  0.582627824812126  0.11425494872052885  1.0000
  C   C9        1.0  0.8669756665112858  0.6063835287833553  0.09358784627871972  1.0000
  C   C10       1.0  0.8546666260469272  0.5990276768091144  0.06296863599697818  1.0000
  C   C11       1.0  0.8148444113278352  0.5670664179288508  0.052913869699711756  1.0000
  C   C12       1.0  0.7865816402437755  0.5428575714501764  0.0736495523457342  1.0000
  H   H5        1.0  0.8455303058957352  0.5893455397136915  0.13792037739857618  1.0000
  H   H6        1.0  0.8974313066899431  0.631168065012872  0.1014009896158283  1.0000
  H   H7        1.0  0.7234050029793754  0.052367335794037156  0.04141265553220859  1.0000
  H   H8        1.0  0.6586338376047686  0.021386791298118716  0.07988237307392818  1.0000
  C   C13       1.0  0.5283082018394183  0.01598133783194454  0.4394105215034502  1.0000
  C   C14       1.0  0.46265589099047055  0.032867912845983074  0.44073220952117326  1.0000
  C   C15       1.0  0.4208551713218634  0.03113306732651925  0.41518319864699366  1.0000
  C   C16       1.0  0.4450880876633924  0.01374534692580954  0.38808200844964175  1.0000
  C   C17       1.0  0.510351760880161  0.9959943792753251  0.38688632045477056  1.0000
  C   C18       1.0  0.5518162182891619  0.9968290264900374  0.412679577125707  1.0000
  H   H9        1.0  0.4440787907575331  0.0472514192779597  0.46145924160626606  1.0000
  H   H10       1.0  0.36959741331527957  0.042982956267319336  0.41645259454672345  1.0000
  H   H11       1.0  0.5294192989384396  0.9823928625027817  0.3659874941783893  1.0000
  H   H12       1.0  0.6022423649208543  0.9831196593814887  0.41184093452829956  1.0000
  C   C19       1.0  0.9992091824590662  0.1481335252740138  0.1603532122546633  1.0000
  C   C20       1.0  0.9865653609603883  0.11541335116260162  0.17730667970332936  1.0000
  C   C21       1.0  0.9378142521138728  0.11908040599893317  0.19974345721505435  1.0000
  C   C22       1.0  0.9007479531825698  0.1553108047280182  0.2048678229777148  1.0000
  C   C23       1.0  0.9148816463587756  0.18849017052839914  0.18874321270329084  1.0000
  C   C24       1.0  0.9650423546030084  0.18506587022988555  0.16696555288437379  1.0000
  H   H13       1.0  0.013468808363275464  0.08718164232499748  0.17304025096985673  1.0000
  H   H14       1.0  0.9288044567905187  0.09377569415191195  0.21295046151335592  1.0000
  H   H15       1.0  0.8856878543787232  0.21642547511815788  0.1924157101363032  1.0000
  H   H16       1.0  0.9764627310873952  0.21081646458398365  0.15482746850802187  1.0000
  C   C25       1.0  0.26640838432673214  0.05461949800011913  0.5174066428069581  1.0000
  C   C26       1.0  0.21304456617451056  0.08226165200502665  0.524083134331276  1.0000
  C   C27       1.0  0.18181364959698273  0.10375364147399435  0.5012991124169325  1.0000
  C   C28       1.0  0.20430932474479577  0.09788713305316017  0.4718294071418093  1.0000
  C   C29       1.0  0.25801037833886653  0.07055115111899685  0.46515557212894076  1.0000
  C   C30       1.0  0.2892248713000836  0.04893787652948799  0.48794306686768685  1.0000
  H   H17       1.0  0.1965502418241676  0.08765653746321582  0.5469340722960155  1.0000
  H   H18       1.0  0.1410564466570249  0.1253809708147598  0.5067188924860383  1.0000
  H   H19       1.0  0.274823286607168  0.06575333372553227  0.44236018259549215  1.0000
  H   H20       1.0  0.3303044038722125  0.027443171561913855  0.48265301363953866  1.0000
  C   C31       1.0  0.2218969000078489  0.0353863641935499  0.2187149629767361  1.0000
  C   C32       1.0  0.240105655441837  0.02777182579251704  0.2482549214278515  1.0000
  C   C33       1.0  0.20912103240687513  0.05005824408995817  0.27210951503968367  1.0000
  C   C34       1.0  0.1591747606028644  0.07963750727471286  0.2664403168080027  1.0000
  C   C35       1.0  0.1404049357149289  0.08705548211327505  0.2369503726416474  1.0000
  C   C36       1.0  0.17249722654651042  0.06532769076161496  0.21310501121738  1.0000
  H   H21       1.0  0.2771154047069072  0.004193456899701554  0.25279729007815316  1.0000
  H   H22       1.0  0.2230931000721676  0.04389164673776416  0.2949403838393846  1.0000
  H   H23       1.0  0.10230639233014796  0.11027650308641354  0.23248439068267668  1.0000
  H   H24       1.0  0.15949310581242007  0.07236879566973486  0.19043870746216962  1.0000
  C   C37       1.0  0.4278909178708502  0.17954318795572405  0.08245420523518464  1.0000
  C   C38       1.0  0.44479031063080454  0.21938773251024904  0.0790606860161622  1.0000
  C   C39       1.0  0.47688896302841527  0.22966927965627068  0.05307022033356436  1.0000
  C   C40       1.0  0.49244719962430605  0.2000718078834576  0.030575426563142317  1.0000
  C   C41       1.0  0.4749902962189945  0.16034850927470462  0.03386501002205025  1.0000
  C   C42       1.0  0.4428243832242751  0.15009738244287701  0.059810628852218425  1.0000
  H   H25       1.0  0.43375610226604705  0.24225453965087507  0.09665163777159322  1.0000
  H   H26       1.0  0.4911030985380987  0.2602263089579421  0.05072718767872063  1.0000
  H   H27       1.0  0.4847749265663351  0.13758326643506816  0.016061006362372655  1.0000
  H   H28       1.0  0.4273256848337226  0.11972682764028907  0.06180653083030952  1.0000
  C   C43       1.0  0.02190537188955741  0.4588117588689434  0.3259504249930347  1.0000
  C   C44       1.0  0.9616632531248425  0.4738287924841533  0.3134194627348573  1.0000
  C   C45       1.0  0.9501937377409451  0.4687539207592817  0.2824881613421204  1.0000
  C   C46       1.0  0.9998179012880652  0.44991010746226284  0.26402651182140435  1.0000
  C   C47       1.0  0.060677967075383865  0.4357351422509709  0.27656034083381775  1.0000
  C   C48       1.0  0.07181951547586063  0.4403651043018973  0.3075078183281903  1.0000
  H   H29       1.0  0.9230571473319656  0.4883003158327645  0.3275767348127171  1.0000
  H   H30       1.0  0.9021584103823461  0.4786462633427586  0.27303959169252645  1.0000
  H   H31       1.0  0.0992404726282925  0.42118981092968494  0.2625349948496792  1.0000
  H   H32       1.0  0.11916053540512234  0.4295128778375128  0.3171118246118983  1.0000
  C   C49       1.0  0.2401333458243256  0.31461925507217525  0.27997530553581457  1.0000
  C   C50       1.0  0.2559107234635366  0.3223928334619734  0.25055240103401044  1.0000
  C   C51       1.0  0.22372404470216262  0.30181318458139667  0.22649407931080026  1.0000
  C   C52       1.0  0.17752214212537615  0.2725427088887491  0.23188907897342326  1.0000
  C   C53       1.0  0.16319310463927217  0.2640458574819214  0.26134513002315773  1.0000
  C   C54       1.0  0.19375925578127598  0.28550836738219926  0.28539087091052384  1.0000
  H   H33       1.0  0.2919933226902797  0.3447965808772267  0.24637215645400984  1.0000
  H   H34       1.0  0.2343071518440818  0.30887720616047837  0.20384227035532074  1.0000
  H   H35       1.0  0.12927247103221948  0.2405346023019525  0.2656963752654668  1.0000
  H   H36       1.0  0.18251354177751167  0.2789686988702989  0.30816895982038733  1.0000
  C   C55       1.0  0.20068739327125404  0.33696998254254795  0.4836208971011925  1.0000
  C   C56       1.0  0.16096172447746676  0.3058648103316641  0.4721532336768438  1.0000
  C   C57       1.0  0.13208935431466332  0.2800963878148224  0.4915234937125526  1.0000
  C   C58       1.0  0.14364824050177238  0.2852443678820908  0.5223984135018463  1.0000
  C   C59       1.0  0.1820928192475484  0.3170218482288864  0.533973615806873  1.0000
  C   C60       1.0  0.21009151762798012  0.3431251584964154  0.5145541706628574  1.0000
  H   H37       1.0  0.15401832488141115  0.3009702650750595  0.44825452868498045  1.0000
  H   H38       1.0  0.10300603047700878  0.25526762264280534  0.48251077507548734  1.0000
  H   H39       1.0  0.18990969020287604  0.32167123630343686  0.5578964123840912  1.0000
  H   H40       1.0  0.23839145119286315  0.3681735886540693  0.5235394106957633  1.0000
  C   C61       1.0  0.49498614591849643  0.20784003774684776  0.2691410377913724  1.0000
  C   C62       1.0  0.4697995244220233  0.24495459318185278  0.28136681485545023  1.0000
  C   C63       1.0  0.43187915344252226  0.24681588889175404  0.3076591200053991  1.0000
  C   C64       1.0  0.41894217742060597  0.21160395411933652  0.32177020722076766  1.0000
  C   C65       1.0  0.44428900756894774  0.1745166938041483  0.3095671903339376  1.0000
  C   C66       1.0  0.48186693178350937  0.1726036545313225  0.28317325650590075  1.0000
  H   H41       1.0  0.4776757972205821  0.27208627618562675  0.27005855998566214  1.0000
  H   H42       1.0  0.4111590997354305  0.2754139395608829  0.31671203787946484  1.0000
  H   H43       1.0  0.43679695826084197  0.14735145657978155  0.32091677603878904  1.0000
  H   H44       1.0  0.5021826895954902  0.1438779515004068  0.27407445784823675  1.0000
  C   C67       1.0  0.4855707716607953  0.3948421441986046  0.19875167776699035  1.0000
  C   C68       1.0  0.4673752202525036  0.4226215485333829  0.17750437713851722  1.0000
  C   C69       1.0  0.4201214171073085  0.41283989225673895  0.15481350595493484  1.0000
  C   C70       1.0  0.3907384048134341  0.375345480837972  0.15338208359322225  1.0000
  C   C71       1.0  0.40839046234997356  0.3478330262642806  0.17487209390417272  1.0000
  C   C72       1.0  0.4554913301257135  0.3575763683884294  0.19756757159939337  1.0000
  H   H45       1.0  0.49086594047590826  0.4512457981019299  0.17793560244378726  1.0000
  H   H46       1.0  0.4063027198070015  0.4344577619913471  0.13841365756506824  1.0000
  H   H47       1.0  0.3862908534519485  0.3189865297103968  0.1740947134964538  1.0000
  H   H48       1.0  0.4685912540630526  0.33606272038325585  0.21409620026460716  1.0000
  C   C73       1.0  0.9349127133747572  0.9834627147124775  0.9960322179567028  1.0000
  C   C74       1.0  0.0034725839492339983  0.9878092574982054  0.002825393960877765  1.0000
  C   C75       1.0  0.028971271153106784  0.9786385334899423  0.031198736853528045  1.0000
  C   C76       1.0  0.9856729261550148  0.9653571925578297  0.05268038112504217  1.0000
  C   C77       1.0  0.9168678476596784  0.9623734547415117  0.04603475095448432  1.0000
  C   C78       1.0  0.8913591704498173  0.972161255647204  0.017966239620828543  1.0000
  H   H49       1.0  0.03694811287566191  0.9967209163492892  0.9858890417482522  1.0000
  H   H50       1.0  0.08245071057426025  0.98055346868974  0.03614414430420479  1.0000
  H   H51       1.0  0.008832055781126634  0.882576505880183  0.5387419101092925  1.0000
  H   H52       1.0  0.9504147310404548  0.9026734240048444  0.49219514311601487  1.0000
  C   C79       1.0  0.8946751558949323  0.260713151353767  0.46108923535557916  1.0000
  C   C80       1.0  0.9590409450947609  0.2763586659069094  0.4610032929936939  1.0000
  C   C81       1.0  0.9936335258209018  0.27748084250413846  0.43401671717365237  1.0000
  C   C82       1.0  0.9641532574148699  0.26290809122424946  0.40715810615579334  1.0000
  C   C83       1.0  0.9001532876020456  0.24662232233747056  0.40736489817850435  1.0000
  C   C84       1.0  0.8649225324335985  0.24611764099943922  0.43424473241671296  1.0000
  H   H53       1.0  0.9816817384571017  0.28822990311316427  0.4817044292303088  1.0000
  H   H54       1.0  0.04315393610961671  0.2896082624448525  0.43397243768595184  1.0000
  H   H55       1.0  0.8768162747062209  0.23552439332759978  0.3867287567975426  1.0000
  H   H56       1.0  0.8145464415594139  0.23462990525523497  0.4341812158549191  1.0000
  C   C85       1.0  0.6721851988667579  0.3500613463477564  0.3832709902266776  1.0000
  C   C86       1.0  0.729004127472375  0.32433788057321195  0.386770334377732  1.0000
  C   C87       1.0  0.7682037376925214  0.31179425021766344  0.36195433677234085  1.0000
  C   C88       1.0  0.7497387425687128  0.32440300104662373  0.3336318090531931  1.0000
  C   C89       1.0  0.6940790950400335  0.35101901244411654  0.3302722379129944  1.0000
  C   C90       1.0  0.6551739757814862  0.36377259164125586  0.35511898377651785  1.0000
  H   H57       1.0  0.7414000307814219  0.3126824182049024  0.4082829826843181  1.0000
  H   H58       1.0  0.8113385482339751  0.2912476007889814  0.36452550720963184  1.0000
  H   H59       1.0  0.681570309561667  0.3621309251900473  0.3085702680983142  1.0000
  H   H60       1.0  0.612566084303187  0.38463789101432  0.3526732635334646  1.0000
  C   C91       1.0  0.6453828212195378  0.36130370619560864  0.08703243609005844  1.0000
  C   C92       1.0  0.6457237247122392  0.37324022370488846  0.11752873056131297  1.0000
  C   C93       1.0  0.6798641973235665  0.34906121556226  0.13805419045454775  1.0000
  C   C94       1.0  0.7129198117568691  0.31294945434484067  0.12798809659940133  1.0000
  C   C95       1.0  0.7085263165671991  0.299914463901062  0.09785230077035391  1.0000
  C   C96       1.0  0.6754394156569695  0.32424093443484026  0.07735291448581957  1.0000
  H   H61       1.0  0.6222520792001186  0.4018327660065153  0.12513614353901464  1.0000
  H   H62       1.0  0.6823586271474019  0.35909290954389456  0.1614675594112415  1.0000
  H   H63       1.0  0.7307409908528415  0.2710698004549488  0.09028384268270366  1.0000
  H   H64       1.0  0.6739724416976355  0.3143458980035972  0.053954532391049845  1.0000
  Fe  Fe33      1.0  0.6814379799140314  0.37490409147783244  0.5223076485689866  1.0000
  S   S65       1.0  0.6848477017715019  0.4196461285861205  0.48725903477873617  1.0000
  S   S66       1.0  0.6183834840170712  0.3863928424615335  0.5630476802901658  1.0000
  Fe  Fe34      1.0  0.7838454039465803  0.3166447918721287  0.9953868220341759  1.0000
  S   S67       1.0  0.805169144310874  0.3530830060288151  0.9563793273645125  1.0000
  S   S68       1.0  0.8403459845567991  0.25767705860609524  0.9982084981027053  1.0000
  Fe  Fe35      1.0  0.7970696868651637  0.4087729166038633  0.48999672216830353  1.0000
  S   S69       1.0  0.8663450917033478  0.46036679610756925  0.4901274195444649  1.0000
  Fe  Fe36      1.0  0.6923272555149742  0.3625365974525505  0.9542468463448032  1.0000
  S   S70       1.0  0.6298475064428424  0.36050626797314206  0.9119908014255519  1.0000
  S   S71       1.0  0.7939486243643504  0.3685259021380231  0.5281247348124711  1.0000
  S   S72       1.0  0.671049571665768  0.32183075489127017  0.9905749264582423  1.0000
  Fe  Fe37      1.0  0.7184880965792904  0.2845793763818902  0.6958570542261275  1.0000
  S   S73       1.0  0.7255152221691488  0.33710930895755775  0.7290478802363469  1.0000
  S   S74       1.0  0.777022870251588  0.27919359825714496  0.6536443675503666  1.0000
  Fe  Fe38      1.0  0.6138894329933583  0.24433834437202817  0.7306261595525144  1.0000
  S   S75       1.0  0.6120481936722213  0.2928437067489753  0.7675278627402345  1.0000
  S   S76       1.0  0.5482981627851349  0.19135061363243003  0.7310511422298821  1.0000
  Fe  Fe39      1.0  0.6127116162405828  0.33485159753232163  0.7302821897985261  1.0000
  S   S77       1.0  0.5477657440702757  0.3914013149190184  0.7289843733727538  1.0000
  Fe  Fe40      1.0  0.7245626346218609  0.29003937602488583  0.7626969493395489  1.0000
  S   S78       1.0  0.7966232951123704  0.2897620805487945  0.8016103321086764  1.0000
  S   S79       1.0  0.6055489530599094  0.28642815279478123  0.6936504544586078  1.0000
  S   S80       1.0  0.7267716262746351  0.23744776507600626  0.7292990524503066  1.0000
  Fe  Fe41      1.0  0.07020215906185301  0.3050853884441838  0.8782756159046435  1.0000
  S   S81       1.0  0.06501733610733144  0.3578596134958715  0.9118049807669334  1.0000
  S   S82       1.0  0.9935919784255398  0.25689371393264493  0.8760235495052675  1.0000
  Fe  Fe42      1.0  0.188048356216477  0.3371851690999016  0.846026160313245  1.0000
  S   S83       1.0  0.19387349341329604  0.3921353069800729  0.8768098244045128  1.0000
  S   S84       1.0  0.25757241028534544  0.3348162332470175  0.8070695399047126  1.0000
  Fe  Fe43      1.0  0.17810574822165326  0.34993938497905974  0.913020630915889  1.0000
  S   S85       1.0  0.23435382017063086  0.3577332031972935  0.9568951598306731  1.0000
  Fe  Fe44      1.0  0.08128708417537325  0.39497795354249216  0.8728013177226078  1.0000
  S   S86       1.0  0.022237675739533294  0.45251711207402107  0.865710507839275  1.0000
  S   S87       1.0  0.18275531638250458  0.29398820860459496  0.8825197094217171  1.0000
  S   S88       1.0  0.07603650874756768  0.3431516214084197  0.8388384928244452  1.0000
  Fe  Fe45      1.0  0.1764810672370367  0.2537964851653411  0.5886473395045244  1.0000
  S   S89       1.0  0.18450749349946843  0.2029024795800736  0.6192131931579509  1.0000
  S   S90       1.0  0.11547654404879892  0.24968131996579915  0.5460000759771274  1.0000
  Fe  Fe46      1.0  0.2740454055235208  0.3042591972285809  0.6260606347039068  1.0000
  S   S91       1.0  0.28970635950651785  0.2580035811037035  0.6600490600384952  1.0000
  S   S92       1.0  0.3254028380668437  0.36319910880352313  0.62775768661975  1.0000
  Fe  Fe47      1.0  0.2951733697337766  0.21397976800236698  0.6206229289209627  1.0000
  S   S93       1.0  0.3766696529606395  0.16538767387984368  0.6173307331145936  1.0000
  Fe  Fe48      1.0  0.1778337101106105  0.2518005376872088  0.6556866599573971  1.0000
  S   S94       1.0  0.11589874031107593  0.2465310386047825  0.6965113426420845  1.0000
  S   S95       1.0  0.28791137326226157  0.2606703582850102  0.5865044463662763  1.0000
  S   S96       1.0  0.16080978093040565  0.30216883454925914  0.625110001736611  1.0000
  Fe  Fe49      1.0  0.11586407222715518  0.9777059207016245  0.6053679189461407  1.0000
  S   S97       1.0  0.1196933447396465  0.03213916610569074  0.5783490413532969  1.0000
  S   S98       1.0  0.04576240915703602  0.928216938426516  0.5926043561009888  1.0000
  Fe  Fe50      1.0  0.22302592178355263  0.007614067316210913  0.649462553582191  1.0000
  S   S99       1.0  0.23624308781256886  0.06396794822677923  0.6259135592197369  1.0000
  S   S100      1.0  0.2813483044365531  0.9991846219999682  0.6921791183239607  1.0000
  Fe  Fe51      1.0  0.12309278104188424  0.06632894114005626  0.6230523876124495  1.0000
  S   S101      1.0  0.07039414134828238  0.1264538722112035  0.6332031334655032  1.0000
  Fe  Fe52      1.0  0.23178324224158098  0.02396567621430108  0.5839928074944871  1.0000
  S   S102      1.0  0.30274646566289687  0.025854520000664193  0.5454591429684665  1.0000
  S   S103      1.0  0.10996501336774508  0.012186672213073764  0.6495602455096368  1.0000
  S   S104      1.0  0.2281508763616977  0.9668077814415976  0.6078750774748941  1.0000
  Fe  Fe53      1.0  0.3229489782062466  0.16359229105862982  0.8572193290073948  1.0000
  S   S105      1.0  0.3192668678947655  0.10914796119560323  0.8255568023595549  1.0000
  S   S106      1.0  0.38800233095684644  0.2158315917997385  0.8516249644631739  1.0000
  Fe  Fe54      1.0  0.22184789768109967  0.13236320551867298  0.8993240633692244  1.0000
  S   S107      1.0  0.20750936782835624  0.07561339294879169  0.871063974364174  1.0000
  S   S108      1.0  0.16656330001301342  0.1444454690619546  0.9426411566574113  1.0000
  Fe  Fe55      1.0  0.3201154763821968  0.0741703682734058  0.866894826305058  1.0000
  S   S109      1.0  0.37633281850812633  0.014304561065229255  0.8692086651356146  1.0000
  Fe  Fe56      1.0  0.20758061306163486  0.11534548987141383  0.8325007852352379  1.0000
  S   S110      1.0  0.13716457597389972  0.10945618299536601  0.7930319138682876  1.0000
  S   S111      1.0  0.3349393435161647  0.1286084889424586  0.8979190052704464  1.0000
  S   S112      1.0  0.2106504720723655  0.17273500315458318  0.8610639059650439  1.0000
  Fe  Fe57      1.0  0.8051332324627318  0.5388841640700429  0.6762569716578505  1.0000
  S   S113      1.0  0.6768655652046031  0.08115889617146776  0.7160144829726822  1.0000
  S   S114      1.0  0.7413760030559989  0.5316201859560142  0.6346008564485145  1.0000
  Fe  Fe58      1.0  0.9103242160952462  0.5001402106661834  0.7166575131993284  1.0000
  S   S115      1.0  0.9104776135197379  0.5541858856734997  0.7487707239369986  1.0000
  S   S116      1.0  0.9812245200333389  0.44789796738574844  0.7255500302340853  1.0000
  Fe  Fe59      1.0  0.7981191062427313  0.5545284808398844  0.7425456602975141  1.0000
  S   S117      1.0  0.5936823340152848  0.04345768450335629  0.7874326656213493  1.0000
  Fe  Fe60      1.0  0.7881738539740484  0.0779547811413551  0.7260199183673794  1.0000
  S   S118      1.0  0.8448939156037479  0.13483066713504097  0.7310027932169548  1.0000
  S   S119      1.0  0.7976272738306548  0.4975417287698075  0.7135936698893584  1.0000
  S   S120      1.0  0.9186694197682707  0.5351511821742002  0.6759725363382337  1.0000
  Fe  Fe61      1.0  0.6040671544582431  0.16745970682645395  0.4905262911289309  1.0000
  S   S121      1.0  0.6247498244145242  0.11571047932912351  0.5193520611452652  1.0000
  S   S122      1.0  0.5283478658502788  0.21653810247417324  0.503951802631115  1.0000
  Fe  Fe62      1.0  0.6991454112132557  0.1189325438607964  0.9420005065264491  1.0000
  S   S123      1.0  0.8277459482480587  0.5862614516287064  0.9574076750968752  1.0000
  S   S124      1.0  0.7456822942610569  0.1266909398865127  0.8973159984957223  1.0000
  Fe  Fe63      1.0  0.7146657101488809  0.5842058765023636  0.9577443033628592  1.0000
  S   S125      1.0  0.6654654179053912  0.5247359271001317  0.9506099722511765  1.0000
  Fe  Fe64      1.0  0.8186342288046763  0.6281831280243901  0.497176976326483  1.0000
  S   S126      1.0  0.8819698028988173  0.6302307620096713  0.5390059431710474  1.0000
  S   S127      1.0  0.58770587875358  0.11517946898514414  0.9490137183276386  1.0000
  S   S128      1.0  0.7131381887466429  0.18014344927349588  0.48481258998680005  1.0000
  C   C97       1.0  0.6979164825406883  0.10663374726617597  0.8670396536204683  1.0000
  C   C98       1.0  0.8486439851324724  0.6312666871210321  0.8309028530073967  1.0000
  C   C99       1.0  0.8162383682431573  0.6118339624698561  0.8063433335518124  1.0000
  C   C100      1.0  0.6270411795843487  0.07211394529458486  0.8178164153418492  1.0000
  C   C101      1.0  0.6072630810354654  0.06559533023101169  0.8469953763277586  1.0000
  C   C102      1.0  0.6433691314888734  0.08239362040030496  0.8716012843588491  1.0000
  H   H65       1.0  0.8859827295442237  0.6532184165459739  0.8273682951561183  1.0000
  H   H66       1.0  0.8288393574336054  0.618627419512553  0.7837968738293556  1.0000
  H   H67       1.0  0.5666758748838248  0.045684007291245075  0.8506074711242974  1.0000
  H   H68       1.0  0.6301389979307402  0.07541015481614997  0.8939768452319059  1.0000
  C   C103      1.0  0.78039953329318  0.5583426006258578  0.6076201949587577  1.0000
  C   C104      1.0  0.8267459784408867  0.5872381757256447  0.6167397818351785  1.0000
  C   C105      1.0  0.8597443778624033  0.6081519078986302  0.5954548945373814  1.0000
  C   C106      1.0  0.8459532986748728  0.6005289301722689  0.5649788169392226  1.0000
  C   C107      1.0  0.7996663993187891  0.5714855858066956  0.555734469653012  1.0000
  C   C108      1.0  0.7668659513849408  0.5503388967618913  0.5770917725462439  1.0000
  H   H69       1.0  0.8365953574700741  0.5939923577598152  0.6402704012711058  1.0000
  H   H70       1.0  0.8945317116085307  0.6311150680534838  0.6026251155542764  1.0000
  H   H71       1.0  0.7193576769494359  0.055230140111172527  0.5394102850648956  1.0000
  H   H72       1.0  0.6571149160383908  0.016396236802205522  0.5746658307355668  1.0000
  C   C109      1.0  0.5115385574148685  0.009910425324874605  0.9525272724209622  1.0000
  C   C110      1.0  0.5187715651559508  0.979756581322192  0.9295447717708734  1.0000
  C   C111      1.0  0.47639162749151687  0.9805824333855139  0.9040718033274476  1.0000
  C   C112      1.0  0.4269569197065632  0.011512919600482828  0.9016878844501738  1.0000
  C   C113      1.0  0.41855981831015737  0.040486213572849795  0.9252635850374376  1.0000
  C   C114      1.0  0.4611402995629551  0.0400821067774551  0.9504643107028568  1.0000
  H   H73       1.0  0.5586134940845238  0.9567068907634434  0.9307969614851797  1.0000
  H   H74       1.0  0.48326127243363143  0.9578805418098709  0.886002842106489  1.0000
  H   H75       1.0  0.3792189020121729  0.06321276191833647  0.9242094257821252  1.0000
  H   H76       1.0  0.45506081209165494  0.0632227985521266  0.9683329256508453  1.0000
  C   C115      1.0  0.013550128895051694  0.12847776116278953  0.6629752952697421  1.0000
  C   C116      1.0  0.9901168471777847  0.16579893383785155  0.6756594379672289  1.0000
  C   C117      1.0  0.939501393175318  0.16782755912571734  0.6972914055437025  1.0000
  C   C118      1.0  0.9132574185513664  0.1324541776913994  0.7066443395710226  1.0000
  C   C119      1.0  0.9402074897934759  0.09527604318292576  0.6956520809991855  1.0000
  C   C120      1.0  0.9889318184849201  0.09326637192144915  0.6732997314060732  1.0000
  H   H77       1.0  0.010374532826436189  0.19319667233459076  0.6685960295888678  1.0000
  H   H78       1.0  0.9196551929988148  0.19670906000969185  0.7061710518954551  1.0000
  H   H79       1.0  0.923589607887833  0.06799223276483718  0.7043136898444162  1.0000
  H   H80       1.0  0.005639152000618028  0.06447234822329659  0.6635334048053462  1.0000
  C   C121      1.0  0.2624425072  0.07429442565832264  0.017822302545299484  1.0000
  C   C122      1.0  0.20923064831812066  0.10224404394475393  0.024018572967991147  1.0000
  C   C123      1.0  0.18126220804766172  0.12499750608478113  0.0011455184399793428  1.0000
  C   C124      1.0  0.20577248529644382  0.11924334797857909  0.9719844541879927  1.0000
  C   C125      1.0  0.26052062666658304  0.09238322453082067  0.9661561199626205  1.0000
  C   C126      1.0  0.28985094838666453  0.07055642952338737  0.9891593736633559  1.0000
  H   H81       1.0  0.18966508747977603  0.10643080544899401  0.04645702198383517  1.0000
  H   H82       1.0  0.14062285498115243  0.1468241611778318  0.006218142156932949  1.0000
  H   H83       1.0  0.27871515084258575  0.08743044630435991  0.9436851292652239  1.0000
  H   H84       1.0  0.33129278473978296  0.04910330364251145  0.9843737425312598  1.0000
  C   C127      1.0  0.2425716863021563  0.030387319263745584  0.7202856252194437  1.0000
  C   C128      1.0  0.1912633963521322  0.05830557212186626  0.7128465203432333  1.0000
  C   C129      1.0  0.15681439958810875  0.08129603552671465  0.73536799820733  1.0000
  C   C130      1.0  0.175118327831762  0.07733894511390306  0.7653812535424163  1.0000
  C   C131      1.0  0.2269399080228748  0.04974929861171798  0.7729016788866142  1.0000
  C   C132      1.0  0.26085528633439853  0.026380782917695727  0.7503397376943151  1.0000
  H   H85       1.0  0.17839075518678452  0.06278346813816274  0.6897354333411314  1.0000
  H   H86       1.0  0.11722092330578765  0.10291850601346818  0.7294221007070195  1.0000
  H   H87       1.0  0.24050741330892308  0.04613392941880293  0.7961400740178494  1.0000
  H   H88       1.0  0.3005817560758081  0.004925395120831639  0.7562212107280357  1.0000
  C   C133      1.0  0.42399725616574235  0.178417404011462  0.587006825331895  1.0000
  C   C134      1.0  0.44133186911537364  0.14969891765038365  0.5641391591367871  1.0000
  C   C135      1.0  0.47369604624479683  0.16136592373493538  0.5385897955925257  1.0000
  C   C136      1.0  0.48876022280317893  0.20167257459776955  0.5359604702400763  1.0000
  C   C137      1.0  0.47203075390687466  0.2302339592798093  0.5589894582415215  1.0000
  C   C138      1.0  0.44033479202961634  0.2185285944896743  0.5846435969718232  1.0000
  H   H89       1.0  0.42733507333514403  0.11883809555743886  0.5655805582349956  1.0000
  H   H90       1.0  0.484758887794313  0.1393169997788983  0.5204675671010347  1.0000
  H   H91       1.0  0.4845512679063968  0.26123232127136603  0.5572159787762935  1.0000
  H   H92       1.0  0.4281096277762006  0.2406599829499974  0.6026079055038219  1.0000
  C   C139      1.0  0.012681831372975247  0.453406970948567  0.8267985602656134  1.0000
  C   C140      1.0  0.062108959829498156  0.4347849035947239  0.80811697945588  1.0000
  C   C141      1.0  0.05250078089148613  0.4328669659400226  0.7769623313679352  1.0000
  C   C142      1.0  0.9933580216492357  0.449558868364261  0.7644713411726128  1.0000
  C   C143      1.0  0.9438636736010725  0.4680119838713829  0.7831967806678071  1.0000
  C   C144      1.0  0.9540925524088945  0.47066781881383024  0.8142928694245762  1.0000
  H   H93       1.0  0.10811362843122102  0.4219703257197727  0.8176710376921971  1.0000
  H   H94       1.0  0.09101583700011262  0.4185493372985124  0.7627306910895287  1.0000
  H   H95       1.0  0.8968300740108099  0.4795335772553975  0.773796058180585  1.0000
  H   H96       1.0  0.9156914433694632  0.48504439819027945  0.8285715286716875  1.0000
  C   C145      1.0  0.21876008941093825  0.30995410972353143  0.7764527863692541  1.0000
  C   C146      1.0  0.17191617953291194  0.2806968809894694  0.7808861763834716  1.0000
  C   C147      1.0  0.1409554839284443  0.2608287067292041  0.7561738130138668  1.0000
  C   C148      1.0  0.15535845726847977  0.2710847464559876  0.7271701323404264  1.0000
  C   C149      1.0  0.2012750617745576  0.3008874454180167  0.722786980923471  1.0000
  C   C150      1.0  0.23393974917259855  0.3198265245228281  0.7474272896980977  1.0000
  H   H97       1.0  0.16106095698369036  0.2725914708070739  0.803352061953612  1.0000
  H   H98       1.0  0.10711651500723164  0.2369104589603147  0.7595312732792787  1.0000
  H   H99       1.0  0.21159010161685288  0.3094346269290091  0.7004522038873922  1.0000
  H   H100      1.0  0.27029330387514505  0.3424247803914999  0.7440518981285538  1.0000
  C   C151      1.0  0.19416556414924194  0.330824371438859  0.9834172334112592  1.0000
  C   C152      1.0  0.15058809765547335  0.30048437532815053  0.9740715007955801  1.0000
  C   C153      1.0  0.1226233091355223  0.27672623212907266  0.9951623597403593  1.0000
  C   C154      1.0  0.1386236440320086  0.283269941499619  0.025598286381576685  1.0000
  C   C155      1.0  0.18023190347872367  0.3146438946045508  0.035044590812416176  1.0000
  C   C156      1.0  0.20782783708990166  0.33848495313484794  0.01393369099723496  1.0000
  H   H101      1.0  0.14073074218106718  0.2941662020105146  0.9504802729283885  1.0000
  H   H102      1.0  0.09116002888707851  0.2521583054941195  0.9877598857012168  1.0000
  H   H103      1.0  0.19129043756083056  0.32047729275759634  0.05863112161391881  1.0000
  H   H104      1.0  0.23948203416771058  0.36282268175075544  0.021308147368634733  1.0000
  C   C157      1.0  0.5016549228641762  0.19744778361376142  0.7639623517063638  1.0000
  C   C158      1.0  0.47599172503986203  0.235658213909254  0.7735505735467793  1.0000
  C   C159      1.0  0.44092354314699966  0.24111918954665246  0.8004891704356688  1.0000
  C   C160      1.0  0.43084463120557925  0.208332988479172  0.8177295682008451  1.0000
  C   C161      1.0  0.45563278619788444  0.16997448050890265  0.8079488905104906  1.0000
  C   C162      1.0  0.4908690021183261  0.16449248932339808  0.7809827085416536  1.0000
  H   H105      1.0  0.48155078592280864  0.2608142791838513  0.7597490616270567  1.0000
  H   H106      1.0  0.419815980190769  0.27044853344670683  0.8075347883741423  1.0000
  H   H107      1.0  0.44958396202000156  0.14464862174681214  0.8215525192024177  1.0000
  H   H108      1.0  0.5114419730336743  0.13494022454792837  0.7738101437073438  1.0000
  C   C163      1.0  0.4846536389847369  0.38352296603031727  0.7015116328137455  1.0000
  C   C164      1.0  0.4617324685769054  0.41506542916165123  0.6842384517355173  1.0000
  C   C165      1.0  0.4135071310384326  0.40838622505135874  0.6613506608762512  1.0000
  C   C166      1.0  0.38761340267538597  0.3702191428629586  0.6558334641365599  1.0000
  C   C167      1.0  0.41039681609773576  0.33873687159058896  0.6732154619829293  1.0000
  C   C168      1.0  0.45839489613207146  0.34543255504466397  0.6961861528643246  1.0000
  H   H109      1.0  0.4823610450809987  0.444372150134433  0.6880059528892447  1.0000
  H   H110      1.0  0.39620949808631073  0.4328549792839207  0.6479259458140753  1.0000
  H   H111      1.0  0.39217709543002205  0.3090619563450246  0.6687692585848177  1.0000
  H   H112      1.0  0.4748791826000008  0.32104732970473143  0.7098010072556978  1.0000
  C   C169      1.0  0.9347804843731163  0.964669983169007  0.5077181594491792  1.0000
  C   C170      1.0  0.9468723217437236  0.9935234689324092  0.5309048227349515  1.0000
  C   C171      1.0  0.9806451336284336  0.9822230405471637  0.5570955013655781  1.0000
  C   C172      1.0  0.0028372926994285758  0.9422139061407455  0.5600190201710353  1.0000
  C   C173      1.0  0.9911540535259797  0.913457684490769  0.5367287733595867  1.0000
  C   C174      1.0  0.9577176818723704  0.9247950331452587  0.5104879209795886  1.0000
  H   H113      1.0  0.9281818077444383  0.024262664366774565  0.5290696078912891  1.0000
  H   H114      1.0  0.9873741102638262  0.004310573007969058  0.5754502005412219  1.0000
  H   H115      1.0  0.882988229948716  0.9523779558678531  0.06235135258429492  1.0000
  H   H116      1.0  0.8378335359818837  0.9701344668988753  0.013068244695505271  1.0000
  C   C175      1.0  0.885747423908597  0.25348334317464916  0.9650086873758258  1.0000
  C   C176      1.0  0.9480155466559438  0.27149366529001184  0.9638315006451953  1.0000
  C   C177      1.0  0.9817528622203986  0.2716062198684247  0.9365808571151417  1.0000
  C   C178      1.0  0.9530293420702006  0.25431763259216544  0.9104120493119908  1.0000
  C   C179      1.0  0.8910615768820341  0.23566748937532842  0.9117283099383058  1.0000
  C   C180      1.0  0.8572985534163128  0.23538762778798006  0.9390170215624385  1.0000
  H   H117      1.0  0.9696604753924398  0.2859975898793335  0.983844860878618  1.0000
  H   H118      1.0  0.02987893590614976  0.28526154590765607  0.9357948761788039  1.0000
  H   H119      1.0  0.8677628826140182  0.22270345148869064  0.8916056299645513  1.0000
  H   H120      1.0  0.8084217658347045  0.2221235035430852  0.9397967661868426  1.0000
  C   C181      1.0  0.6793635503983941  0.342634936958054  0.8817363006455289  1.0000
  C   C182      1.0  0.7367288576768798  0.3176334923794306  0.8860538618068737  1.0000
  C   C183      1.0  0.7749960928359715  0.3028893383193437  0.8614525408247394  1.0000
  C   C184      1.0  0.7549593619297161  0.3125387664898789  0.8325622916192611  1.0000
  C   C185      1.0  0.6990068288324297  0.3386552428576728  0.8283629886632629  1.0000
  C   C186      1.0  0.661159076786883  0.3536255374068754  0.8529673177790391  1.0000
  H   H121      1.0  0.750449558712082  0.3083137388888121  0.9081216280276472  1.0000
  H   H122      1.0  0.8185920608721207  0.28285999822855584  0.8647136994565167  1.0000
  H   H123      1.0  0.6850975157270943  0.34746570788779807  0.806153104533019  1.0000
  H   H124      1.0  0.6182103799799135  0.37399057447598194  0.849801245722423  1.0000
  C   C187      1.0  0.6556052454718945  0.35406051384550435  0.5884890830656614  1.0000
  C   C188      1.0  0.6483435235189428  0.3621679834771283  0.61928583571518  1.0000
  C   C189      1.0  0.6858867098314242  0.33912520965946075  0.6394137841175347  1.0000
  C   C190      1.0  0.7306237033923089  0.3081709069694747  0.6286810767510241  1.0000
  C   C191      1.0  0.7366280423393673  0.2995747008755811  0.5979431183580239  1.0000
  C   C192      1.0  0.6986598354876941  0.322259808888951  0.5778974917958051  1.0000
  H   H125      1.0  0.615192462836631  0.38680351415098657  0.6275913437065064  1.0000
  H   H126      1.0  0.6811728322138254  0.3460288171931635  0.663211452690754  1.0000
  H   H127      1.0  0.7695539776557592  0.274955073239491  0.5895583748139007  1.0000
  H   H128      1.0  0.7030103597545483  0.31502139037030236  0.5541606181569436  1.0000
  Fe  Fe65      1.0  0.7176908375341684  0.8965980903471946  0.9890930245682653  1.0000
  S   S129      1.0  0.7145149292282919  0.9485817846990146  0.9592069224933039  1.0000
  S   S130      1.0  0.664082959960303  0.8987533952844926  0.03294070696437946  1.0000
  Fe  Fe66      1.0  0.8198587919177722  0.8363644480887922  0.4487932730523111  1.0000
  S   S131      1.0  0.8322467954770493  0.8900258792123552  0.42171865765936084  1.0000
  S   S132      1.0  0.8756943839024846  0.7765207175937374  0.4425985435955821  1.0000
  Fe  Fe67      1.0  0.826637936661929  0.9374725663014953  0.9570995290100851  1.0000
  S   S133      1.0  0.9056454245615505  0.9841183771563932  0.9590441086084623  1.0000
  Fe  Fe68      1.0  0.719144559932887  0.8926820786451063  0.42007801154026203  1.0000
  S   S134      1.0  0.6644245799419483  0.9024171137257027  0.3766530032666416  1.0000
  S   S135      1.0  0.8300032099812127  0.8886481500049557  0.9896400750592274  1.0000
  S   S136      1.0  0.7070346890269711  0.83641430123779  0.4439234075169228  1.0000
  Fe  Fe69      1.0  0.741539274331509  0.7881963427656412  0.16648074414531486  1.0000
  S   S137      1.0  0.7459449074504417  0.8469183593769049  0.19331059016023747  1.0000
  S   S138      1.0  0.7961244102634831  0.7786612629914008  0.12292251426300464  1.0000
  Fe  Fe70      1.0  0.6528807964305683  0.7507301554250209  0.21089955943529748  1.0000
  S   S139      1.0  0.6488726236169962  0.806287559851911  0.2414474652342722  1.0000
  S   S140      1.0  0.6026047587822234  0.6946160576745646  0.2224244674618816  1.0000
  Fe  Fe71      1.0  0.6350481170146204  0.8393790056301629  0.19943249179345504  1.0000
  S   S141      1.0  0.5614952202312715  0.8925393266692917  0.1989327627440691  1.0000
  Fe  Fe72      1.0  0.7592190206675735  0.8084362513409495  0.23243292427758097  1.0000
  S   S142      1.0  0.8321463654017108  0.8187027099924681  0.2704077174932252  1.0000
  S   S143      1.0  0.6291582290971656  0.7831491466030182  0.1693959562614337  1.0000
  S   S144      1.0  0.7651358759717952  0.7500293052697018  0.20514254083661068  1.0000
  Fe  Fe73      1.0  0.14486760908040372  0.8207671927075402  0.34671118581212906  1.0000
  S   S145      1.0  0.12899161664580347  0.8649432162536727  0.38605093364638454  1.0000
  S   S146      1.0  0.09888617115497887  0.7603343343667762  0.3437582255998487  1.0000
  Fe  Fe74      1.0  0.24101028887640405  0.8728582050838193  0.31706527789504546  1.0000
  S   S147      1.0  0.2340367411141053  0.922006589224096  0.3533683699590959  1.0000
  S   S148      1.0  0.308676147016039  0.8762249856949598  0.277817781968525  1.0000
  Fe  Fe75      1.0  0.24068941302154193  0.8714651784534969  0.38414700299119303  1.0000
  S   S149      1.0  0.3028179962459431  0.8741645001180366  0.4263059960861172  1.0000
  Fe  Fe76      1.0  0.12311707621012319  0.911245490918595  0.3519303052053239  1.0000
  S   S150      1.0  0.048922695952615815  0.9637788996317488  0.3567482188087272  1.0000
  S   S151      1.0  0.257567462902154  0.8231145914389972  0.3480724907821469  1.0000
  S   S152      1.0  0.12893196027637185  0.8666394436338495  0.3123092814485828  1.0000
  Fe  Fe77      1.0  0.23564265106059754  0.7655355012281607  0.06050912063376543  1.0000
  S   S153      1.0  0.2537056545004837  0.7222411102519997  0.09637979003579152  1.0000
  S   S154      1.0  0.17485899455476903  0.7534628653449705  0.01857803585906231  1.0000
  Fe  Fe78      1.0  0.32604219064332  0.8271165209267229  0.0897043908421124  1.0000
  S   S155      1.0  0.35354454123605233  0.7896298352171874  0.12850668627726228  1.0000
  S   S156      1.0  0.3675988555912823  0.8878151360672141  0.08590877971426689  1.0000
  Fe  Fe79      1.0  0.3617538052375542  0.738773692480542  0.09386015217459874  1.0000
  S   S157      1.0  0.4460747723305613  0.692233173191014  0.09240145119370607  1.0000
  Fe  Fe80      1.0  0.24302231574615085  0.776987514815972  0.1278091954887632  1.0000
  S   S158      1.0  0.18118113634650326  0.7748742920237579  0.16924211317473653  1.0000
  S   S159      1.0  0.3449849149945474  0.7773054144832854  0.054991281002055296  1.0000
  S   S160      1.0  0.21457749933433684  0.8190656305602431  0.09203969477704793  1.0000
  Fe  Fe81      1.0  0.16984079235092814  0.4814198960381826  0.08997891445090556  1.0000
  S   S161      1.0  0.17763025994597287  0.5213628355424804  0.05178814488306578  1.0000
  S   S162      1.0  0.09663338656925148  0.43195921533384735  0.09033915616407026  1.0000
  Fe  Fe82      1.0  0.2862362828455853  0.5187442754366337  0.12457515545847496  1.0000
  S   S163      1.0  0.3065768470584162  0.5618437651688485  0.08954908867826694  1.0000
  S   S164      1.0  0.34652250359977504  0.5149557090264801  0.16736133408941237  1.0000
  Fe  Fe83      1.0  0.1938741767928732  0.5701410658308783  0.0873129135607266  1.0000
  S   S165      1.0  0.1464470107850825  0.6318558786931285  0.08608614890710023  1.0000
  Fe  Fe84      1.0  0.28927257882260865  0.5096439346632317  0.05689130051456903  1.0000
  S   S166      1.0  0.3502548218711094  0.4963082521492573  0.015582992420698603  1.0000
  S   S167      1.0  0.1742425224244035  0.5314552181624665  0.12535984463396155  1.0000
  S   S168      1.0  0.28058624169582247  0.46522849057723836  0.09197738598526382  1.0000
  Fe  Fe85      1.0  0.3996365679822998  0.6657858295087214  0.34703190758335434  1.0000
  S   S169      1.0  0.4028374258459844  0.6205772748944148  0.3078234841244466  1.0000
  S   S170      1.0  0.4627952993497622  0.7201364748814034  0.3479563021952291  1.0000
  Fe  Fe86      1.0  0.29408057369904533  0.6219875257526271  0.3788857146499986  1.0000
  S   S171      1.0  0.28799822682690385  0.5726394931863251  0.3428922072431718  1.0000
  S   S172      1.0  0.23245325489800447  0.6254382469108132  0.4204336565228162  1.0000
  Fe  Fe87      1.0  0.40098542564080836  0.5750483981248073  0.3426746474487009  1.0000
  S   S173      1.0  0.4644088878514066  0.5175849286714963  0.340014173925677  1.0000
  Fe  Fe88      1.0  0.2901775982873141  0.6227920753783558  0.3117261780162975  1.0000
  S   S174      1.0  0.22166151907034135  0.6277133345863708  0.271700673001031  1.0000
  S   S175      1.0  0.4068983303960398  0.6202486519966024  0.38179427903326135  1.0000
  S   S176      1.0  0.2867675218910642  0.6721542953181928  0.34773269221086134  1.0000
  Fe  Fe89      1.0  0.6992940259413245  0.04559158925241902  0.18983972959633788  1.0000
  S   S177      1.0  0.8019936224132235  0.5926599167160724  0.20134338480390288  1.0000
  S   S178      1.0  0.6541530105183864  0.03498103953961551  0.14383987920233351  1.0000
  Fe  Fe90      1.0  0.7989825191356299  0.010023532656608714  0.23405672006192724  1.0000
  S   S179      1.0  0.783566764138065  0.06105450616191166  0.2683040299073223  1.0000
  S   S180      1.0  0.8677387882596752  0.955940188613962  0.23986639364047227  1.0000
  Fe  Fe91      1.0  0.6738561492482324  0.05627578560936475  0.25626067057208285  1.0000
  S   S181      1.0  0.732962826316071  0.5607146088087267  0.2787234658941266  1.0000
  Fe  Fe92      1.0  0.9151220298703077  0.5870783221272421  0.20534546728878975  1.0000
  S   S182      1.0  0.9813395727737786  0.6402185743296998  0.20533399374119657  1.0000
  S   S183      1.0  0.6886921721331614  0.0015238734921421138  0.22524158526592689  1.0000
  S   S184      1.0  0.8112158245850561  0.04935697820515661  0.19593392274941532  1.0000
  Fe  Fe93      1.0  0.6945309009578859  0.6737861628621656  0.9713754960010007  1.0000
  S   S185      1.0  0.7044076999084935  0.6217146640540122  0.0008791004953026534  1.0000
  S   S186      1.0  0.6160192292414837  0.7236458547921532  0.9787869434552969  1.0000
  Fe  Fe94      1.0  0.819454463217398  0.6347094764558471  0.43071837537675367  1.0000
  S   S187      1.0  0.7378530722148163  0.08275189818569917  0.46931503381535955  1.0000
  S   S188      1.0  0.8834428140733137  0.6403072591076139  0.39057256278225694  1.0000
  Fe  Fe95      1.0  0.6267233548513236  0.07821417919262852  0.47626565062142584  1.0000
  S   S189      1.0  0.5802219815353382  0.018255920145878957  0.471394012699801  1.0000
  Fe  Fe96      1.0  0.7337244645326813  0.11688677834374905  0.00800399492982778  1.0000
  S   S190      1.0  0.8116910786503178  0.11853797239915842  0.04502430642737933  1.0000
  S   S191      1.0  0.7073218958062992  0.631637690454134  0.4259351680692362  1.0000
  S   S192      1.0  0.8055582591748457  0.6846012965822282  0.9709660098168785  1.0000
  C   C193      1.0  0.8433819932158488  0.6172530384632486  0.35940561387857733  1.0000
  C   C194      1.0  0.7164703345828447  0.1365063412079217  0.341724116329483  1.0000
  C   C195      1.0  0.6816618578177388  0.11702515560140414  0.3179199834839742  1.0000
  C   C196      1.0  0.7752153111313576  0.5827946703560364  0.30961628799480956  1.0000
  C   C197      1.0  0.825895500285665  0.609966693330909  0.3056220161033835  1.0000
  C   C198      1.0  0.8596026709625727  0.6274882864818222  0.3305886356959824  1.0000
  H   H129      1.0  0.7507551540128947  0.15975064300430364  0.33729635863875124  1.0000
  H   H130      1.0  0.6894401563811386  0.1252142125966298  0.2952030989468503  1.0000
  H   H131      1.0  0.8377391908726349  0.6182525257741848  0.2833354955876957  1.0000
  H   H132      1.0  0.8970313679377331  0.649564067360262  0.32766082355135984  1.0000
  C   C199      1.0  0.7030166207798066  0.05598738958016969  0.11687062527505865  1.0000
  C   C200      1.0  0.7507810081419117  0.08452908824703953  0.12526492064088202  1.0000
  C   C201      1.0  0.7877536058281205  0.10216337378065421  0.10332968821876735  1.0000
  C   C202      1.0  0.7763120222115645  0.09155408642307017  0.07296932641949402  1.0000
  C   C203      1.0  0.7308340215750347  0.06170408950297146  0.06477876698264606  1.0000
  C   C204      1.0  0.6939688879446922  0.04414572994982424  0.08663132771077034  1.0000
  H   H133      1.0  0.7581059275007995  0.0939440898117716  0.14854373115740113  1.0000
  H   H134      1.0  0.8234090226826171  0.124856544640356  0.10990421920801463  1.0000
  H   H135      1.0  0.806289439769513  0.560753352467578  0.02916696538993736  1.0000
  H   H136      1.0  0.7572226106057192  0.5175953150306449  0.06593442686422117  1.0000
  C   C205      1.0  0.6065385094682995  0.5227742776438659  0.42145714626131675  1.0000
  C   C206      1.0  0.5820867182264491  0.4857999345045489  0.4105672146426643  1.0000
  C   C207      1.0  0.5391723680926999  0.4838289843999245  0.3852204505931325  1.0000
  C   C208      1.0  0.5208046817053449  0.5188767868070476  0.37072580597752197  1.0000
  C   C209      1.0  0.5454829446510182  0.5556072369874169  0.38159762759322285  1.0000
  C   C210      1.0  0.5867778432177334  0.5576392178647319  0.40727079701886554  1.0000
  H   H137      1.0  0.5962899843937732  0.45865889468248866  0.42168308013553685  1.0000
  H   H138      1.0  0.5192770648267353  0.4553328132655056  0.37746255079936214  1.0000
  H   H139      1.0  0.5331095234642634  0.5825937793872975  0.37011829612909564  1.0000
  H   H140      1.0  0.6017592916262375  0.5864044439001467  0.41634444167440704  1.0000
  C   C211      1.0  0.0994129434742772  0.636305746978629  0.11878568813642587  1.0000
  C   C212      1.0  0.11857480801976505  0.6621289450918305  0.14301109344135052  1.0000
  C   C213      1.0  0.08167046418162971  0.6639263370080724  0.16960340332369028  1.0000
  C   C214      1.0  0.02593866527684696  0.6398108209823039  0.17185480476328643  1.0000
  C   C215      1.0  0.006232552575157202  0.6150001077238415  0.14732209131888935  1.0000
  C   C216      1.0  0.04336299584663135  0.612724011172384  0.12097086306265513  1.0000
  H   H141      1.0  0.16253466141849793  0.6800880835681101  0.14145977725481262  1.0000
  H   H142      1.0  0.09722922372100617  0.6832721463543078  0.18851446938228417  1.0000
  H   H143      1.0  0.9620046133257596  0.5977112643947974  0.14848199489802713  1.0000
  H   H144      1.0  0.02830381313373144  0.592819937135936  0.10224928179639603  1.0000
  C   C217      1.0  0.32597344822719726  0.5426765929551712  0.4887440449580486  1.0000
  C   C218      1.0  0.2808924606820194  0.5742729366173925  0.4977977451723982  1.0000
  C   C219      1.0  0.2523555029379738  0.5996269369350249  0.4767218282996351  1.0000
  C   C220      1.0  0.2697309042648671  0.5939314487912996  0.44657607285969303  1.0000
  C   C221      1.0  0.3167409613186718  0.5632573553923687  0.43759644350162913  1.0000
  C   C222      1.0  0.34482728343013697  0.5375599973364206  0.45870192620946476  1.0000
  H   H145      1.0  0.2680477868041125  0.5793878123587933  0.5211193856711839  1.0000
  H   H146      1.0  0.21758831195429088  0.623958307187954  0.48394852112949793  1.0000
  H   H147      1.0  0.3304346624698127  0.5586595323759609  0.41430166819111697  1.0000
  H   H148      1.0  0.37979847369635616  0.5131972172244792  0.4515781409391594  1.0000
  C   C223      1.0  0.30988690226911647  0.5457973160218532  0.19613065444326655  1.0000
  C   C224      1.0  0.26250090615884103  0.5765048556611789  0.18973344993146857  1.0000
  C   C225      1.0  0.23343339698677962  0.6008422069849675  0.2131046801205515  1.0000
  C   C226      1.0  0.2530908663706867  0.5950844806477843  0.24277847930764382  1.0000
  C   C227      1.0  0.3002045065634854  0.5642620455179037  0.2491843477235448  1.0000
  C   C228      1.0  0.3280704590947274  0.5393874352092032  0.22586553532203987  1.0000
  H   H149      1.0  0.24883914944042848  0.5819857099467542  0.16679032591045873  1.0000
  H   H150      1.0  0.19673804499176145  0.624584450421274  0.2081080081690973  1.0000
  H   H151      1.0  0.31488119442138973  0.5593899756799147  0.2721331245490837  1.0000
  H   H152      1.0  0.363597328327928  0.5151182640326659  0.23086777706501818  1.0000
  C   C229      1.0  0.4928150631814486  0.7010582649333703  0.06077467140216556  1.0000
  C   C230      1.0  0.5162876744695806  0.6687148134039043  0.0420040662481359  1.0000
  C   C231      1.0  0.5531540252694278  0.6756290509941258  0.01645448026925241  1.0000
  C   C232      1.0  0.5677912440024655  0.7148860705037164  0.010022552283197353  1.0000
  C   C233      1.0  0.5438013732913825  0.7473033468148057  0.028673350563478008  1.0000
  C   C234      1.0  0.5063292949012952  0.7403954766703237  0.054061463019133595  1.0000
  H   H153      1.0  0.5043167782395923  0.6384910982688999  0.04690571458414896  1.0000
  H   H154      1.0  0.5688184863606565  0.6506651243561556  0.0013600345040857883  1.0000
  H   H155      1.0  0.5557964108863536  0.7776555645438267  0.023970334684475077  1.0000
  H   H156      1.0  0.48960269106830157  0.7654708359710616  0.06893482434242829  1.0000
  C   C235      1.0  0.9937322597275922  0.9618858779920894  0.3258481428002078  1.0000
  C   C236      1.0  0.9748043171609049  0.9247796426629904  0.31288349837534607  1.0000
  C   C237      1.0  0.9338656891610803  0.9232034675614641  0.287030458500778  1.0000
  C   C238      1.0  0.9117431356272726  0.9587030711347773  0.27413612531547604  1.0000
  C   C239      1.0  0.9291807015987478  0.9959087954374249  0.2875623118151931  1.0000
  C   C240      1.0  0.9700592306480517  0.997503467372659  0.31349750992628556  1.0000
  H   H157      1.0  0.9910502784810505  0.897247233485057  0.32296400409779985  1.0000
  H   H158      1.0  0.9194932215404528  0.894416916797748  0.276949131706315  1.0000
  H   H159      1.0  0.9142565509891396  0.023340890774177225  0.2771175319321155  1.0000
  H   H160      1.0  0.9856652423700024  0.02620241017958258  0.32324466621953274  1.0000
  C   C241      1.0  0.2778219594155217  0.8457131208363655  0.2478808102730814  1.0000
  C   C242      1.0  0.22936375201849543  0.8175341416531091  0.25283363902789374  1.0000
  C   C243      1.0  0.19981498139995846  0.7958895223534098  0.22855487499682206  1.0000
  C   C244      1.0  0.21837819724231622  0.8024626277447364  0.1992812749379354  1.0000
  C   C245      1.0  0.26713800051998826  0.8304605332323828  0.19433031719378666  1.0000
  C   C246      1.0  0.29775297514788585  0.8515718126047924  0.2186395363662707  1.0000
  H   H161      1.0  0.2150623483277117  0.8121121713221867  0.27541240460099786  1.0000
  H   H162      1.0  0.16325977244859172  0.7737095436204725  0.23248192892919212  1.0000
  H   H163      1.0  0.2802805299892594  0.8367087675650146  0.17179340138011392  1.0000
  H   H164      1.0  0.33473218235082997  0.873635871198794  0.21464572947320715  1.0000
  C   C247      1.0  0.2633295572433266  0.8447967623240508  0.4513965250779453  1.0000
  C   C248      1.0  0.2739518042438682  0.8518830618574156  0.48213642142972013  1.0000
  C   C249      1.0  0.24084161203666707  0.8292420162892344  0.5023519451576366  1.0000
  C   C250      1.0  0.1984843784907825  0.7987429340277727  0.49185998565607963  1.0000
  C   C251      1.0  0.18688413293972875  0.7921052927062231  0.4610810161438994  1.0000
  C   C252      1.0  0.21967057501351514  0.8149864433495366  0.44084641227592747  1.0000
  H   H165      1.0  0.30681542326215294  0.8752897924378414  0.4903692880083083  1.0000
  H   H166      1.0  0.2481500997840709  0.8355242194037678  0.5261341795570755  1.0000
  H   H167      1.0  0.15398402283167997  0.7687259409884353  0.45277081768475447  1.0000
  H   H168      1.0  0.21218860002375034  0.808806632358455  0.4170604429461559  1.0000
  C   C253      1.0  0.5678517794046739  0.7030284343858016  0.2581646117350884  1.0000
  C   C254      1.0  0.5718820727525059  0.6725369859759014  0.27836672938617085  1.0000
  C   C255      1.0  0.5408834039782755  0.6782463713215015  0.30628892240329875  1.0000
  C   C256      1.0  0.5070271656094127  0.714804984630835  0.31434845502061876  1.0000
  C   C257      1.0  0.5048353460325911  0.7458588429361312  0.2946101224106197  1.0000
  C   C258      1.0  0.5347062718568527  0.7398051916197701  0.2664006953031827  1.0000
  H   H169      1.0  0.5994232315433634  0.6446048979128283  0.27257974949962016  1.0000
  H   H170      1.0  0.5432153757810823  0.6542797384471106  0.3216403107412857  1.0000
  H   H171      1.0  0.4777565022732176  0.7739490033901486  0.30056345384905025  1.0000
  H   H172      1.0  0.5302291183561589  0.7632282651327909  0.25069579315902096  1.0000
  C   C259      1.0  0.5111226066327618  0.8935818235352163  0.16630542315451577  1.0000
  C   C260      1.0  0.4544386887760078  0.9200428181320762  0.16544164919598456  1.0000
  C   C261      1.0  0.4111294463265186  0.9191982928410952  0.14030119923838785  1.0000
  C   C262      1.0  0.42489035125891517  0.8920901853920208  0.11592654983692206  1.0000
  C   C263      1.0  0.4825229721736275  0.8664919849704308  0.11636431421041968  1.0000
  C   C264      1.0  0.525876710247897  0.8675253944705935  0.1414463923471211  1.0000
  H   H173      1.0  0.4427772222419055  0.9403267336668321  0.1845081545708387  1.0000
  H   H174      1.0  0.36568534510975537  0.9383912600598141  0.14026951985887084  1.0000
  H   H175      1.0  0.4932801124385886  0.845483830285174  0.09751768761636774  1.0000
  H   H176      1.0  0.5703375287766972  0.847936100025219  0.14154391416753595  1.0000
  C   C265      1.0  0.9352068413129043  0.44932390385163984  0.0182007317422638  1.0000
  C   C266      1.0  0.9569964145461902  0.41054465378757293  0.025319700278815485  1.0000
  C   C267      1.0  0.006229867570290945  0.4052772900474972  0.047799345016951315  1.0000
  C   C268      1.0  0.033902080613474564  0.43879444698893205  0.06298197308966257  1.0000
  C   C269      1.0  0.012143012767776913  0.4775787013477025  0.055855653069329596  1.0000
  C   C270      1.0  0.962984715566488  0.4828384019993957  0.033343912208472985  1.0000
  H   H177      1.0  0.9366390052542913  0.38457819355296735  0.013214005818389808  1.0000
  H   H178      1.0  0.02387958379076957  0.3752571142678547  0.052972491717950494  1.0000
  H   H179      1.0  0.036682679263796945  0.5086057074437355  0.5625444175029767  1.0000
  H   H180      1.0  0.9440947400660215  0.5175944392651239  0.525092265437879  1.0000
  C   C271      1.0  0.9331659054653225  0.7717351771136854  0.4130953516430819  1.0000
  C   C272      1.0  0.9647838154410258  0.7342403953410466  0.4058594847151091  1.0000
  C   C273      1.0  0.013964532911537653  0.7301328073638116  0.3835995236527031  1.0000
  C   C274      1.0  0.03172860964871682  0.7637634516970341  0.36871779126009935  1.0000
  C   C275      1.0  0.997811983752709  0.8007994279259625  0.3748563910835249  1.0000
  C   C276      1.0  0.9489216072541856  0.8048120055541602  0.3971603217102257  1.0000
  H   H181      1.0  0.951779791222075  0.7085091583858872  0.417778725657539  1.0000
  H   H182      1.0  0.039643406702195794  0.7013309911305394  0.37870707972837  1.0000
  H   H183      1.0  0.009735311522305778  0.8265915162796598  0.36266977433784847  1.0000
  H   H184      1.0  0.9251274762889461  0.8337508537712598  0.4024375723891839  1.0000
  C   C277      1.0  0.7104512954627876  0.8787465035788746  0.3470590501831457  1.0000
  C   C278      1.0  0.7656086933697065  0.8526602321637818  0.35291002810436634  1.0000
  C   C279      1.0  0.8047837882349285  0.8355043663905851  0.32937784388766655  1.0000
  C   C280      1.0  0.7874041879836683  0.8434012909959855  0.29983414855842155  1.0000
  C   C281      1.0  0.7318334554838187  0.8691402867573672  0.29387719680769353  1.0000
  C   C282      1.0  0.6934615683351544  0.8869422358872407  0.31750445530773214  1.0000
  H   H185      1.0  0.7775085970659669  0.84495559034794  0.37548484278774213  1.0000
  H   H186      1.0  0.8474561252451862  0.8153732584033676  0.3340488965594415  1.0000
  H   H187      1.0  0.7191360498869732  0.8759048439102105  0.27103267160602335  1.0000
  H   H188      1.0  0.6515041337818467  0.9075369079022756  0.31281380066371633  1.0000
  C   C283      1.0  0.6976740306693828  0.8631742246328012  0.05698386622141451  1.0000
  C   C284      1.0  0.6765703088501361  0.8646519842089222  0.08672071032613074  1.0000
  C   C285      1.0  0.7061026126702333  0.8381683611041199  0.10680555634586478  1.0000
  C   C286      1.0  0.7566674858958867  0.8100819015997971  0.09721643460784823  1.0000
  C   C287      1.0  0.7764875550324262  0.8077653975089818  0.06726655836550575  1.0000
  C   C288      1.0  0.7468390768719924  0.8342626302833739  0.04712401779048001  1.0000
  H   H189      1.0  0.6380937072423922  0.8867171261484224  0.09436643678155483  1.0000
  H   H190      1.0  0.6905184942873871  0.8401366134001127  0.12985727625003984  1.0000
  H   H191      1.0  0.8143208009448593  0.7854388523689688  0.05951556472201848  1.0000
  H   H192      1.0  0.7616287864298629  0.8320649090927036  0.023929442552288828  1.0000
  Fe  Fe97      1.0  0.7074603041714164  0.8771462294593094  0.4855030340353572  1.0000
  S   S193      1.0  0.70862878714505  0.9340466903452984  0.46117246291910363  1.0000
  S   S194      1.0  0.6384854182099621  0.8719599126350382  0.5240983766864271  1.0000
  Fe  Fe98      1.0  0.8156559225070742  0.8462062993432974  0.9497232407174195  1.0000
  S   S195      1.0  0.8233556281083464  0.8943025534866059  0.9173241139227595  1.0000
  S   S196      1.0  0.868709247515993  0.7852905696365267  0.9462543631776513  1.0000
  Fe  Fe99      1.0  0.8212823203911015  0.9260509684591547  0.46497656178970614  1.0000
  S   S197      1.0  0.888318054602407  0.9777590942576927  0.47586728257292993  1.0000
  Fe  Fe100     1.0  0.7108076914360805  0.9004246646619753  0.9220721167426976  1.0000
  S   S198      1.0  0.6472179354157125  0.9025877840456435  0.8803363121979336  1.0000
  S   S199      1.0  0.8193624896888319  0.872227478788746  0.49273865668262157  1.0000
  S   S200      1.0  0.7027996246815261  0.8494862927313569  0.9520195773293907  1.0000
  Fe  Fe101     1.0  0.736957743316111  0.7947517468918174  0.6705672688778043  1.0000
  S   S201      1.0  0.7365780439516084  0.8491080605621762  0.7025940191767946  1.0000
  S   S202      1.0  0.7986292750086669  0.7896500768853969  0.6286630487570017  1.0000
  Fe  Fe102     1.0  0.6454338381387636  0.7485218672045258  0.7085460418559395  1.0000
  S   S203      1.0  0.6371470957491503  0.7985686978967036  0.7439144323602627  1.0000
  S   S204      1.0  0.5952835175892838  0.6901808771448785  0.7138157774324421  1.0000
  Fe  Fe103     1.0  0.6255988141334791  0.8389380366123602  0.7057711460786813  1.0000
  S   S205      1.0  0.5460903073634829  0.8889829466525504  0.709746380528867  1.0000
  Fe  Fe104     1.0  0.7478694191523269  0.8039434322829394  0.7376774183034055  1.0000
  S   S206      1.0  0.8144796842873996  0.8085084005775021  0.7784104534480883  1.0000
  S   S207      1.0  0.6244555066452887  0.7879984644778623  0.6704805808732979  1.0000
  S   S208      1.0  0.7580608901028084  0.7502244009376562  0.7054992731117042  1.0000
  Fe  Fe105     1.0  0.14739302252140044  0.8070468014358687  0.8481054988548974  1.0000
  S   S209      1.0  0.12981203032032657  0.8548640505250006  0.8847131140212271  1.0000
  S   S210      1.0  0.09211298393937918  0.7497819533624512  0.848777163717365  1.0000
  Fe  Fe106     1.0  0.24917597710128483  0.8544277285620283  0.8174998332844978  1.0000
  S   S211      1.0  0.2406269154224433  0.906831455870618  0.8510433328896326  1.0000
  S   S212      1.0  0.3181855617608259  0.8572216795236932  0.7786830701809342  1.0000
  Fe  Fe107     1.0  0.2421669055130073  0.8597504122132891  0.8846614853995053  1.0000
  S   S213      1.0  0.2961087138537798  0.8687109716228715  0.9287672046451443  1.0000
  Fe  Fe108     1.0  0.12933339876662645  0.8974760261168957  0.8479194914771845  1.0000
  S   S214      1.0  0.0566404986609992  0.9507205055622788  0.8466993357417285  1.0000
  S   S215      1.0  0.2605434623516986  0.8077069853997774  0.8514903159688053  1.0000
  S   S216      1.0  0.1371999095435068  0.8493911585481092  0.8110183933798298  1.0000
  Fe  Fe109     1.0  0.2351793101122761  0.771431495263232  0.5572994829315285  1.0000
  S   S217      1.0  0.253196216605887  0.7227378414185193  0.5891493306424732  1.0000
  S   S218      1.0  0.16665583248449573  0.7663217604021478  0.5170824981482144  1.0000
  Fe  Fe110     1.0  0.33206934564127405  0.8264985921981176  0.5896237499518537  1.0000
  S   S219      1.0  0.3597438619795953  0.7830177156442069  0.6247341585828136  1.0000
  S   S220      1.0  0.37555692306665145  0.8871289167852536  0.5899565991211125  1.0000
  Fe  Fe111     1.0  0.3624066146886187  0.7368684776210924  0.5862948619673453  1.0000
  S   S221      1.0  0.4420287565205198  0.6874155750588432  0.5797848565345088  1.0000
  Fe  Fe112     1.0  0.24818163309561578  0.7732756390833996  0.6245104356671733  1.0000
  S   S222      1.0  0.18555450922911898  0.7690385786139411  0.6654631907360709  1.0000
  S   S223      1.0  0.344999651143236  0.7812899473111229  0.5511220734267579  1.0000
  S   S224      1.0  0.22043840044022306  0.8208286030610051  0.5927954102922132  1.0000
  Fe  Fe113     1.0  0.17189775637237353  0.4870972320725281  0.5870906236438306  1.0000
  S   S225      1.0  0.17879905926143821  0.5297806010942295  0.5506580747124251  1.0000
  S   S226      1.0  0.09974742101705453  0.4369744793789689  0.585819744038201  1.0000
  Fe  Fe114     1.0  0.28712306617633226  0.5235747502068127  0.6229264602668841  1.0000
  S   S227      1.0  0.30580976538713955  0.5694274717193524  0.5897285596552748  1.0000
  S   S228      1.0  0.3506143832393765  0.5171837887979374  0.6644880535083876  1.0000
  Fe  Fe115     1.0  0.19277466063153742  0.576587683325484  0.587834515543939  1.0000
  S   S229      1.0  0.14139307279839022  0.6375281254108642  0.5882717082109121  1.0000
  Fe  Fe116     1.0  0.2907018266383332  0.5188161916918275  0.5554300965800922  1.0000
  S   S230      1.0  0.35437616247940557  0.508019441032684  0.5146023615613243  1.0000
  S   S231      1.0  0.17467153723616832  0.5349150053864951  0.6241557189893642  1.0000
  S   S232      1.0  0.2830531630092832  0.4718875127716505  0.588743108706173  1.0000
  Fe  Fe117     1.0  0.4053905901450014  0.6484773994951263  0.845258183522304  1.0000
  S   S233      1.0  0.4014641815204142  0.6019936969302431  0.8071815702348467  1.0000
  S   S234      1.0  0.4733489574017898  0.7000813450439046  0.8435863365822703  1.0000
  Fe  Fe118     1.0  0.29835413008380995  0.6103134060679531  0.8801927745846164  1.0000
  S   S235      1.0  0.28480113907197513  0.5598804068113648  0.8456138439304317  1.0000
  S   S236      1.0  0.23893608888921863  0.6180486333712492  0.9223108503366565  1.0000
  Fe  Fe119     1.0  0.39804925741153185  0.5585073475831731  0.8433643940676978  1.0000
  S   S237      1.0  0.45961979926380464  0.5005932056132024  0.842318288539197  1.0000
  Fe  Fe120     1.0  0.2892190689226283  0.6081904371117062  0.8130128220633357  1.0000
  S   S238      1.0  0.2163891646234967  0.6134336584316774  0.7745140555738326  1.0000
  S   S239      1.0  0.41131218960776006  0.6047380372960914  0.8812794035487657  1.0000
  S   S240      1.0  0.2932892296782254  0.658960094502345  0.8478032865864589  1.0000
  Fe  Fe121     1.0  0.6986255280285367  0.026718153692659063  0.6854773033046088  1.0000
  S   S241      1.0  0.7965218365953233  0.5960472096268177  0.7050250360659721  1.0000
  S   S242      1.0  0.6569552039231998  0.0180205092402268  0.6388075245116073  1.0000
  Fe  Fe122     1.0  0.7946765635314401  0.9874714533547817  0.7292189838849485  1.0000
  S   S243      1.0  0.7820541910437073  0.037951657723035215  0.7642268951275143  1.0000
  S   S244      1.0  0.8648626254503745  0.9334279923923224  0.7330862398802177  1.0000
  Fe  Fe123     1.0  0.6719223960896744  0.03694167321422581  0.7516288489068463  1.0000
  S   S245      1.0  0.726589021183656  0.5594100179988862  0.7806792641045336  1.0000
  Fe  Fe124     1.0  0.9097313884441304  0.5896018216187964  0.7078669830634025  1.0000
  S   S246      1.0  0.9789497232396867  0.641388263279283  0.7083911089690399  1.0000
  S   S247      1.0  0.6835354148116539  0.9822185346677909  0.7201434875601437  1.0000
  S   S248      1.0  0.8105084774212976  0.02739679264036976  0.6919382561758085  1.0000
  Fe  Fe125     1.0  0.7030787913097747  0.6726815554251472  0.4669995659601066  1.0000
  S   S249      1.0  0.7065957626462087  0.6234761655422614  0.4989654284068981  1.0000
  S   S250      1.0  0.6240692750880643  0.7225917928961942  0.47096523959934505  1.0000
  Fe  Fe126     1.0  0.8082731308092638  0.6406812873670114  0.9311781196247211  1.0000
  S   S251      1.0  0.7293820969027717  0.06851003756153884  0.9711321565071416  1.0000
  S   S252      1.0  0.8705337678668205  0.6477661514608736  0.8906814888921979  1.0000
  Fe  Fe127     1.0  0.6190645828292102  0.06888476319257286  0.9816368650674049  1.0000
  S   S253      1.0  0.5659943332704603  0.011056056998570929  0.9836280713793304  1.0000
  Fe  Fe128     1.0  0.7335899425786765  0.12483825186416908  0.5102597404207498  1.0000
  S   S254      1.0  0.805583583605885  0.12239556789489225  0.5495105362592106  1.0000
  S   S255      1.0  0.6957649195054432  0.6359594048019538  0.9286101260910832  1.0000
  S   S256      1.0  0.814701310375152  0.681341685076427  0.4687996873369837  1.0000
  C   C289      1.0  0.8317572709314629  0.622742755890242  0.86002746818975  1.0000
  C   C290      1.0  0.7154465631248729  0.11466515039131431  0.8378861571066853  1.0000
  C   C291      1.0  0.6801403815931377  0.09738426458080185  0.8133211529476317  1.0000
  C   C292      1.0  0.7660145405860501  0.5846072648716865  0.8110305361674682  1.0000
  C   C293      1.0  0.7485701400322642  0.5765676489894066  0.8401387366519035  1.0000
  C   C294      1.0  0.7825799860373905  0.5949234883139144  0.8646147926252998  1.0000
  H   H193      1.0  0.7568608116082884  0.13385425432282028  0.834201160963766  1.0000
  H   H194      1.0  0.6945322208632168  0.10324301791777613  0.7908080903507179  1.0000
  H   H195      1.0  0.7094834886307816  0.555662278122873  0.8437294004238378  1.0000
  H   H196      1.0  0.7707139083082697  0.5873976856600102  0.887007698477209  1.0000
  C   C295      1.0  0.7025441170960948  0.04499013455936973  0.6140866972476803  1.0000
  C   C296      1.0  0.7489957574519  0.07306471338421061  0.6249450155653659  1.0000
  C   C297      1.0  0.7842365687053768  0.09509333050626201  0.6049549902850562  1.0000
  C   C298      1.0  0.7719140834111845  0.08967814506565652  0.5741184307041647  1.0000
  C   C299      1.0  0.727198456055882  0.06063362047767806  0.563278590235999  1.0000
  C   C300      1.0  0.6921586870560645  0.03851243067500998  0.5832323779865517  1.0000
  H   H197      1.0  0.7566774330662789  0.0786648920023143  0.6487476306701958  1.0000
  H   H198      1.0  0.8192149958145929  0.11719704171057121  0.6134987881515358  1.0000
  H   H199      1.0  0.790023581050435  0.5648415339332237  0.5321207294323682  1.0000
  H   H200      1.0  0.732218490703594  0.5274016522436934  0.5698871099252858  1.0000
  C   C301      1.0  0.6121029947097204  0.5175625124823693  0.9190518403227489  1.0000
  C   C302      1.0  0.5820197410303484  0.48047899871642813  0.9135695403231163  1.0000
  C   C303      1.0  0.5374713988714395  0.47450977764738167  0.8891229461427733  1.0000
  C   C304      1.0  0.5219404123934877  0.5059109436654391  0.8704252616784469  1.0000
  C   C305      1.0  0.5535152270352299  0.5424986232346012  0.8753388167299943  1.0000
  C   C306      1.0  0.5987016291977555  0.5482206805257908  0.8995214829336291  1.0000
  H   H201      1.0  0.5925102422545505  0.4563727418980392  0.9283755125418969  1.0000
  H   H202      1.0  0.5132350125991358  0.44611608400221525  0.885495418195874  1.0000
  H   H203      1.0  0.5428069567751773  0.566568923457891  0.8605407468581253  1.0000
  H   H204      1.0  0.6219750028787131  0.5765987446910673  0.903133560315953  1.0000
  C   C307      1.0  0.09394494479735149  0.6413491836388541  0.6209750182417288  1.0000
  C   C308      1.0  0.03656911912571936  0.6187032780064257  0.6226397271271072  1.0000
  C   C309      1.0  0.00027832300644914376  0.6197780428293341  0.6492554777886433  1.0000
  C   C310      1.0  0.021974896165914748  0.6426254300902817  0.6744950148761409  1.0000
  C   C311      1.0  0.07878985137790884  0.6660256523124682  0.6726956396441676  1.0000
  C   C312      1.0  0.11481669595104928  0.6653673308962793  0.6458827218821032  1.0000
  H   H205      1.0  0.020227675250147126  0.6001830575033816  0.6033773719219168  1.0000
  H   H206      1.0  0.9553411339651974  0.6029679752432415  0.6501234403726533  1.0000
  H   H207      1.0  0.09604128558617571  0.6838261416340286  0.6921212143183987  1.0000
  H   H208      1.0  0.15979469412740716  0.6825386615085548  0.6446937634305885  1.0000
  C   C313      1.0  0.32426464192461674  0.5316945254274775  0.989888772903371  1.0000
  C   C314      1.0  0.28508576821087916  0.5657676644283363  0.9994792189553602  1.0000
  C   C315      1.0  0.2591110893148652  0.5923422890966795  0.9786433384783266  1.0000
  C   C316      1.0  0.2732234048919954  0.5852549772464696  0.9482343582297078  1.0000
  C   C317      1.0  0.3141214507303928  0.551868523024891  0.9386976246595841  1.0000
  C   C318      1.0  0.339571690601926  0.5250239471610163  0.9595424985635717  1.0000
  H   H209      1.0  0.2744075124759775  0.5716715642404989  0.022974499575137752  1.0000
  H   H210      1.0  0.2288077435155561  0.6185892132802586  0.9862080428472058  1.0000
  H   H211      1.0  0.32529078351540586  0.5462644563336131  0.9151943999207114  1.0000
  H   H212      1.0  0.37002481995890485  0.4987791774835788  0.9520270415209213  1.0000
  C   C319      1.0  0.3114368576213409  0.5429672714096038  0.6949939807265686  1.0000
  C   C320      1.0  0.2594788389104236  0.5717303863173012  0.6904549024538423  1.0000
  C   C321      1.0  0.22741959914376808  0.5917671136952001  0.7150045609086771  1.0000
  C   C322      1.0  0.2494844735331878  0.5843441012453955  0.7440815455360086  1.0000
  C   C323      1.0  0.3008647626697914  0.5552168026917728  0.7486638461857824  1.0000
  C   C324      1.0  0.33161140608053974  0.5343569328861497  0.7241174723136657  1.0000
  H   H213      1.0  0.24476798754484716  0.5793011401159847  0.6680718497086352  1.0000
  H   H214      1.0  0.18715898288849095  0.6140256135484078  0.7113794542414958  1.0000
  H   H215      1.0  0.31659309621597576  0.5484923213980891  0.7711438188403476  1.0000
  H   H216      1.0  0.37053590968256245  0.5113978124386707  0.7277782340769505  1.0000
  C   C325      1.0  0.4889457485481329  0.6974953111883834  0.5484726095137802  1.0000
  C   C326      1.0  0.5129534324850605  0.665813165308203  0.5291590673137598  1.0000
  C   C327      1.0  0.5528432053808797  0.6736512954902276  0.5047355086354366  1.0000
  C   C328      1.0  0.5695442205645382  0.7131002436592417  0.49987559505555706  1.0000
  C   C329      1.0  0.5438042511507983  0.7448843213369556  0.5186285263773172  1.0000
  C   C330      1.0  0.50362126641638  0.7370613322564108  0.5429685971507939  1.0000
  H   H217      1.0  0.5004408430197063  0.6353232452103513  0.5330324601235132  1.0000
  H   H218      1.0  0.570002815631455  0.6492332700490776  0.489425545533612  1.0000
  H   H219      1.0  0.5569612736729508  0.7754503505947173  0.5150185551907741  1.0000
  H   H220      1.0  0.4866717154965643  0.7616107309753911  0.5582496915614832  1.0000
  C   C331      1.0  0.0025097536888528  0.9458065520950308  0.8154666110151314  1.0000
  C   C332      1.0  0.9817711834419547  0.9078899210105054  0.8048660983282327  1.0000
  C   C333      1.0  0.9390100618088048  0.9042396510732967  0.7795976959364301  1.0000
  C   C334      1.0  0.9167576856115698  0.9384684881544841  0.7650278153355271  1.0000
  C   C335      1.0  0.937016319523919  0.9763994260832818  0.7757941851426751  1.0000
  C   C336      1.0  0.9797544387957515  0.9800704697235634  0.8010613327247329  1.0000
  H   H221      1.0  0.9973929558418455  0.8814555112377008  0.8164828135660521  1.0000
  H   H222      1.0  0.9221782741556571  0.8749945545847007  0.7715952975903003  1.0000
  H   H223      1.0  0.9211004040457339  0.0028343122621017347  0.7642246982897822  1.0000
  H   H224      1.0  0.9962106566889415  0.009393583961961882  0.8090966617700769  1.0000
  C   C337      1.0  0.28452212890252915  0.8309462000851777  0.7472680584801757  1.0000
  C   C338      1.0  0.2326255934833152  0.8044228167520263  0.7505667158693362  1.0000
  C   C339      1.0  0.20103171022712016  0.7865133000564488  0.7252398583302714  1.0000
  C   C340      1.0  0.222141694524068  0.7944226227531515  0.6965993582498109  1.0000
  C   C341      1.0  0.273991985258986  0.8209646245525271  0.6932447013572743  1.0000
  C   C342      1.0  0.30554626472112784  0.8390064327502984  0.7185994555926988  1.0000
  H   H225      1.0  0.21763391429009474  0.7971874656547411  0.7726545148307157  1.0000
  H   H226      1.0  0.16170896012549893  0.7655395332954769  0.7277691871563837  1.0000
  H   H227      1.0  0.2895001755745439  0.828037550023676  0.6711868770979783  1.0000
  H   H228      1.0  0.3453032750028985  0.8598107147687817  0.7159617941673132  1.0000
  C   C343      1.0  0.2629016824006903  0.836113961043004  0.9532494680909721  1.0000
  C   C344      1.0  0.2294796791386007  0.8019857920191984  0.9422727167148922  1.0000
  C   C345      1.0  0.20309070373208454  0.7760252333037002  0.9622603180183389  1.0000
  C   C346      1.0  0.20941515415215586  0.7845859311417129  0.9931528096805048  1.0000
  C   C347      1.0  0.2415147244558682  0.8192260552226136  0.00393479347010306  1.0000
  C   C348      1.0  0.26827411366484366  0.8449163179040127  0.9840229475364398  1.0000
  H   H229      1.0  0.22460517511483108  0.795261097062756  0.9183848961831789  1.0000
  H   H230      1.0  0.177668291491054  0.7495591042040428  0.9536974303558973  1.0000
  H   H231      1.0  0.24390992441219067  0.8271256443712957  0.02768055654463253  1.0000
  H   H232      1.0  0.2913752048648145  0.872198271105217  0.9925127394633972  1.0000
  C   C349      1.0  0.5604717600246679  0.6928078150742184  0.7496985031448913  1.0000
  C   C350      1.0  0.5265604126588945  0.7280584632508197  0.7607843264806409  1.0000
  C   C351      1.0  0.5001404824894208  0.7304453638227623  0.7897433276983427  1.0000
  C   C352      1.0  0.5062478229662937  0.6972126562312495  0.8073955582242588  1.0000
  C   C353      1.0  0.5388092119992249  0.6616189739877741  0.7960809449144605  1.0000
  C   C354      1.0  0.5665715604716589  0.659614459139042  0.7673912062604483  1.0000
  H   H233      1.0  0.5199279087073716  0.7534575639354455  0.7469325060121098  1.0000
  H   H234      1.0  0.47428198275444816  0.7578897781704352  0.798280470581  1.0000
  H   H235      1.0  0.5444435242419823  0.6359795830643401  0.8098128704446744  1.0000
  H   H236      1.0  0.5947542314963089  0.6328676589099415  0.7593756363245868  1.0000
  C   C355      1.0  0.49977893270357804  0.890938206392475  0.676187146464491  1.0000
  C   C356      1.0  0.4333370981944721  0.9069686859514258  0.6761488024397022  1.0000
  C   C357      1.0  0.3952135209624872  0.9064806229720933  0.6494679730753494  1.0000
  C   C358      1.0  0.42392067713950604  0.8903723508559617  0.6228381083871956  1.0000
  C   C359      1.0  0.4904370788476094  0.8748540188088676  0.6227697791544465  1.0000
  C   C360      1.0  0.5285171699222172  0.8754706390508159  0.6494202053284014  1.0000
  H   H237      1.0  0.4105332764642098  0.9187149017399899  0.6967535385693981  1.0000
  H   H238      1.0  0.343190639824911  0.9177992853418692  0.6496241896353092  1.0000
  H   H239      1.0  0.5119314423746744  0.8615765598655408  0.6022602034564362  1.0000
  H   H240      1.0  0.5800540079733396  0.8638832576180019  0.6493182788380855  1.0000
  C   C361      1.0  0.9309109451547064  0.45403036098088784  0.5168282680379631  1.0000
  C   C362      1.0  0.9528925910912611  0.4153954986281343  0.5241623972689065  1.0000
  C   C363      1.0  0.005206740956173626  0.41033155556988016  0.5452728654117494  1.0000
  C   C364      1.0  0.03574865985187682  0.443864315767023  0.5589982980557827  1.0000
  C   C365      1.0  0.014234453725957316  0.4825486434299958  0.5514969849965202  1.0000
  C   C366      1.0  0.9616439247680858  0.4876221021293714  0.5304500680533992  1.0000
  H   H241      1.0  0.9308807095852736  0.3892903639099526  0.5129928934789336  1.0000
  H   H242      1.0  0.022662311784724106  0.3803533139036021  0.5506537756199861  1.0000
  H   H243      1.0  0.03269838350900103  0.503536618980202  0.06789269783885432  1.0000
  H   H244      1.0  0.9455723044547774  0.5128584558656764  0.028078131878656265  1.0000
  C   C367      1.0  0.9237480673033054  0.7748629277828339  0.9161604636528168  1.0000
  C   C368      1.0  0.9416020324413399  0.8048527045459841  0.8975376867192666  1.0000
  C   C369      1.0  0.9916705355874597  0.7967470025707478  0.875982645445878  1.0000
  C   C370      1.0  0.023779419248560973  0.7585876811886008  0.8729508462309964  1.0000
  C   C371      1.0  0.003516511327661398  0.7280335286596821  0.8904734143597387  1.0000
  C   C372      1.0  0.9539040548775399  0.736310261399681  0.9121875330874002  1.0000
  H   H245      1.0  0.9179640262226811  0.8344457634414644  0.8999154087122003  1.0000
  H   H246      1.0  0.005453750869747642  0.8201085363334033  0.8617235740803529  1.0000
  H   H247      1.0  0.027315756025480642  0.6982864311132697  0.8878380101078476  1.0000
  H   H248      1.0  0.9388432561510217  0.7127806783430409  0.9259556067402798  1.0000
  C   C373      1.0  0.6909026519732709  0.8747618057196604  0.8518730976562359  1.0000
  C   C374      1.0  0.744537301649955  0.8483099800398448  0.8591107798378458  1.0000
  C   C375      1.0  0.784620107773276  0.8294450270922044  0.8365088854842041  1.0000
  C   C376      1.0  0.768883877429327  0.8354917659349047  0.8065143270585214  1.0000
  C   C377      1.0  0.7141971871644424  0.8611469587934618  0.7991538323710954  1.0000
  C   C378      1.0  0.6751538288274682  0.8807267690158412  0.8218588530163089  1.0000
  H   H249      1.0  0.7541603312455177  0.8415455495206452  0.8820822770045017  1.0000
  H   H250      1.0  0.826449239428729  0.8092505019946703  0.8422127747607471  1.0000
  H   H251      1.0  0.7025489463941252  0.8664040118496172  0.7759510340729074  1.0000
  H   H252      1.0  0.6335902694710123  0.9009709115441915  0.8161896328006607  1.0000
  C   C379      1.0  0.6814627476165318  0.8477865694269063  0.5528967381591897  1.0000
  C   C380      1.0  0.6627790096534929  0.8565300304433537  0.5826563569196718  1.0000
  C   C381      1.0  0.6985086771162912  0.8383503835665306  0.6059137330541563  1.0000
  C   C382      1.0  0.7533449162760971  0.8117718134813323  0.5994762068964476  1.0000
  C   C383      1.0  0.7718276436601188  0.8028199299662957  0.5696941970839531  1.0000
  C   C384      1.0  0.7355417930686308  0.8205780730085936  0.5464209347012313  1.0000
  H   H253      1.0  0.6216002197837982  0.8779799760908434  0.587741866868926  1.0000
  H   H254      1.0  0.6844263949657597  0.8454625146943905  0.6288774518901625  1.0000
  H   H255      1.0  0.8132402701042705  0.7816871120614853  0.5643678160237026  1.0000
  H   H256      1.0  0.7487678520418918  0.8127561718243616  0.5233867239085199  1.0000
  N   N1        1.0  0.47231156837894284  0.8979510192394817  0.9982018735870634  1.0000
  C   C385      1.0  0.4229765860811668  0.9274451333192779  0.9859843985985737  1.0000
  C   C386      1.0  0.4407489775701006  0.8587350554971747  0.9997344356175728  1.0000
  C   C387      1.0  0.4936736663550285  0.9123868324575961  0.028625877240183062  1.0000
  C   C388      1.0  0.5319049977250344  0.8933148831331155  0.9786444885818473  1.0000
  H   H257      1.0  0.44473384668278304  0.9576578121159702  0.9857566359448336  1.0000
  H   H258      1.0  0.37651747581456946  0.9307577900836185  0.9997072652003047  1.0000
  H   H259      1.0  0.40760736233376316  0.9184351862835249  0.9625373455977271  1.0000
  H   H260      1.0  0.4779336925537413  0.8353674090919114  0.007302133148280765  1.0000
  H   H261      1.0  0.39891342634399224  0.8606307674580517  0.016170714645457496  1.0000
  H   H262      1.0  0.4200077156617896  0.8481652720344295  0.9774860673685356  1.0000
  H   H263      1.0  0.5254411004172355  0.8891708237086802  0.03978994672033487  1.0000
  H   H264      1.0  0.4494188075924124  0.9197663590446141  0.0431286515579119  1.0000
  H   H265      1.0  0.5240407321273829  0.9397540918847155  0.028017051595234266  1.0000
  H   H266      1.0  0.5588776192518851  0.921968428368016  0.9782421525325881  1.0000
  H   H267      1.0  0.5175636784240261  0.8842083012686663  0.9551278086894693  1.0000
  H   H268      1.0  0.5691860722008264  0.8703894142365363  0.986766528002263  1.0000
  N   N2        1.0  0.9955613927017137  0.743232512695359  0.26367126536774665  1.0000
  C   C389      1.0  0.019257739032995103  0.7846019295523992  0.2687154758857631  1.0000
  C   C390      1.0  0.9544509475537429  0.7404608341305137  0.23575810693237173  1.0000
  C   C391      1.0  0.9539937471106537  0.7332106180810505  0.2891569260850993  1.0000
  C   C392      1.0  0.054483357148787936  0.7145938043527735  0.2610416697346387  1.0000
  H   H269      1.0  0.05235163819452304  0.7874925704203708  0.2889757613024656  1.0000
  H   H270      1.0  0.9761646498638076  0.8068074230553987  0.27217967875019955  1.0000
  H   H271      1.0  0.04846369799002814  0.7936281377936885  0.24938476696087933  1.0000
  H   H272      1.0  0.9856932389309906  0.7436237449361018  0.21565711023883571  1.0000
  H   H273      1.0  0.9297692668078424  0.711123686404634  0.23283230132548124  1.0000
  H   H274      1.0  0.9132983779072732  0.7641296238234174  0.23583723193083792  1.0000
  H   H275      1.0  0.9834363692717099  0.734788252843226  0.31053400166289735  1.0000
  H   H276      1.0  0.934636146162758  0.7023957282640461  0.28584546359508667  1.0000
  H   H277      1.0  0.9095672175656876  0.7544526357094873  0.29210888020434345  1.0000
  H   H278      1.0  0.03833475854843127  0.6831643240831022  0.2570350030740661  1.0000
  H   H279      1.0  0.08675493735417428  0.7159771135345819  0.28173400781067254  1.0000
  H   H280      1.0  0.08686015709521744  0.7208900904040243  0.2419389370111589  1.0000
  N   N3        1.0  0.18443314886545686  0.9826087806581503  0.9341813593053663  1.0000
  C   C393      1.0  0.1992369671371752  0.9780445519792987  0.966344803173862  1.0000
  C   C394      1.0  0.24847191051847028  0.9860844653226062  0.9181358984787199  1.0000
  C   C395      1.0  0.1403991662139189  0.018847363816697715  0.930244834711463  1.0000
  C   C396      1.0  0.14934038208552552  0.9470638612436767  0.9217673068556855  1.0000
  H   H281      1.0  0.22436936346565334  0.0046400726703657025  0.9766906529793553  1.0000
  H   H282      1.0  0.23360854121071248  0.9513529095910102  0.9697765973225652  1.0000
  H   H283      1.0  0.15249415884722364  0.9746189818131581  0.9791517912624622  1.0000
  H   H284      1.0  0.2826099250274885  0.9589318883856186  0.9200905466324493  1.0000
  H   H285      1.0  0.23949208844598444  0.9896908189860877  0.8937563466012984  1.0000
  H   H286      1.0  0.27675371257156217  0.012464406213886337  0.9270271525169851  1.0000
  H   H287      1.0  0.09239031606130499  0.01770429364102677  0.9426142084440946  1.0000
  H   H288      1.0  0.12665199239522346  0.021926009569110283  0.9061910859990757  1.0000
  H   H289      1.0  0.1656452733908808  0.04663623656177607  0.9383269771578066  1.0000
  H   H290      1.0  0.09904546838711793  0.9446543900510854  0.9320872550231654  1.0000
  H   H291      1.0  0.1797571625676126  0.9190351508288078  0.9253396644637231  1.0000
  H   H292      1.0  0.1407407369539521  0.9486274212846767  0.8972381832609487  1.0000
  N   N4        1.0  0.9339630832787446  0.16892068588120068  0.31521841306590437  1.0000
  C   C397      1.0  0.8959507338154128  0.13220526460106716  0.3082893600133186  1.0000
  C   C398      1.0  0.9809972218934477  0.16221854485888074  0.3406462219162824  1.0000
  C   C399      1.0  0.8860412128969499  0.20291011512235851  0.3231338273602635  1.0000
  C   C400      1.0  0.9727973271440166  0.1782739049653887  0.2887417745180411  1.0000
  H   H293      1.0  0.9302929007340904  0.10635004548963428  0.30088898919106966  1.0000
  H   H294      1.0  0.8582278333748521  0.13676983344800334  0.289964358172668  1.0000
  H   H295      1.0  0.8679185884052769  0.12353231766018008  0.3281052962050604  1.0000
  H   H296      1.0  0.013860965092482457  0.18821507412610106  0.34524113796890554  1.0000
  H   H297      1.0  0.9533598393185501  0.15782159361494397  0.3615640466895255  1.0000
  H   H298      1.0  0.015325022785745438  0.13539318663505368  0.3359438034611338  1.0000
  H   H299      1.0  0.8545507044261337  0.1964690016558222  0.3424874171473296  1.0000
  H   H300      1.0  0.8508794959416941  0.20941977831540062  0.3041105810054861  1.0000
  H   H301      1.0  0.9129786054190658  0.23089143569955728  0.32939792968106146  1.0000
  H   H302      1.0  0.005059299500890535  0.20444802074967838  0.29372975697228415  1.0000
  H   H303      1.0  0.9387882603445471  0.1851480264902501  0.2695796827548069  1.0000
  H   H304      1.0  0.006523096513080041  0.15242725272733718  0.28097417660419666  1.0000
  N   N5        1.0  0.1938391486735353  0.4282646197183526  0.19076618682558497  1.0000
  C   C401      1.0  0.1465887866753264  0.39608054757874694  0.1954009258963204  1.0000
  C   C402      1.0  0.19622891425648095  0.43521448898109044  0.15851863602969923  1.0000
  C   C403      1.0  0.262100922562456  0.41599508899428533  0.20157870090148233  1.0000
  C   C404      1.0  0.17053002792330726  0.4658345846855142  0.2073200375514417  1.0000
  H   H305      1.0  0.09426611975016426  0.4049190345895839  0.18816175594941653  1.0000
  H   H306      1.0  0.14522035786251308  0.3889466292959211  0.21933287416084615  1.0000
  H   H307      1.0  0.16173458245888842  0.36781964639448955  0.1823027195450302  1.0000
  H   H308      1.0  0.209919469522727  0.40715300800582666  0.14489339867365922  1.0000
  H   H309      1.0  0.1464755804624385  0.44670160001763737  0.14997572969373346  1.0000
  H   H310      1.0  0.23453780690172  0.4574749303016063  0.15401459292296943  1.0000
  H   H311      1.0  0.2629576458182711  0.41212411581212893  0.22610554093857937  1.0000
  H   H312      1.0  0.29987256060310197  0.43868290346963734  0.19692858627196846  1.0000
  H   H313      1.0  0.27969516749619566  0.3869594374613813  0.1902520128138906  1.0000
  H   H314      1.0  0.1691524064126401  0.46212881454004917  0.23183419570245983  1.0000
  H   H315      1.0  0.11861719829762259  0.47558455959231616  0.2000161284358754  1.0000
  H   H316      1.0  0.20438911500577203  0.49085000292332914  0.20354109860286093  1.0000
  N   N6        1.0  0.31116690252451645  0.16186346012943037  0.2209373693972885  1.0000
  C   C405      1.0  0.2489184113191688  0.15915462862038576  0.20229729125833754  1.0000
  C   C406      1.0  0.3152216420799685  0.12845090960933925  0.24125784028337968  1.0000
  C   C407      1.0  0.3096181286215742  0.20048559639249533  0.23892195671722571  1.0000
  C   C408      1.0  0.37085460697763495  0.1593398617767675  0.20139198255269258  1.0000
  H   H317      1.0  0.24794086752382158  0.13026819144746254  0.18854370484771724  1.0000
  H   H318      1.0  0.24433968977456744  0.18377090401759338  0.1865811659779738  1.0000
  H   H319      1.0  0.2026889467286232  0.16151392187232305  0.21625624179979067  1.0000
  H   H320      1.0  0.3613725903838173  0.1297477560568768  0.25581706095226986  1.0000
  H   H321      1.0  0.2708107205061425  0.12958450037169383  0.2562847247346168  1.0000
  H   H322      1.0  0.316318879210591  0.09880051063478575  0.22848806740503794  1.0000
  H   H323      1.0  0.30639088128653075  0.22647659116420485  0.22441726330879072  1.0000
  H   H324      1.0  0.35566723717334253  0.2035720704684863  0.2532831001368336  1.0000
  H   H325      1.0  0.26543841973466625  0.20316307232054998  0.2540610649838473  1.0000
  H   H326      1.0  0.36977334066911344  0.18436358535122094  0.18596235903392272  1.0000
  H   H327      1.0  0.372928747689182  0.13079324217293023  0.18716787048972544  1.0000
  H   H328      1.0  0.41874432075079193  0.16101430427519114  0.21477482299819067  1.0000
  N   N7        1.0  0.455777284399221  0.3799869320009267  0.8127913877698579  1.0000
  C   C409      1.0  0.4764158385846262  0.34888827457733  0.8337406491252284  1.0000
  C   C410      1.0  0.5135936037131105  0.40523668648528843  0.807561695071135  1.0000
  C   C411      1.0  0.3996908664634209  0.405434179938902  0.825907128431354  1.0000
  C   C412      1.0  0.43333566825557474  0.3604805722534837  0.7839800892275581  1.0000
  H   H329      1.0  0.4330587531811359  0.330212864427033  0.8387896794544792  1.0000
  H   H330      1.0  0.49512445723703286  0.36264994742315626  0.8554727831333455  1.0000
  H   H331      1.0  0.517453381872862  0.3283999394956873  0.824253346852044  1.0000
  H   H332      1.0  0.49951181870651234  0.428940769303622  0.7917850006943883  1.0000
  H   H333      1.0  0.531381813560147  0.42093139818392006  0.828714875701188  1.0000
  H   H334      1.0  0.5569454297558961  0.38707991853568535  0.7976566151097602  1.0000
  H   H335      1.0  0.35484201635313495  0.387579127002329  0.8298496990734402  1.0000
  H   H336      1.0  0.38345788315912804  0.4297522951041951  0.8110196717068012  1.0000
  H   H337      1.0  0.41472951548730375  0.420154043621012  0.8478580140065195  1.0000
  H   H338      1.0  0.47488239683815453  0.34172656497281645  0.7731860454096516  1.0000
  H   H339      1.0  0.41639862710612996  0.3831178350697731  0.7678237845005825  1.0000
  H   H340      1.0  0.39058699380268674  0.3405807023753483  0.7870380132541226  1.0000
  N   N8        1.0  0.577403276565892  0.23485163700847114  0.3884137215276835  1.0000
  C   C413      1.0  0.6173451628096106  0.24144468394817042  0.4164098244034341  1.0000
  C   C414      1.0  0.5472032253159951  0.19500858446925676  0.38792686551008326  1.0000
  C   C415      1.0  0.6217986106365957  0.23638044241461717  0.3622853738509223  1.0000
  C   C416      1.0  0.5231942531496035  0.26651456089497527  0.38696375970984315  1.0000
  H   H341      1.0  0.5856796048406729  0.2395430853030321  0.4365961833768202  1.0000
  H   H342      1.0  0.6396689484198397  0.2716012282186905  0.4178197537744532  1.0000
  H   H343      1.0  0.6597882258298459  0.21867131301172343  0.4179596474668911  1.0000
  H   H344      1.0  0.5125225882809952  0.1927494931509147  0.40699908987353234  1.0000
  H   H345      1.0  0.517479927117697  0.18874807387610884  0.3669543720680364  1.0000
  H   H346      1.0  0.5867906451427348  0.17055440971463884  0.38917570545412145  1.0000
  H   H347      1.0  0.6653094680533723  0.21431878968479567  0.36351694497631076  1.0000
  H   H348      1.0  0.6427989661780346  0.2665923458604651  0.3609566506873093  1.0000
  H   H349      1.0  0.5939368034331388  0.22940200658403037  0.34085499943843567  1.0000
  H   H350      1.0  0.4875400383084061  0.2654803706028226  0.4058264190194321  1.0000
  H   H351      1.0  0.493067689325721  0.26297175938889944  0.36583884147138157  1.0000
  H   H352      1.0  0.544225529873883  0.29703409119310525  0.3879833119502356  1.0000
  N   N9        1.0  0.9502408495648225  0.32119815212095476  0.7481941883706615  1.0000
  C   C417      1.0  0.9752409666024486  0.28937084454930523  0.7677083314633865  1.0000
  C   C418      1.0  0.9212784289278775  0.3555650006298932  0.7667958207866199  1.0000
  C   C419      1.0  0.8978848446888884  0.3048262582642805  0.7274717841221943  1.0000
  C   C420      1.0  0.006714830960558409  0.3349202825614096  0.730750103985016  1.0000
  H   H353      1.0  0.01705254462135098  0.2998689645447846  0.7827630084511006  1.0000
  H   H354      1.0  0.9942574358271697  0.2622985926187824  0.7541887328943406  1.0000
  H   H355      1.0  0.9345236923105885  0.2798154398300746  0.7822596149078251  1.0000
  H   H356      1.0  0.8775523547724865  0.34675452239891963  0.7798047303135175  1.0000
  H   H357      1.0  0.9592316774312317  0.3677476574651567  0.7832047973976127  1.0000
  H   H358      1.0  0.9031187506517869  0.3804885376673275  0.7528188313925807  1.0000
  H   H359      1.0  0.8556983547297411  0.29293714079250865  0.7400090897078776  1.0000
  H   H360      1.0  0.9186712308088079  0.27945872031576946  0.7125998865576916  1.0000
  H   H361      1.0  0.8763542042531288  0.32811849373780616  0.7128094046944918  1.0000
  H   H362      1.0  0.02774391285283607  0.3102631765374614  0.7154676830878949  1.0000
  H   H363      1.0  0.04861029040383165  0.34567149324888724  0.7456863558230076  1.0000
  H   H364      1.0  0.9899788895401112  0.3599885355661456  0.7166618254354072  1.0000
  N   N10       1.0  0.803892018661689  0.9987845010619419  0.3719442700719987  1.0000
  C   C421      1.0  0.7422630973062018  0.9998404079377466  0.3902212750145032  1.0000
  C   C422      1.0  0.8643289315475556  0.9985896735675284  0.3918429449691055  1.0000
  C   C423      1.0  0.8031128997652011  0.034519129829143846  0.35389994185432105  1.0000
  C   C424      1.0  0.8057161751275315  0.9621234520212424  0.3517324420245266  1.0000
  H   H365      1.0  0.6956256470521964  0.9998942122703053  0.3759111670301795  1.0000
  H   H366      1.0  0.739025739353376  0.02698125138220342  0.40591221837412406  1.0000
  H   H367      1.0  0.7410254646255133  0.9731052598044537  0.40392326603534895  1.0000
  H   H368      1.0  0.911832228575907  0.9975940438587252  0.37879074607974056  1.0000
  H   H369      1.0  0.8641894617097126  0.02564247514072382  0.40762947003779576  1.0000
  H   H370      1.0  0.866520127376259  0.9719682185857054  0.40576473741153557  1.0000
  H   H371      1.0  0.8026693054730583  0.06272013709200897  0.36845583531995935  1.0000
  H   H372      1.0  0.7575903381455333  0.03576864861646056  0.3389244221609618  1.0000
  H   H373      1.0  0.8481992746884711  0.034246648259777634  0.3394072784780811  1.0000
  H   H374      1.0  0.8081912281409974  0.9345627138423368  0.3645732774814655  1.0000
  H   H375      1.0  0.8504681230440388  0.9606172378188335  0.33706058693393126  1.0000
  H   H376      1.0  0.7600037574992541  0.9608120904385646  0.3369068588811287  1.0000
  N   N11       1.0  0.042465221286527625  0.6617108360678035  0.9847897510473733  1.0000
  C   C425      1.0  0.004540126319555208  0.6988749968717897  0.9952130106604397  1.0000
  C   C426      1.0  0.07385962844501597  0.6424035395905145  0.010871332195648417  1.0000
  C   C427      1.0  0.09575073155547195  0.671712168601923  0.9640569526085263  1.0000
  C   C428      1.0  0.9958259467194961  0.6338761736708881  0.9689724400532721  1.0000
  H   H377      1.0  0.9787072276411132  0.7137865333779764  0.9762956881815961  1.0000
  H   H378      1.0  0.03874172408501525  0.7208710341393254  0.006477569791095802  1.0000
  H   H379      1.0  0.9646906145583751  0.692358929918027  0.011312256106750624  1.0000
  H   H380      1.0  0.1030294452450979  0.6142734844266082  0.003983568143096137  1.0000
  H   H381      1.0  0.10972909916831178  0.6625529767557408  0.023255810297547277  1.0000
  H   H382      1.0  0.03521537513084262  0.6344690803958558  0.027152437075531836  1.0000
  H   H383      1.0  0.12327707797200749  0.6441680823219263  0.9547994349621097  1.0000
  H   H384      1.0  0.13403978637924746  0.6908633261743742  0.9755953109849189  1.0000
  H   H385      1.0  0.0744295457635995  0.6879990828150901  0.9447826603685403  1.0000
  H   H386      1.0  0.02279221963379683  0.6056562059812669  0.9605925438178513  1.0000
  H   H387      1.0  0.9705995483314112  0.6477006170405479  0.9493815033489212  1.0000
  H   H388      1.0  0.9554136648364799  0.625325605584573  0.9840220669079801  1.0000
  N   N12       1.0  0.558081531685104  0.5220888758723035  0.5347861085102374  1.0000
  C   C429      1.0  0.592677576816986  0.4937403022793605  0.5547681490466665  1.0000
  C   C430      1.0  0.6058946299951609  0.5523354953186991  0.5265962275281695  1.0000
  C   C431      1.0  0.49982109995271023  0.5424443511465896  0.5503973274570232  1.0000
  C   C432      1.0  0.5341123085229643  0.4998672475574636  0.5072971355242674  1.0000
  H   H389      1.0  0.6116341064399368  0.5094725474041608  0.5757085342977222  1.0000
  H   H390      1.0  0.6366542492572215  0.4776504348721333  0.5435811414519299  1.0000
  H   H391      1.0  0.5581874855498086  0.470412464248164  0.5613901509429157  1.0000
  H   H392      1.0  0.582461631969554  0.5729607222962577  0.5102952933524675  1.0000
  H   H393      1.0  0.6232831736314759  0.5708099460391369  0.5465328366814655  1.0000
  H   H394      1.0  0.6517063149778455  0.5377609130397325  0.5158335426960627  1.0000
  H   H395      1.0  0.5160177602373314  0.56088326071224  0.5705926408008333  1.0000
  H   H396      1.0  0.46387594654342185  0.5203457103991966  0.5578171332945122  1.0000
  H   H397      1.0  0.4706898990488716  0.5626882404097178  0.53546279713947  1.0000
  H   H398      1.0  0.4985859691557473  0.4763827414461412  0.5125422592708094  1.0000
  H   H399      1.0  0.5768876385987737  0.4849447555569615  0.49455074295359674  1.0000
  H   H400      1.0  0.506929708243886  0.5202762756447582  0.4918507334404802  1.0000
  N   N13       1.0  0.468972682871938  0.018234084225174696  0.09312526146537636  1.0000
  C   C433      1.0  0.5127335937592795  0.9828684207217636  0.10002909529454906  1.0000
  C   C434      1.0  0.4004163556181014  0.013353332321101696  0.1046624117217223  1.0000
  C   C435      1.0  0.46524849803951795  0.021881288864128434  0.06032374113934069  1.0000
  C   C436      1.0  0.4973954683085256  0.054956014375092455  0.1075461847291217  1.0000
  H   H401      1.0  0.5179545402897461  0.9797168448654996  0.12463304162917432  1.0000
  H   H402      1.0  0.5645260250835158  0.9850732451016192  0.09123079600979  1.0000
  H   H403      1.0  0.49188971223142247  0.9545914372345706  0.09008357377038512  1.0000
  H   H404      1.0  0.3765609761956509  0.9864004007969799  0.09377831696922789  1.0000
  H   H405      1.0  0.40138615414152506  0.009845180692281907  0.12926167079920425  1.0000
  H   H406      1.0  0.3663957157507238  0.03986503533855812  0.10030544918823958  1.0000
  H   H407      1.0  0.4348447112810847  0.0491439318119804  0.054431325152577426  1.0000
  H   H408      1.0  0.44034938052660516  0.9958809391366324  0.04881191399326923  1.0000
  H   H409      1.0  0.5163185035549231  0.023928951459002867  0.050533548796300565  1.0000
  H   H410      1.0  0.5477651408878684  0.06060831933878408  0.09833235218697256  1.0000
  H   H411      1.0  0.5040797842973398  0.052396378269932375  0.1321301358062863  1.0000
  H   H412      1.0  0.46375822086642005  0.08191334738394573  0.10405495611425541  1.0000
  N   N14       1.0  0.8467777685676859  0.42654144062382665  0.6119303122503014  1.0000
  C   C437      1.0  0.7900325458977205  0.4349155993958492  0.5910066144981106  1.0000
  C   C438      1.0  0.894742144860198  0.4593346278165832  0.61176316633373  1.0000
  C   C439      1.0  0.8815080636993683  0.3879689669706361  0.6023347533936046  1.0000
  C   C440      1.0  0.820730590678633  0.42394137454676273  0.6424996635698262  1.0000
  H   H413      1.0  0.7548291021969323  0.4097898556485856  0.5891685994364316  1.0000
  H   H414      1.0  0.8083730438349549  0.4398738429480172  0.5681598223161728  1.0000
  H   H415      1.0  0.7599144495595578  0.46230505775736885  0.5984822237536744  1.0000
  H   H416      1.0  0.8704102561381546  0.48871050470654026  0.6193809309021263  1.0000
  H   H417      1.0  0.9396428372409564  0.4537113052610589  0.6264812866270874  1.0000
  H   H418      1.0  0.9133879981520548  0.46289567455818753  0.5888504573334261  1.0000
  H   H419      1.0  0.8470550350620791  0.3624432893661612  0.6029936934782351  1.0000
  H   H420      1.0  0.9263342429322826  0.3813913560641884  0.616859340629379  1.0000
  H   H421      1.0  0.8995585994970001  0.3884260593298199  0.5789776478295456  1.0000
  H   H422      1.0  0.7847759927490835  0.39926311638991363  0.6434163746831038  1.0000
  H   H423      1.0  0.7931558273273319  0.45230522264282264  0.6502048169890837  1.0000
  H   H424      1.0  0.8624527974694853  0.4183488407501945  0.6589279683110429  1.0000
  N   N15       1.0  0.4476336102691694  0.027364723039433825  0.6365804038209749  1.0000
  C   C441      1.0  0.39587512497981703  0.002215094787042071  0.6216590254936698  1.0000
  C   C442      1.0  0.4857230315395277  0.003797367909720961  0.6587680209366799  1.0000
  C   C443      1.0  0.41432209468290276  0.06310170557846306  0.6519527522142499  1.0000
  C   C444      1.0  0.4942070250392187  0.04042633398574691  0.6139194250368532  1.0000
  H   H425      1.0  0.36639171541221993  0.018800278126688497  0.6045918263241415  1.0000
  H   H426      1.0  0.3596472992113265  0.9920877166680552  0.6380865142713577  1.0000
  H   H427      1.0  0.41878850502320053  0.9746731466074263  0.6102027961601376  1.0000
  H   H428      1.0  0.45170249654142935  0.993399900193233  0.6760747219761862  1.0000
  H   H429      1.0  0.5116986657496918  0.9765504284563092  0.6479674969377445  1.0000
  H   H430      1.0  0.525392912441059  0.021743624114846538  0.6705288270786461  1.0000
  H   H431      1.0  0.45190523790651715  0.08261236138145733  0.6636766356213036  1.0000
  H   H432      1.0  0.37799487793137726  0.054308354395517844  0.6689040664599787  1.0000
  H   H433      1.0  0.38557370152065856  0.08169366774486053  0.6357643849715221  1.0000
  H   H434      1.0  0.5325339145247975  0.06057781790174688  0.6243303723687252  1.0000
  H   H435      1.0  0.466498781813773  0.057228535806065794  0.596393994469227  1.0000
  H   H436      1.0  0.5223093913330714  0.014292016552798215  0.6026998138887424  1.0000
  N   N16       1.0  0.6863488625775329  0.7283082984251856  0.8610247134623733  1.0000
  C   C445      1.0  0.6669633253485815  0.7536306518315358  0.8359437044909418  1.0000
  C   C446      1.0  0.6805667952586218  0.6855663447800189  0.8509903104960314  1.0000
  C   C447      1.0  0.6407121644721238  0.7383349613117342  0.8864492530150015  1.0000
  C   C448      1.0  0.7568422680979421  0.7355558037603948  0.8707059016010372  1.0000
  H   H437      1.0  0.6652908910019273  0.7860711653196158  0.8431156289309949  1.0000
  H   H438      1.0  0.6157261492860944  0.746826247485853  0.8269421850546655  1.0000
  H   H439      1.0  0.7029600247825492  0.7490779327775654  0.8170536757432805  1.0000
  H   H440      1.0  0.6274440935427783  0.6785333152508096  0.8450025888854064  1.0000
  H   H441      1.0  0.7119179223236588  0.6774565045323777  0.830937253080531  1.0000
  H   H442      1.0  0.6974364639909434  0.6654512318047757  0.8687872422602427  1.0000
  H   H443      1.0  0.6536418425136699  0.719724566021859  0.9057792115271127  1.0000
  H   H444      1.0  0.5870719411982545  0.7333449777420902  0.8798905996092357  1.0000
  H   H445      1.0  0.6441475300099403  0.7704212465912428  0.8945992415885305  1.0000
  H   H446      1.0  0.7929328430230522  0.7285142484128674  0.8521439015971204  1.0000
  H   H447      1.0  0.7729327765705173  0.7166912142234042  0.8895132196581377  1.0000
  H   H448      1.0  0.7630247610085736  0.7673204144983297  0.8788736715009186  1.0000
  N   N17       1.0  0.8023924363805849  0.44961718503678927  0.88967846633993  1.0000
  C   C449      1.0  0.8560912228297834  0.4570086817032892  0.9124534459743316  1.0000
  C   C450      1.0  0.8270890476552664  0.41914503195675934  0.8666436225386194  1.0000
  C   C451      1.0  0.7831183015700302  0.48757161275496635  0.8757010065754074  1.0000
  C   C452      1.0  0.7427670817560205  0.4347335529400547  0.9041975627238849  1.0000
  H   H449      1.0  0.838920582744674  0.4799531374754218  0.930133637130156  1.0000
  H   H450      1.0  0.9022287442925073  0.46801188298980406  0.9023220780878587  1.0000
  H   H451      1.0  0.8710039592075294  0.4291211188557418  0.9238769365767572  1.0000
  H   H452      1.0  0.7877815437970728  0.41291479413806875  0.849073092107178  1.0000
  H   H453      1.0  0.8728741815047617  0.4289953846331259  0.8555339721408354  1.0000
  H   H454      1.0  0.8411200696375226  0.3900389819288091  0.8766365877098902  1.0000
  H   H455      1.0  0.7435813204666373  0.48296782996602267  0.8579567553909403  1.0000
  H   H456      1.0  0.8271944162455593  0.5006230193440384  0.865306702395634  1.0000
  H   H457      1.0  0.7620416090711791  0.5104494326338398  0.8925866419251792  1.0000
  H   H458      1.0  0.7539784768903114  0.40494552206904844  0.9132232475864006  1.0000
  H   H459      1.0  0.6992066732327658  0.43159971078839243  0.888288402213041  1.0000
  H   H460      1.0  0.7260374878126541  0.4552425848217506  0.9233250002967857  1.0000
  N   N18       1.0  0.41811208465826233  0.365840852583763  0.04036215550459274  1.0000
  C   C453      1.0  0.3796435531573252  0.3892182910059076  0.01819248186207631  1.0000
  C   C454      1.0  0.43879299454568493  0.39306013289324904  0.06586213915962694  1.0000
  C   C455      1.0  0.4788507352805728  0.34629774188178547  0.026186457127110093  1.0000
  C   C456      1.0  0.37506226387186337  0.3348821285151602  0.05138934460420402  1.0000
  H   H461      1.0  0.36070574201229216  0.3695570814684899  0.9991436796703365  1.0000
  H   H462      1.0  0.4111529752312549  0.4121208052404416  0.008739654086556393  1.0000
  H   H463      1.0  0.3351084393106795  0.40578713713119585  0.028543324985616386  1.0000
  H   H464      1.0  0.4689430276466014  0.3766142719615398  0.0828859802658351  1.0000
  H   H465      1.0  0.47013337904062147  0.41733428939892114  0.05839864198155959  1.0000
  H   H466      1.0  0.39419837034044813  0.407460768235089  0.07758310216155202  1.0000
  H   H467      1.0  0.5112855534968782  0.36874791786580835  0.016718424118456525  1.0000
  H   H468      1.0  0.46539820133538284  0.3242327276530594  0.0076587887840897486  1.0000
  H   H469      1.0  0.5108137388616958  0.3301069102998603  0.04272047720658817  1.0000
  H   H470      1.0  0.3593081117807839  0.31312513931649505  0.033089657324551734  1.0000
  H   H471      1.0  0.32810496330277267  0.3486963424129136  0.06162645930534649  1.0000
  H   H472      1.0  0.40178065284703285  0.3177281224668126  0.06900050074379657  1.0000
  N   N19       1.0  0.9450319812682427  0.21285791529003553  0.5888268941194632  1.0000
  C   C457      1.0  0.8934103751584124  0.19629780289389281  0.6076048286978224  1.0000
  C   C458      1.0  0.9978669451393872  0.23120331592337595  0.6082865133805564  1.0000
  C   C459      1.0  0.9131002242904208  0.24366865761054574  0.5701053036687407  1.0000
  C   C460      1.0  0.9757204892108191  0.1800848032963424  0.5692429140134021  1.0000
  H   H473      1.0  0.8518758713463129  0.1832216432869734  0.5936235569954343  1.0000
  H   H474      1.0  0.870390923626966  0.21983873033319162  0.623357719531041  1.0000
  H   H475      1.0  0.9157382396461825  0.17197410446687028  0.6211766821594026  1.0000
  H   H476      1.0  0.03412664380339781  0.24722308469977933  0.5951280145481355  1.0000
  H   H477      1.0  0.9758743240127564  0.2532057946682682  0.6254379529839219  1.0000
  H   H478      1.0  0.0279318395625777  0.20800847641401674  0.6201749626730343  1.0000
  H   H479      1.0  0.9503672326317866  0.25572304341108437  0.5548505535926082  1.0000
  H   H480      1.0  0.8912252714308646  0.2694498623328837  0.5841010643121524  1.0000
  H   H481      1.0  0.8717511236364172  0.2310493337818506  0.5556584824416498  1.0000
  H   H482      1.0  0.014701586866672455  0.19143890334720337  0.5546078919479398  1.0000
  H   H483      1.0  0.9367450259724931  0.16528826689994566  0.5548143860813172  1.0000
  H   H484      1.0  0.0008805490789864923  0.15642544852827872  0.582570775520824  1.0000
  N   N20       1.0  0.9475460200038187  0.1644157336033708  0.8087311664360444  1.0000
  C   C461      1.0  0.8925679034918577  0.18906500857322833  0.7952743350213063  1.0000
  C   C462      1.0  0.930724240136265  0.1574571301421126  0.840017239989483  1.0000
  C   C463      1.0  0.011347542191136034  0.18592638342111956  0.8082589635001501  1.0000
  C   C464      1.0  0.9555318476676332  0.12535472947107482  0.7914895890179605  1.0000
  H   H485      1.0  0.8837832041553484  0.21817421886141225  0.8083901152029564  1.0000
  H   H486      1.0  0.8439296005822776  0.1733618397847082  0.7943550870836202  1.0000
  H   H487      1.0  0.9042786237801802  0.19574347453174376  0.7718748631873972  1.0000
  H   H488      1.0  0.9710978536033649  0.1389242722113584  0.8508796177636057  1.0000
  H   H489      1.0  0.925496167820283  0.18634566666396699  0.8536011414843566  1.0000
  H   H490      1.0  0.8822918424180792  0.14190344198343358  0.8413247073128926  1.0000
  H   H491      1.0  0.02919944190413337  0.18819034652085043  0.7849851449002139  1.0000
  H   H492      1.0  0.052424875184360425  0.17025042537049428  0.8208867853684931  1.0000
  H   H493      1.0  0.005428936514771107  0.21687985490546205  0.8187841707918861  1.0000
  H   H494      1.0  0.9948246456871706  0.10544467194681931  0.8017375051717474  1.0000
  H   H495      1.0  0.9712954841061668  0.12935591186788023  0.7680977537602197  1.0000
  H   H496      1.0  0.907365804330559  0.10922171050670305  0.7900733191965861  1.0000
  N   N21       1.0  0.05497134799724976  0.5854640644586429  0.8265754316004674  1.0000
  C   C465      1.0  0.03168260944469212  0.6176782383905453  0.8070265071444511  1.0000
  C   C466      1.0  0.08039582226931558  0.5501328194727555  0.80793932090331  1.0000
  C   C467      1.0  0.9980850554838124  0.573725555641981  0.8447192686639355  1.0000
  C   C468      1.0  0.10975727926465553  0.6004049724967443  0.8466280838526339  1.0000
  H   H497      1.0  0.07322396014940083  0.6264132023624667  0.7925160353881843  1.0000
  H   H498      1.0  0.013777696409899978  0.6451086706164861  0.8204662733792047  1.0000
  H   H499      1.0  0.9894171473588141  0.6079350074165735  0.7919450811757418  1.0000
  H   H500      1.0  0.0985422342249075  0.5252676003587918  0.8219857314193464  1.0000
  H   H501      1.0  0.04030692330910124  0.5382232404817984  0.792492284890134  1.0000
  H   H502      1.0  0.1233603891023724  0.5577917946077082  0.7938985976106643  1.0000
  H   H503      1.0  0.013462165569909748  0.5486102695407775  0.8590639392504352  1.0000
  H   H504      1.0  0.9550026095586924  0.5634851691956607  0.8302641082028549  1.0000
  H   H505      1.0  0.9788383204953481  0.5993595836646056  0.8596877370972035  1.0000
  H   H506      1.0  0.1293168439542972  0.5769217508654054  0.8615983342821644  1.0000
  H   H507      1.0  0.09227108530931721  0.6270278698047937  0.8610796881183893  1.0000
  H   H508      1.0  0.1530638988467303  0.6099735510061061  0.8335656430323422  1.0000
  N   N22       1.0  0.6835028798813357  0.6772499788874291  0.10769263036786714  1.0000
  C   C469      1.0  0.6245671762283357  0.6709058408136367  0.12645293583138228  1.0000
  C   C470      1.0  0.6734707670346729  0.7155165770001671  0.09282130789540699  1.0000
  C   C471      1.0  0.6909144707539896  0.6438556610476674  0.08463867531648761  1.0000
  C   C472      1.0  0.7451151771164926  0.6786755830399404  0.12678093527760656  1.0000
  H   H509      1.0  0.5772610667931635  0.6694064540133238  0.11275196579326952  1.0000
  H   H510      1.0  0.617014662012218  0.6957843736974859  0.14393534293278432  1.0000
  H   H511      1.0  0.6308567892691  0.6424185332499834  0.1381690387339502  1.0000
  H   H512      1.0  0.6651605467656876  0.7413929164624262  0.10934875222833593  1.0000
  H   H513      1.0  0.7180381221411161  0.7218963824679879  0.07926632707126084  1.0000
  H   H514      1.0  0.6289588756843727  0.7149399614721114  0.07744744184439678  1.0000
  H   H515      1.0  0.6452955358696243  0.6420206451351618  0.06982130333024661  1.0000
  H   H516      1.0  0.6987510511583357  0.6144485709928115  0.09496863459271922  1.0000
  H   H517      1.0  0.7348990765457736  0.6478882100807106  0.07007254551437316  1.0000
  H   H518      1.0  0.7410921410453551  0.7036747962766003  0.14432911387109762  1.0000
  H   H519      1.0  0.7906125527758465  0.6835487325504342  0.11337740794968877  1.0000
  H   H520      1.0  0.7542533912889156  0.6502700794798649  0.13837184665668834  1.0000
  N   N23       1.0  0.3600037359629577  0.6903006590824043  0.7022863724823023  1.0000
  C   C473      1.0  0.3923471080144739  0.7294207061035325  0.7014859521406102  1.0000
  C   C474      1.0  0.29455553768648757  0.6960626674139136  0.7176665108809481  1.0000
  C   C475      1.0  0.4043447877101649  0.6621586139623518  0.7187513344658496  1.0000
  C   C476      1.0  0.3485851729866542  0.673625466221515  0.6712969714750834  1.0000
  H   H521      1.0  0.4000665603073206  0.7435125491745793  0.7244250051420354  1.0000
  H   H522      1.0  0.36075661192201  0.7510553099585335  0.6887076224624797  1.0000
  H   H523      1.0  0.4427929782810084  0.726131144219534  0.6907357962259345  1.0000
  H   H524      1.0  0.2718466428774108  0.666951791699513  0.7213866115188203  1.0000
  H   H525      1.0  0.300127619996636  0.7122870318380086  0.7400038847796326  1.0000
  H   H526      1.0  0.2573421426506032  0.7133952921418574  0.7041837681150364  1.0000
  H   H527      1.0  0.41298269186434056  0.6737462503812321  0.7423323111051523  1.0000
  H   H528      1.0  0.45467982875377255  0.657665049193689  0.7080777655101476  1.0000
  H   H529      1.0  0.3816610726464209  0.6322121520906117  0.7195095976058333  1.0000
  H   H530      1.0  0.3968574926507893  0.6692112009657818  0.6588755448712844  1.0000
  H   H531      1.0  0.3148776355007639  0.6941054778738468  0.6583243905398944  1.0000
  H   H532      1.0  0.32415691467557917  0.6441185099745179  0.6709895580421805  1.0000
  N   N24       1.0  0.7977077263145781  0.9854706166297328  0.8538370116551741  1.0000
  C   C477      1.0  0.8385935731053507  0.9474525468672749  0.8508691467645715  1.0000
  C   C478      1.0  0.7388009312192766  0.9828232627089225  0.8331879505892285  1.0000
  C   C479      1.0  0.8392046627430383  0.019121430265675032  0.8461536353039144  1.0000
  C   C480      1.0  0.7741524831539114  0.9924483204455052  0.8849877665884545  1.0000
  H   H533      1.0  0.8841607027504941  0.9481453193157828  0.8658084154213613  1.0000
  H   H534      1.0  0.8559467264889948  0.9411674503885962  0.827498041629467  1.0000
  H   H535      1.0  0.8086116623624539  0.9215577860194668  0.8563959199237807  1.0000
  H   H536      1.0  0.7541587116598857  0.9743186166087474  0.8097572163352288  1.0000
  H   H537      1.0  0.7032204382206447  0.9602137409792381  0.8399686060276635  1.0000
  H   H538      1.0  0.7099262741860605  0.011858735035258139  0.8329593348565826  1.0000
  H   H539      1.0  0.8104608434548979  0.0484343901786477  0.8491521340745491  1.0000
  H   H540      1.0  0.8552792233686005  0.015654148070031626  0.8224337717126262  1.0000
  H   H541      1.0  0.8855718788749192  0.020833990837994865  0.8605352528404528  1.0000
  H   H542      1.0  0.7437335039322444  0.021186643203320754  0.8879944552199942  1.0000
  H   H543      1.0  0.8172555936378284  0.9938800641429716  0.9012963987087903  1.0000
  H   H544      1.0  0.7413426269088566  0.9681100690870791  0.8913455605467252  1.0000
  N   N25       1.0  0.8184367141887787  0.9426076866953877  0.13296529841658547  1.0000
  C   C481      1.0  0.8359490199981103  0.9089806477258574  0.11114300128512514  1.0000
  C   C482      1.0  0.7461549111958553  0.9415943038538437  0.14054896807593875  1.0000
  C   C483      1.0  0.8315030990384736  0.9811821216106142  0.11985551711353151  1.0000
  C   C484      1.0  0.8603263812987114  0.9387256398328908  0.16037774942959798  1.0000
  H   H545      1.0  0.8898679503939144  0.909380214939694  0.10452559871354859  1.0000
  H   H546      1.0  0.8041641543062081  0.9105316299882752  0.0903971983167538  1.0000
  H   H547      1.0  0.8281088228237717  0.8794626904198157  0.12064782382285887  1.0000
  H   H548      1.0  0.7322925981058984  0.9649996463149629  0.15837726058990584  1.0000
  H   H549      1.0  0.7128478933867751  0.9470102908910015  0.12073878162792558  1.0000
  H   H550      1.0  0.7334642891804567  0.9121548558402642  0.14898054500297664  1.0000
  H   H551      1.0  0.885851687437048  0.9834679359730086  0.11440941100214576  1.0000
  H   H552      1.0  0.8177744634768332  0.007159816789469753  0.1355612755317321  1.0000
  H   H553      1.0  0.8014920420401046  0.9849992069990628  0.09885533598866394  1.0000
  H   H554      1.0  0.9151935203624586  0.9386687745007339  0.15536558768517605  1.0000
  H   H555      1.0  0.85028421017525  0.9106376203677334  0.1715546790017357  1.0000
  H   H556      1.0  0.8494107994346661  0.9641599227999661  0.17699608656258567  1.0000
  N   N26       1.0  0.37436833889025106  0.719094346793598  0.4497045592621081  1.0000
  C   C485      1.0  0.31581998018485324  0.7214860532486018  0.4288569885993156  1.0000
  C   C486      1.0  0.3750398643630099  0.6804144567964989  0.4642843564824906  1.0000
  C   C487      1.0  0.3689048647204783  0.7525280192914067  0.47281278461701287  1.0000
  C   C488      1.0  0.43753317125499  0.7219941469582787  0.43293609798969757  1.0000
  H   H557      1.0  0.31351189120598777  0.7502710797787011  0.41739986593191913  1.0000
  H   H558      1.0  0.2672845478274166  0.7192050172781415  0.44074689453167826  1.0000
  H   H559      1.0  0.31830378580203283  0.6965749587278011  0.41125041296258147  1.0000
  H   H560      1.0  0.32784306541846275  0.6772728074774552  0.47699887141360836  1.0000
  H   H561      1.0  0.3792519131714476  0.6544048137874577  0.44756220331740315  1.0000
  H   H562      1.0  0.41818084406470635  0.6777255406659486  0.48037068527186355  1.0000
  H   H563      1.0  0.367953936384853  0.7822482260424869  0.46269046933473834  1.0000
  H   H564      1.0  0.4122949284703225  0.7516624149282239  0.4889574123633837  1.0000
  H   H565      1.0  0.32185891959494917  0.7511437087415638  0.4859259846030924  1.0000
  H   H566      1.0  0.4827449748665867  0.7206081605871605  0.44802527771406553  1.0000
  H   H567      1.0  0.43832402495070844  0.7506820493123042  0.42144968282951917  1.0000
  H   H568      1.0  0.4437057464589789  0.6971102339059783  0.4154093145056612  1.0000
  N   N27       1.0  0.8248815586543985  0.44797230689287515  0.39438917181517286  1.0000
  C   C489      1.0  0.8546717977002121  0.4876998040109902  0.3998459055563931  1.0000
  C   C490      1.0  0.8743568486739316  0.4161553328947398  0.40304700746311894  1.0000
  C   C491      1.0  0.8069528123480734  0.4414711622779987  0.3622964323721565  1.0000
  C   C492      1.0  0.763292033500443  0.4466582241659283  0.4124218049047817  1.0000
  H   H569      1.0  0.9006528762518317  0.49026433099897393  0.38626237101499844  1.0000
  H   H570      1.0  0.8691820056973704  0.4931082764086646  0.4239042881609457  1.0000
  H   H571      1.0  0.818043611942568  0.5123532562676896  0.3941281202966634  1.0000
  H   H572      1.0  0.9219641372044439  0.416941856889783  0.39025636760332105  1.0000
  H   H573      1.0  0.8878851914303396  0.4196054572257291  0.42731947653271185  1.0000
  H   H574      1.0  0.8540652689209188  0.3856848648828497  0.39855228581161856  1.0000
  H   H575      1.0  0.7714826038419941  0.4657159092350176  0.35466732048187255  1.0000
  H   H576      1.0  0.7821000536590111  0.41232691544969063  0.3578168289710398  1.0000
  H   H577      1.0  0.8525792584893076  0.4406202086406879  0.34808890835052103  1.0000
  H   H578      1.0  0.724323409312678  0.46945607501352504  0.405678457773138  1.0000
  H   H579      1.0  0.7741184355040256  0.4530679603928993  0.436714224303542  1.0000
  H   H580      1.0  0.740191646647741  0.4168571696199773  0.40976858714208764  1.0000
  N   N28       1.0  0.7041924422355748  0.7334222506258627  0.36711486163329043  1.0000
  C   C493      1.0  0.6821166874868763  0.7622795183221971  0.34470478905233726  1.0000
  C   C494      1.0  0.6530758656652906  0.7336457531978675  0.3908438452244128  1.0000
  C   C495      1.0  0.7698944598150658  0.7449435969316137  0.38058523441095254  1.0000
  C   C496      1.0  0.7114991382823405  0.6927029113927092  0.35234681146943836  1.0000
  H   H581      1.0  0.6338517662069433  0.7535597905020015  0.3334637640051602  1.0000
  H   H582      1.0  0.7204292128743415  0.7639773142061086  0.3269135604093256  1.0000
  H   H583      1.0  0.6737021012854371  0.7930402387934051  0.35529585809658354  1.0000
  H   H584      1.0  0.6463998067131076  0.763883321343064  0.40259007685233505  1.0000
  H   H585      1.0  0.6029099366123631  0.7247077771265859  0.3816267001234382  1.0000
  H   H586      1.0  0.6683848146509905  0.7125603743009676  0.4083064450009548  1.0000
  H   H587      1.0  0.7662712574211082  0.7752145661445328  0.39243669850446616  1.0000
  H   H588      1.0  0.8098275157921335  0.745540367910336  0.3634323573586567  1.0000
  H   H589      1.0  0.7883515859873033  0.7234851110634054  0.397422324835801  1.0000
  H   H590      1.0  0.662842815915345  0.6826774929548501  0.3422521206312931  1.0000
  H   H591      1.0  0.7285721926384148  0.6702777087656933  0.36857519976281133  1.0000
  H   H592      1.0  0.7493469816411423  0.6915091219120006  0.334172247420354  1.0000
  N   N29       1.0  0.12290189045540469  0.9257303987795  0.7223009742909324  1.0000
  C   C497      1.0  0.08404603590426629  0.9645791096934877  0.7243688202389876  1.0000
  C   C498      1.0  0.18307289401540458  0.928265034921617  0.7422225095813794  1.0000
  C   C499      1.0  0.1444226674525231  0.9164535165399676  0.6910604373778245  1.0000
  C   C500      1.0  0.08027908198600851  0.8935479868861489  0.7317509098509161  1.0000
  H   H593      1.0  0.06843533813456132  0.9728479675924979  0.7477901173931583  1.0000
  H   H594      1.0  0.03733314819568917  0.9636958033015008  0.7101599298922253  1.0000
  H   H595      1.0  0.1146068902434964  0.9893639758798798  0.7170316741807827  1.0000
  H   H596      1.0  0.16927706764845019  0.9374664244069559  0.7657480510835718  1.0000
  H   H597      1.0  0.21141154667994927  0.8989920186174195  0.7425272124712188  1.0000
  H   H598      1.0  0.21878681452774987  0.9501686940566614  0.7346204839627256  1.0000
  H   H599      1.0  0.10035384442090242  0.9146708868351762  0.6753098318947389  1.0000
  H   H600      1.0  0.1739934437555298  0.8873369571887266  0.6887550866467373  1.0000
  H   H601      1.0  0.1774844910937616  0.939898054736056  0.6833622867275386  1.0000
  H   H602      1.0  0.10706254079137106  0.8635626873176684  0.7290716151338389  1.0000
  H   H603      1.0  0.03208519866987186  0.8923423893992152  0.7185563979886322  1.0000
  H   H604      1.0  0.06701843933960329  0.8985531229640245  0.7557486834613167  1.0000
  N   N30       1.0  0.46559577620054887  0.8704727025083476  0.3641641188376726  1.0000
  C   C501      1.0  0.49716971817857925  0.8810731118642536  0.3936297071519137  1.0000
  C   C502      1.0  0.5166683755971442  0.8704886757344538  0.34045638910923126  1.0000
  C   C503      1.0  0.41078602494543853  0.9003743297947786  0.3580243273776362  1.0000
  C   C504      1.0  0.4375380380021555  0.8301124641362216  0.3645357467059045  1.0000
  H   H605      1.0  0.5394513632970527  0.8595088265263388  0.39895276627697135  1.0000
  H   H606      1.0  0.45973859985642196  0.8814224969020744  0.4119753546236568  1.0000
  H   H607      1.0  0.51867126040812  0.9114403764104537  0.3941668090830286  1.0000
  H   H608      1.0  0.5592745067945852  0.8485545027672434  0.34446047408234626  1.0000
  H   H609      1.0  0.49434659385043256  0.8626092826418045  0.3179508307780698  1.0000
  H   H610      1.0  0.5387675289566171  0.9005910307908896  0.33969840165914733  1.0000
  H   H611      1.0  0.3724381574704321  0.902206678626689  0.37595545626226884  1.0000
  H   H612      1.0  0.38449288429444983  0.8929834635414944  0.3363127155669446  1.0000
  H   H613      1.0  0.4304445830391441  0.9309987771411249  0.3570486895084374  1.0000
  H   H614      1.0  0.3984358233191838  0.8291872659280923  0.38206251829807253  1.0000
  H   H615      1.0  0.47757384858899254  0.80680136707731  0.3691612470999774  1.0000
  H   H616      1.0  0.4134046890656139  0.8210506623604206  0.34262312804118517  1.0000
  N   N31       1.0  0.30264114917055057  0.16814122672732915  0.7243582243240383  1.0000
  C   C505      1.0  0.23807087740845093  0.1641139405313034  0.707534066461744  1.0000
  C   C506      1.0  0.3032029564699999  0.20796137549729737  0.7406388327541584  1.0000
  C   C507      1.0  0.35957869716516666  0.16391148558740898  0.703302470091697  1.0000
  C   C508      1.0  0.30980826919141774  0.13655213608225955  0.7461399313682043  1.0000
  H   H617      1.0  0.23102585961656577  0.18744657864144398  0.6908671466388404  1.0000
  H   H618      1.0  0.19386115900161258  0.16734782522400293  0.722697605508379  1.0000
  H   H619      1.0  0.23563434557432048  0.13441792928916801  0.6949532766380898  1.0000
  H   H620      1.0  0.2975732057498469  0.23270816038960157  0.7250758913971025  1.0000
  H   H621      1.0  0.2614204556399404  0.21182654630366568  0.7570090225437531  1.0000
  H   H622      1.0  0.3511240966181536  0.2119711431017731  0.7534899565925829  1.0000
  H   H623      1.0  0.3595632820733993  0.13454506860817084  0.6902056855014107  1.0000
  H   H624      1.0  0.4091646046730333  0.1660404203686738  0.7153119291889766  1.0000
  H   H625      1.0  0.356788756946  0.18772178720682525  0.6868829742521257  1.0000
  H   H626      1.0  0.26773406908342623  0.1389922987023811  0.7624328576365089  1.0000
  H   H627      1.0  0.3579007237908799  0.13880370360957883  0.759289542333382  1.0000
  H   H628      1.0  0.30961684828891156  0.10601084556011679  0.7347755606147974  1.0000
  N   N32       1.0  0.18616881152729764  0.43228759825477736  0.6881334399651814  1.0000
  C   C509      1.0  0.16125324551984052  0.46963237452752044  0.704529174542576  1.0000
  C   C510      1.0  0.19450485113863936  0.4400306263347825  0.6562629792322503  1.0000
  C   C511      1.0  0.1368894415936321  0.40056340205860314  0.6905526736471461  1.0000
  C   C512      1.0  0.2520184135041463  0.4189700658050136  0.7009981442813586  1.0000
  H   H629      1.0  0.11141329077532232  0.4804096974901719  0.6954450765522292  1.0000
  H   H630      1.0  0.1969797123752103  0.49427359564508977  0.7027900240022614  1.0000
  H   H631      1.0  0.15446429206115064  0.46506800479933597  0.7287146324749312  1.0000
  H   H632      1.0  0.23451314320792468  0.46189803308374877  0.6534020439340444  1.0000
  H   H633      1.0  0.2092752200203622  0.412124088285901  0.6426857723743032  1.0000
  H   H634      1.0  0.14670967769627907  0.45222899118088794  0.6462605330613806  1.0000
  H   H635      1.0  0.15357433282271585  0.3723165879423301  0.6777921209307358  1.0000
  H   H636      1.0  0.08641291192048818  0.4100894220451714  0.6814471863170957  1.0000
  H   H637      1.0  0.13028501874811382  0.39332814283536105  0.7142392553655246  1.0000
  H   H638      1.0  0.29108648311512575  0.44165352940569846  0.698444859973631  1.0000
  H   H639      1.0  0.27116547334992014  0.39032783958811845  0.6895284067375234  1.0000
  H   H640      1.0  0.2482180118462793  0.41393421875901837  0.7252660998786399  1.0000
  N   N33       1.0  0.016591141751788656  0.7672311274673362  0.6031486212902205  1.0000
  C   C513      1.0  0.9604972419765085  0.7695453954609806  0.5810295489003776  1.0000
  C   C514      1.0  0.9922747947579765  0.7510240205200591  0.6309297228870033  1.0000
  C   C515      1.0  0.042150532898235143  0.8078876484309508  0.6098941102041315  1.0000
  C   C516      1.0  0.07157160045296794  0.7403740524614818  0.5907087655349167  1.0000
  H   H641      1.0  0.9388520156725364  0.739547676412077  0.5759199070972575  1.0000
  H   H642      1.0  0.97760196623043  0.7808829916131965  0.5595837299467943  1.0000
  H   H643      1.0  0.9188954268248279  0.7902934803472124  0.5895997389487304  1.0000
  H   H644      1.0  0.03341771692640542  0.7495111829034287  0.6482108906171181  1.0000
  H   H645      1.0  0.9494556933616329  0.7698985959534783  0.6406272563668199  1.0000
  H   H646      1.0  0.974364178912627  0.7199116411293887  0.6267045495204037  1.0000
  H   H647      1.0  0.002063906362840765  0.8289701636910659  0.6194422764615836  1.0000
  H   H648      1.0  0.06078067277500236  0.8210534435172101  0.589364925694315  1.0000
  H   H649      1.0  0.0850210520642161  0.8072148198332422  0.6263160067120357  1.0000
  H   H650      1.0  0.05351057699756055  0.7098417221154938  0.5843114406334018  1.0000
  H   H651      1.0  0.11337238108325631  0.7365605455498985  0.6073799708787522  1.0000
  H   H652      1.0  0.09341968848115462  0.7523089179384617  0.5704502057008422  1.0000
  N   N34       1.0  0.5575677853567117  0.5093252855968978  0.027194226022946966  1.0000
  C   C517      1.0  0.631320868154153  0.509554704974165  0.03284010652361902  1.0000
  C   C518      1.0  0.5230114632199578  0.505093503944973  0.05582534544601292  1.0000
  C   C519      1.0  0.5418339090095331  0.47528827603424917  0.005919122159472101  1.0000
  C   C520      1.0  0.5342583308999329  0.5473321742884635  0.014216817570940066  1.0000
  H   H653      1.0  0.6503512823606121  0.48126371540210117  0.042758315115970724  1.0000
  H   H654      1.0  0.6449450469423934  0.5351652302264538  0.048515635192519335  1.0000
  H   H655      1.0  0.6595829194564029  0.512239901680577  0.011820937648408414  1.0000
  H   H656      1.0  0.540691184071918  0.47708047358832417  0.06647220013234856  1.0000
  H   H657      1.0  0.532842213252442  0.5307588863641635  0.0721326310721333  1.0000
  H   H658      1.0  0.4672961843085731  0.5040308457798571  0.052529534427153024  1.0000
  H   H659      1.0  0.4867903932531704  0.47467368680171546  0.0006997927169809515  1.0000
  H   H660      1.0  0.5578786719406245  0.4460424992917156  0.015037196711167322  1.0000
  H   H661      1.0  0.568083037015988  0.4774917689899703  0.9842744919834638  1.0000
  H   H662      1.0  0.47845953080860437  0.5483285237217583  0.010271367079664584  1.0000
  H   H663      1.0  0.5584214243792667  0.5509370215472349  0.9922686729830303  1.0000
  H   H664      1.0  0.5467784905168948  0.573771235371298  0.029228667727571045  1.0000
  N   N35       1.0  0.11846847171341945  0.4695825083304474  0.9653440973241783  1.0000
  C   C521      1.0  0.13059792829055206  0.44391557992261593  0.9909198922065238  1.0000
  C   C522      1.0  0.04828440826703817  0.46554754793956227  0.954047984944475  1.0000
  C   C523      1.0  0.16619808430135063  0.45681111706002  0.9413315902250898  1.0000
  C   C524      1.0  0.12921682245013466  0.5119541907643556  0.9750387766606017  1.0000
  H   H665      1.0  0.18378886659571636  0.44512620902390343  0.9993673455115911  1.0000
  H   H666      1.0  0.1209169093299356  0.4118169940983249  0.984625000097418  1.0000
  H   H667      1.0  0.09713453502268532  0.45336340576880557  0.00985661893971912  1.0000
  H   H668      1.0  0.03707028026623749  0.43359102997559373  0.9482427713889272  1.0000
  H   H669      1.0  0.010980134672055275  0.4769780361415389  0.971121128369208  1.0000
  H   H670      1.0  0.0386285758369862  0.4824372851574199  0.9335617929646428  1.0000
  H   H671      1.0  0.15972715349755617  0.42483054996343655  0.9341022522871866  1.0000
  H   H672      1.0  0.21973763325996476  0.4595439590276065  0.9490729708949596  1.0000
  H   H673      1.0  0.15836683883204694  0.4748822536911334  0.9213167134210863  1.0000
  H   H674      1.0  0.09363424889177718  0.5227209803093958  0.9930680561734069  1.0000
  H   H675      1.0  0.12221199348145317  0.5319755696599735  0.9560843946464518  1.0000
  H   H676      1.0  0.18144236967898997  0.5156088558935624  0.984000303363245  1.0000
  N   N36       1.0  0.3289062908414715  0.22515598423701533  0.9676743828111694  1.0000
  C   C525      1.0  0.3763817481653038  0.2578126116581222  0.9736580723497811  1.0000
  C   C526      1.0  0.36707412539782314  0.1863212654299239  0.9635254332519287  1.0000
  C   C527      1.0  0.2889878936250732  0.23288099774491372  0.9401931194012554  1.0000
  C   C528      1.0  0.2833607171383471  0.22360181308804591  0.9934034697439235  1.0000
  H   H677      1.0  0.4046825445543435  0.2540265519335513  0.995061668074069  1.0000
  H   H678      1.0  0.34912508168350453  0.28774602643475644  0.9752115942666262  1.0000
  H   H679      1.0  0.4142405421842257  0.25818957141477245  0.955574503441832  1.0000
  H   H680      1.0  0.3323503149648005  0.16116668582706561  0.9596249430376299  1.0000
  H   H681      1.0  0.4019522025893331  0.1860013770906765  0.9442697099247231  1.0000
  H   H682      1.0  0.39814942923182983  0.17972050693667954  0.9836653588615125  1.0000
  H   H683      1.0  0.26042184151112224  0.26228980776954874  0.9423533210092075  1.0000
  H   H684      1.0  0.2514160271995618  0.2094240025239591  0.9352504220687  1.0000
  H   H685      1.0  0.32180944999562855  0.23332543566258873  0.9202292030254293  1.0000
  H   H686      1.0  0.3110944600208426  0.2141302337252426  0.013878336683606012  1.0000
  H   H687      1.0  0.24248096358086674  0.20207729079171075  0.9885962694570273  1.0000
  H   H688      1.0  0.25871688449425456  0.25339213954951945  0.9990874255402484  1.0000
  N   N37       1.0  0.9596072826090046  0.12858827828773384  0.974861979369352  1.0000
  C   C529      1.0  0.9748708679318208  0.11139791902213127  0.004097587545556157  1.0000
  C   C530      1.0  0.9914413256399038  0.16777687005953285  0.9735781906233336  1.0000
  C   C531      1.0  0.8856713530794731  0.1344087020024864  0.9710838052786094  1.0000
  C   C532      1.0  0.9861449042418331  0.10066695003687907  0.9505875218357885  1.0000
  H   H689      1.0  0.954097649246913  0.1310604867357812  0.02293760595210659  1.0000
  H   H690      1.0  0.030275319806568612  0.10711851721841437  0.00806441180246734  1.0000
  H   H691      1.0  0.9516555802286013  0.08167878896366025  0.005589775676626661  1.0000
  H   H692      1.0  0.98232043402078  0.18087727201825438  0.9514601316781689  1.0000
  H   H693      1.0  0.9712895404989815  0.19001462632516186  0.9909748025235396  1.0000
  H   H694      1.0  0.047036472216171576  0.16502170139407546  0.9769855959995204  1.0000
  H   H695      1.0  0.8718030933106141  0.1465276066320476  0.9490145646310539  1.0000
  H   H696      1.0  0.8642748386666561  0.1559682268605386  0.9887771147547959  1.0000
  H   H697      1.0  0.8599212427918147  0.10560902248137999  0.9726346923719571  1.0000
  H   H698      1.0  0.9750503279201012  0.11258299804525514  0.9282125829419109  1.0000
  H   H699      1.0  0.9631249204394734  0.07073380898869312  0.9509745014195228  1.0000
  H   H700      1.0  0.0420264231654397  0.09618095713502516  0.9526849212801894  1.0000
  N   N38       1.0  0.03836560753249141  0.6745636081571088  0.48570055400619766  1.0000
  C   C533      1.0  0.09158885190509403  0.6838917898788838  0.46470023914169545  1.0000
  C   C534      1.0  0.9970978889598415  0.7114566574898613  0.49370405718186494  1.0000
  C   C535      1.0  0.06985297845365679  0.6589904234904836  0.513185075375965  1.0000
  C   C536      1.0  0.9948253074555394  0.6439370917230661  0.47115260403230463  1.0000
  H   H701      1.0  0.06978527403521917  0.6977644920725266  0.4444575245927398  1.0000
  H   H702      1.0  0.12147007953049882  0.6564175089354737  0.457001981140707  1.0000
  H   H703      1.0  0.12759049929056698  0.7052549785862091  0.475353183154273  1.0000
  H   H704      1.0  0.9721465918994981  0.7239973815096139  0.4735899321275504  1.0000
  H   H705      1.0  0.9563354023418433  0.7054258329658276  0.5095027497952169  1.0000
  H   H706      1.0  0.028650625025414822  0.7354037720546356  0.5043256706909037  1.0000
  H   H707      1.0  0.03103754647591872  0.6516187363557125  0.5295686531298412  1.0000
  H   H708      1.0  0.10326013130898559  0.6813685205665267  0.5247143956520027  1.0000
  H   H709      1.0  0.1014564703610008  0.6311628996388903  0.5081917533229384  1.0000
  H   H710      1.0  0.9543449961786744  0.6359740372363822  0.4863582779421292  1.0000
  H   H711      1.0  0.024314124426232597  0.6158221914389201  0.46463380483540345  1.0000
  H   H712      1.0  0.9696644347372941  0.6549233961603332  0.4505485753234113  1.0000
  N   N39       1.0  0.03150757484511109  0.8576377522888871  0.9806856286543355  1.0000
  C   C537      1.0  0.9927832304309285  0.8605088153660349  0.008748258746470979  1.0000
  C   C538      1.0  0.9917034007543947  0.8763436300400046  0.9565989339815839  1.0000
  C   C539      1.0  0.04615229890307644  0.8149000358235081  0.9717893807597959  1.0000
  C   C540      1.0  0.09533808916836135  0.8786355451873874  0.9856035280087062  1.0000
  H   H713      1.0  0.9766599155496679  0.8921820130773142  0.01505854811685049  1.0000
  H   H714      1.0  0.02342040619501312  0.8491491461473785  0.027798938899271156  1.0000
  H   H715      1.0  0.9466222749021781  0.8425366299669024  0.006530452806166882  1.0000
  H   H716      1.0  0.9784166884919565  0.9084861550853933  0.9625693081883939  1.0000
  H   H717      1.0  0.01966377285419037  0.8747209083566181  0.9351605608831226  1.0000
  H   H718      1.0  0.943739639490213  0.8607895741640876  0.9521491008764464  1.0000
  H   H719      1.0  0.07523054333358924  0.8113069444466321  0.9506434487131724  1.0000
  H   H720      1.0  0.9990026592034359  0.7983740655113886  0.9679402977681544  1.0000
  H   H721      1.0  0.07484923608462316  0.799662720805381  0.9896118569029122  1.0000
  H   H722      1.0  0.12735964030154373  0.8755475049174732  0.9653321550187922  1.0000
  H   H723      1.0  0.12535979075813378  0.8662713271897329  0.004451293956898085  1.0000
  H   H724      1.0  0.08549072634024638  0.9111961951963661  0.9914875498322149  1.0000
  N   N40       1.0  0.46117238501030844  0.9509625478089117  0.7881494591259104  1.0000
  C   C541      1.0  0.4439155303969615  0.9934931904999238  0.7970209453882326  1.0000
  C   C542      1.0  0.4492365577053233  0.9257841522009276  0.8135184724781801  1.0000
  C   C543      1.0  0.5330795923848727  0.9466911499576387  0.7797562991947264  1.0000
  C   C544      1.0  0.41854131753135004  0.9378529364115494  0.7622562187526138  1.0000
  H   H725      1.0  0.4536324345092348  0.013492587263105982  0.7786312437044298  1.0000
  H   H726      1.0  0.4747069685503145  0.004208583205011607  0.8167773273917421  1.0000
  H   H727      1.0  0.3898509610347325  0.9979142500395529  0.8032575074964688  1.0000
  H   H728      1.0  0.39587299600644954  0.9293062797169698  0.8210404793001934  1.0000
  H   H729      1.0  0.4593730052319086  0.8933128439129328  0.8072096637256811  1.0000
  H   H730      1.0  0.4822990944669943  0.9341042486482011  0.8331029345441017  1.0000
  H   H731      1.0  0.5483816991842307  0.9147506543642355  0.7738279938158389  1.0000
  H   H732      1.0  0.5666438488253638  0.9579717616954694  0.7983274098835674  1.0000
  H   H733      1.0  0.5433590767355878  0.9640648969140305  0.7599137581057009  1.0000
  H   H734      1.0  0.42531340114735044  0.9568448323865035  0.7429803858670009  1.0000
  H   H735      1.0  0.36404098033283055  0.9393843003805147  0.7679992377512987  1.0000
  H   H736      1.0  0.43165492729898786  0.9061424293289885  0.7544958344555159  1.0000
  N   N41       1.0  0.8639263000803942  0.4130744835101618  0.11999266466404998  1.0000
  C   C545      1.0  0.8558383527144714  0.4429707436984242  0.09692860102319838  1.0000
  C   C546      1.0  0.81832897008704  0.42465359183583395  0.14509700706622067  1.0000
  C   C547      1.0  0.934724642767275  0.41165833523206785  0.13109165491836  1.0000
  C   C548      1.0  0.8465673064675808  0.37309292031677715  0.10685107758461329  1.0000
  H   H737      1.0  0.8722435717678899  0.47308621857181604  0.10553349234730018  1.0000
  H   H738      1.0  0.8022175300550287  0.44656639815055826  0.08926613905884488  1.0000
  H   H739      1.0  0.8863944913734647  0.43412583965873264  0.07692386651849491  1.0000
  H   H740      1.0  0.830853127554004  0.4544793266095634  0.15556600894404848  1.0000
  H   H741      1.0  0.7645552059550519  0.4269955755542442  0.13737513373352694  1.0000
  H   H742      1.0  0.8218440429654899  0.40250636429261244  0.16279114728923988  1.0000
  H   H743      1.0  0.9422041683931394  0.3903295247439299  0.14918188678323027  1.0000
  H   H744      1.0  0.9501891383832975  0.4417263510822718  0.14032095120504232  1.0000
  H   H745      1.0  0.9703449556040933  0.40204910727294874  0.11281722727995873  1.0000
  H   H746      1.0  0.8805683109971125  0.36319434884311724  0.08803059169183439  1.0000
  H   H747      1.0  0.7937958744917915  0.37356045849500413  0.09785127679766913  1.0000
  H   H748      1.0  0.8504064068483456  0.34996943758051213  0.12384436569871694  1.0000
  N   N42       1.0  0.4091677997424936  0.723067396241637  0.9377521719180237  1.0000
  C   C549      1.0  0.4010724938629506  0.7540749782722727  0.9154779279050228  1.0000
  C   C550      1.0  0.4706551195169121  0.6977329669760508  0.9310226344555999  1.0000
  C   C551      1.0  0.34956232908408663  0.697699899109099  0.9362965859875046  1.0000
  C   C552      1.0  0.41551649252450634  0.7426764740397749  0.9681423711277389  1.0000
  H   H749      1.0  0.39486277159306715  0.7402671613423716  0.8923409411841691  1.0000
  H   H750      1.0  0.44580074640833983  0.7732281637292384  0.9154658169823419  1.0000
  H   H751      1.0  0.3559187852326705  0.7742717446725902  0.9200129749939626  1.0000
  H   H752      1.0  0.5164691930267937  0.715997690156723  0.9315550784627323  1.0000
  H   H753      1.0  0.47912327242289854  0.6742990937697775  0.9475837315913196  1.0000
  H   H754      1.0  0.4674098903952141  0.682290487118093  0.9083305133642003  1.0000
  H   H755      1.0  0.3427239298131203  0.6828259379244932  0.9135817325049066  1.0000
  H   H756      1.0  0.3022388460089662  0.7156408337535662  0.9415145185819691  1.0000
  H   H757      1.0  0.35425518655921695  0.6734940771685105  0.9524433728513347  1.0000
  H   H758      1.0  0.3702948540280032  0.7624360564311995  0.9738492962379867  1.0000
  H   H759      1.0  0.4609589936413026  0.7613177008645767  0.970189603229055  1.0000
  H   H760      1.0  0.42088425397794715  0.7200589047047691  0.9855080662820138  1.0000
  N   N43       1.0  0.5661961329834364  0.5402931510463155  0.7192851637340649  1.0000
  C   C553      1.0  0.6048294396748047  0.5018594443508618  0.7224998155600493  1.0000
  C   C554      1.0  0.5356776866722628  0.5536267627064525  0.7483401288000853  1.0000
  C   C555      1.0  0.512220766297339  0.5345922433880644  0.6963870587469507  1.0000
  C   C556      1.0  0.6120412366826796  0.5709727589830251  0.7098857040873467  1.0000
  H   H761      1.0  0.5717096772310105  0.4779259445026112  0.7293860915289917  1.0000
  H   H762      1.0  0.6456722300612632  0.5050928362844199  0.7398222638009296  1.0000
  H   H763      1.0  0.6288983422766666  0.49082243723050584  0.7010939330508572  1.0000
  H   H764      1.0  0.5054326197273357  0.5823026523234228  0.746774593968242  1.0000
  H   H765      1.0  0.5014883978517293  0.5308691159128672  0.7562474362759479  1.0000
  H   H766      1.0  0.5752255238313474  0.5585493630298681  0.7660981537324362  1.0000
  H   H767      1.0  0.47628916656793996  0.5120133767270909  0.7028606778061399  1.0000
  H   H768      1.0  0.533178958253859  0.523876461988821  0.6742674872840447  1.0000
  H   H769      1.0  0.4820977116103081  0.5629680258975693  0.6931794354096393  1.0000
  H   H770      1.0  0.5845296170292859  0.6002575278744339  0.7067842931403638  1.0000
  H   H771      1.0  0.6371199303872218  0.5614323011224327  0.6883703717765806  1.0000
  H   H772      1.0  0.652632228966929  0.5767152895136501  0.726921163749998  1.0000
  N   N44       1.0  0.9629537664316647  0.3049615556524721  0.2497357784710389  1.0000
  C   C557      1.0  0.976762520483094  0.2649789107544736  0.23459661200220963  1.0000
  C   C558      1.0  0.8953188480759574  0.32030755396607485  0.24030971928337827  1.0000
  C   C559      1.0  0.014291633714664131  0.33308964354937964  0.24144664772045907  1.0000
  C   C560      1.0  0.9650495914973686  0.3014461981381004  0.28255686787555756  1.0000
  H   H773      1.0  0.02548535413383335  0.2512252387334311  0.24220174974270142  1.0000
  H   H774      1.0  0.9796380306132709  0.2666366475287087  0.20985879483173128  1.0000
  H   H775      1.0  0.9366913844057286  0.24382580397594142  0.23919724989769117  1.0000
  H   H776      1.0  0.8926677335162736  0.3243977940912904  0.21579477254732277  1.0000
  H   H777      1.0  0.8556811280389303  0.29903751318306165  0.24528361186411363  1.0000
  H   H778      1.0  0.8815334467592245  0.34972108452628525  0.25219932578947074  1.0000
  H   H779      1.0  0.003308626539714865  0.3637473587297568  0.25176685364574014  1.0000
  H   H780      1.0  0.016037765203140264  0.3354168176079739  0.21676178919492567  1.0000
  H   H781      1.0  0.0656362507597712  0.3233242759509747  0.24918348366533088  1.0000
  H   H782      1.0  0.9519753071329066  0.33072975965028817  0.29477529778563344  1.0000
  H   H783      1.0  0.01608064462956782  0.29116293630271745  0.29058040807974417  1.0000
  H   H784      1.0  0.9283622406986234  0.2795577065524744  0.2894992657955492  1.0000
  N   N45       1.0  0.09532025396467222  0.9373992294374556  0.2262765578021455  1.0000
  C   C561      1.0  0.1653199849603215  0.9255648784818815  0.23486125693076074  1.0000
  C   C562      1.0  0.0506405581609202  0.9040356154821592  0.23115031747886805  1.0000
  C   C563      1.0  0.092973268616315  0.9463931571861189  0.19430900061918016  1.0000
  C   C564      1.0  0.07263324383139069  0.9735051962033306  0.24469359719214126  1.0000
  H   H785      1.0  0.1832392207613649  0.8983056654362147  0.22144044174033614  1.0000
  H   H786      1.0  0.16979799619253025  0.9190870974735137  0.2589718377805048  1.0000
  H   H787      1.0  0.20096602467631172  0.9494972783355411  0.23085041408597193  1.0000
  H   H788      1.0  0.05161181964293952  0.8965450543923968  0.2550816754306648  1.0000
  H   H789      1.0  0.9971770973278347  0.9119983838563324  0.22505266444121735  1.0000
  H   H790      1.0  0.06646539299005709  0.8763139040854728  0.21757384649005748  1.0000
  H   H791      1.0  0.1273091498359418  0.9709302817241011  0.18999531276746903  1.0000
  H   H792      1.0  0.041127090851882445  0.9561939853755341  0.1870680381851506  1.0000
  H   H793      1.0  0.10953469611117947  0.9197851623628975  0.17965947868975538  1.0000
  H   H794      1.0  0.07400144515159573  0.9679168260157874  0.26900892464627013  1.0000
  H   H795      1.0  0.02007791454153518  0.98337333337692  0.2386032514270226  1.0000
  H   H796      1.0  0.10513435349174768  0.9992263603813768  0.2415376959221166  1.0000
  N   N46       1.0  0.36488974017071585  0.6995982102276199  0.20051284885363901  1.0000
  C   C565      1.0  0.29895586598188584  0.6943072631117669  0.18505497495252451  1.0000
  C   C566      1.0  0.37129632696357184  0.6724844632177885  0.22550450392395271  1.0000
  C   C567      1.0  0.36936221236497047  0.7417052866174759  0.21245467299039952  1.0000
  C   C568      1.0  0.41998834200639656  0.6899756001869657  0.17903063329086263  1.0000
  H   H797      1.0  0.29267548755260653  0.7141588611544376  0.16596603603001325  1.0000
  H   H798      1.0  0.2560059702431392  0.7017320946826943  0.20044715116280862  1.0000
  H   H799      1.0  0.2936358190576862  0.6628393299604252  0.17582408010242168  1.0000
  H   H800      1.0  0.4201337730962722  0.6761348000012022  0.23792950934871  1.0000
  H   H801      1.0  0.3298720419103225  0.6787016563642474  0.24192408216420846  1.0000
  H   H802      1.0  0.3684320977402389  0.6404401520491773  0.21729830333237687  1.0000
  H   H803      1.0  0.3290416858771228  0.7499339056193297  0.22900277795053114  1.0000
  H   H804      1.0  0.3639203298094875  0.7630929789414942  0.19428891345371516  1.0000
  H   H805      1.0  0.4188370086728339  0.7469014238170287  0.2239078901195675  1.0000
  H   H806      1.0  0.4705745038018856  0.6934550776695853  0.18993945080234947  1.0000
  H   H807      1.0  0.41688842028512796  0.710179229088031  0.1600143941968456  1.0000
  H   H808      1.0  0.41769688743046807  0.658609603278112  0.1691836153805074  1.0000
  N   N47       1.0  0.4537175781118225  0.9845942147677036  0.2616416726081106  1.0000
  C   C569      1.0  0.5016641075585806  0.9934316010780141  0.2381671089397672  1.0000
  C   C570      1.0  0.49084017992200246  0.9662601950475027  0.28670825178378423  1.0000
  C   C571      1.0  0.4039008086703951  0.9562680906109466  0.24888470130313908  1.0000
  C   C572      1.0  0.4184455359637603  0.02231280847673307  0.2728301164868647  1.0000
  H   H809      1.0  0.5384776819337844  0.015789072503855736  0.24661481575382432  1.0000
  H   H810      1.0  0.4750753646717859  0.005681087329593325  0.21837460661858207  1.0000
  H   H811      1.0  0.5313897076674797  0.9659713917671457  0.2302412338378316  1.0000
  H   H812      1.0  0.45580370434256207  0.9594613280296358  0.30477753353002995  1.0000
  H   H813      1.0  0.5184449980979491  0.9378582145509559  0.2790340714252537  1.0000
  H   H814      1.0  0.528652661220849  0.986920186401587  0.29699234124048374  1.0000
  H   H815      1.0  0.3661121124099861  0.9496215786590292  0.265836364445854  1.0000
  H   H816      1.0  0.42882360069793873  0.9271034574136526  0.24087283675195295  1.0000
  H   H817      1.0  0.37570409741980837  0.968608020428172  0.22948304515466908  1.0000
  H   H818      1.0  0.38084982497652686  0.01660161650681439  0.2901768161522784  1.0000
  H   H819      1.0  0.3912373254765184  0.037499062030040095  0.2544324818440558  1.0000
  H   H820      1.0  0.454613435105827  0.04378419171609207  0.2835056218368975  1.0000
  N   N48       1.0  0.5949970808012788  0.2228787099126327  0.8856923212104069  1.0000
  C   C573      1.0  0.5577381592251388  0.18546148909313553  0.8865454431926533  1.0000
  C   C574      1.0  0.6422899428893244  0.2192670543781008  0.8603517503576175  1.0000
  C   C575      1.0  0.6332896933375127  0.22957536093473432  0.9141232915456786  1.0000
  C   C576      1.0  0.546609745319468  0.25712765693830186  0.881684231014455  1.0000
  H   H821      1.0  0.5204997047603901  0.187289563142445  0.904964761883748  1.0000
  H   H822      1.0  0.5927277674060405  0.15923009620729303  0.8900940859239425  1.0000
  H   H823      1.0  0.5294406851574005  0.17890074996930527  0.8652141993658531  1.0000
  H   H824      1.0  0.6693764808676517  0.24748557317545716  0.8582606988369544  1.0000
  H   H825      1.0  0.6812752862583921  0.194780551944594  0.8632835100821578  1.0000
  H   H826      1.0  0.6153973536669077  0.21240739840181613  0.8386633107970723  1.0000
  H   H827      1.0  0.6716622100555756  0.20478417190470247  0.9173767496038582  1.0000
  H   H828      1.0  0.5994125359816531  0.23128462236414643  0.9338361640992302  1.0000
  H   H829      1.0  0.6606709086421929  0.2580867173342834  0.9146303548157783  1.0000
  H   H830      1.0  0.5728474833298228  0.285998367096142  0.8818133365836947  1.0000
  H   H831      1.0  0.5087383080005301  0.2599475734707406  0.8998483523400949  1.0000
  H   H832      1.0  0.5183883735218426  0.25345619482313225  0.8600401924188847  1.0000
  N   N49       1.0  0.602322860551258  0.17901549720597826  0.14441326821160888  1.0000
  C   C577      1.0  0.6645800285149779  0.18513481353198047  0.16255982965582821  1.0000
  C   C578      1.0  0.5567904952227557  0.2150941167555258  0.14817429248684735  1.0000
  C   C579      1.0  0.567867977665473  0.14391148809018914  0.15462459072903936  1.0000
  C   C580      1.0  0.6197077662095655  0.17203362866597793  0.11244051579791693  1.0000
  H   H833      1.0  0.700557002244764  0.15871809414192287  0.16012232996686482  1.0000
  H   H834      1.0  0.6531443035146286  0.18990127546989655  0.18685343723324466  1.0000
  H   H835      1.0  0.6914290884900915  0.21177712414139047  0.15586757351345673  1.0000
  H   H836      1.0  0.5086604878024458  0.21113884914211536  0.13542753066141902  1.0000
  H   H837      1.0  0.5431427751682805  0.22137750182777866  0.17206981237912894  1.0000
  H   H838      1.0  0.5806160362885889  0.24216927804378996  0.14026854831667698  1.0000
  H   H839      1.0  0.6007596842781471  0.11613446699461005  0.15209150149159198  1.0000
  H   H840      1.0  0.5202674134661897  0.13870199125228366  0.14162726384158564  1.0000
  H   H841      1.0  0.554536675555161  0.14830071653518673  0.17874769720678735  1.0000
  H   H842      1.0  0.6532849424366133  0.14471567340352615  0.10863075525587103  1.0000
  H   H843      1.0  0.6464603807355661  0.1978495127064145  0.10414976425259635  1.0000
  H   H844      1.0  0.5737095301617564  0.16779770256680587  0.09810746011003516  1.0000
  N   N50       1.0  0.9545836993954906  0.1346027482236063  0.4662722262837156  1.0000
  C   C581      1.0  0.9966106203154318  0.16978479411444738  0.47301114992187426  1.0000
  C   C582      1.0  0.9958190185808031  0.10176914143496651  0.4511388227376698  1.0000
  C   C583      1.0  0.8971599107102379  0.14616676674112947  0.446623478493433  1.0000
  C   C584      1.0  0.928282184507554  0.12073569907696922  0.49442575696751834  1.0000
  H   H845      1.0  0.9674416164072149  0.19468922996881804  0.4852269283888367  1.0000
  H   H846      1.0  0.015797744902012356  0.18180951723954322  0.4521688526129663  1.0000
  H   H847      1.0  0.041521491957769774  0.16202217648675896  0.48712794881416893  1.0000
  H   H848      1.0  0.017077872762304658  0.11138348387429456  0.4299165800974165  1.0000
  H   H849      1.0  0.039412742600631656  0.09236260672046034  0.46552934878622027  1.0000
  H   H850      1.0  0.96560298570265  0.0747774133588878  0.4457589308735627  1.0000
  H   H851      1.0  0.8638189305160849  0.16998691523391682  0.4578688300097545  1.0000
  H   H852      1.0  0.8650990409505181  0.12022013550416805  0.4405172328068606  1.0000
  H   H853      1.0  0.9145686139504905  0.1581555256828395  0.42549541928105117  1.0000
  H   H854      1.0  0.896696411925019  0.09397356019135651  0.4903387134271652  1.0000
  H   H855      1.0  0.8957303482870139  0.14468209709895508  0.505904116163474  1.0000
  H   H856      1.0  0.9698570025250189  0.11230585668745799  0.5101964996979174  1.0000
  N   N51       1.0  0.6276802816713147  0.18218829584141114  0.6292714518590887  1.0000
  C   C585      1.0  0.5693113786563001  0.18115200889492986  0.649355800145594  1.0000
  C   C586      1.0  0.6271669020318695  0.22131858460644885  0.615351662044964  1.0000
  C   C587      1.0  0.6232194699706528  0.14962067594083733  0.6055253770369651  1.0000
  C   C588      1.0  0.6910582865417254  0.17672296109353455  0.6468107569749365  1.0000
  H   H857      1.0  0.5690360618293128  0.1523653172162861  0.6607748887564704  1.0000
  H   H858      1.0  0.5204688402855248  0.18466557442654863  0.6369354694788586  1.0000
  H   H859      1.0  0.5704639326240406  0.20567599300646588  0.6672753773674337  1.0000
  H   H860      1.0  0.5799853152128847  0.22666355350906403  0.6021156607234606  1.0000
  H   H861      1.0  0.6310001390479137  0.24666322176245348  0.6325143659568342  1.0000
  H   H862      1.0  0.6703616341842638  0.22287937111225525  0.59990849763497  1.0000
  H   H863      1.0  0.6665953563250977  0.1494324157895547  0.589976511257657  1.0000
  H   H864      1.0  0.5762331039321813  0.1531024998937131  0.5917432452074648  1.0000
  H   H865      1.0  0.6232143331008501  0.11962023613262451  0.6151445225687311  1.0000
  H   H866      1.0  0.7362293058762226  0.1771199250474655  0.632388787252303  1.0000
  H   H867      1.0  0.6930225423924936  0.14770425720620156  0.6579781307483102  1.0000
  H   H868      1.0  0.6961987669257826  0.20109821917608087  0.6647120761816641  1.0000
  N   N52       1.0  0.4573605644857651  0.3966573630069078  0.3087497167234166  1.0000
  C   C589      1.0  0.43642278545757435  0.3782982512351164  0.27934901394934586  1.0000
  C   C590      1.0  0.5191845096810043  0.41918331647114393  0.3050881388516433  1.0000
  C   C591      1.0  0.47091449051590833  0.3647441956933866  0.3299161424233576  1.0000
  C   C592      1.0  0.4028134875022157  0.4244453188175712  0.3205600252792238  1.0000
  H   H869      1.0  0.47722966342410167  0.3581427895719693  0.26944249589465735  1.0000
  H   H870      1.0  0.42373938612752166  0.4015583731194116  0.2630799967970563  1.0000
  H   H871      1.0  0.3915488839480739  0.35982835545843467  0.28120182551870776  1.0000
  H   H872      1.0  0.5104253615172993  0.443260042072363  0.2890689106060944  1.0000
  H   H873      1.0  0.5361815294266332  0.4340494492424034  0.3266353792750585  1.0000
  H   H874      1.0  0.5615127878021592  0.3991757427013685  0.2962560302704804  1.0000
  H   H875      1.0  0.48723689991342795  0.3775533213619421  0.3523213664525842  1.0000
  H   H876      1.0  0.5112963272003268  0.3429089628545942  0.3216090048997895  1.0000
  H   H877      1.0  0.4246791425688589  0.34761051419221967  0.3332338940229522  1.0000
  H   H878      1.0  0.3548259011354761  0.4088384597234889  0.3228295377143701  1.0000
  H   H879      1.0  0.3925542229182507  0.44968900126817374  0.3057101247274587  1.0000
  H   H880      1.0  0.4162277654235384  0.4378611628316977  0.34314795630317385  1.0000
  N   N53       1.0  0.06743503991411509  0.5880887664031886  0.3254264846315752  1.0000
  C   C593      1.0  0.09988406587105428  0.5535576950873505  0.3081687357442552  1.0000
  C   C594      1.0  0.11780540813828896  0.6075750503946031  0.3456214462681479  1.0000
  C   C595      1.0  0.01226410069367387  0.5737864790105401  0.3433750872210665  1.0000
  C   C596      1.0  0.039789036666094034  0.6176052380533003  0.3045612371157011  1.0000
  H   H881      1.0  0.06303079029360446  0.5383885607188428  0.29264376486907295  1.0000
  H   H882      1.0  0.12117097548369062  0.5306089862449967  0.32322391003850454  1.0000
  H   H883      1.0  0.14199928611351828  0.5632213414509726  0.2944039267492514  1.0000
  H   H884      1.0  0.15921400022893628  0.6196273178488467  0.33269244491721334  1.0000
  H   H885      1.0  0.09473324879724437  0.6334305938395561  0.35927402011689313  1.0000
  H   H886      1.0  0.14072921079081518  0.5862281299070842  0.36151230338956286  1.0000
  H   H887      1.0  0.9714628317162006  0.5608148236179203  0.3288386778092863  1.0000
  H   H888      1.0  0.9889925431592802  0.598720583223059  0.35777778299210633  1.0000
  H   H889      1.0  0.030913768452139008  0.5501101951985299  0.35837742012132207  1.0000
  H   H890      1.0  0.01740697119242205  0.6447443154780572  0.31692188495181467  1.0000
  H   H891      1.0  0.9998854149467897  0.6045609918609767  0.2895796794444559  1.0000
  H   H892      1.0  0.08003991061827052  0.6277478960709075  0.2899716447558084  1.0000
  N   N54       1.0  0.004429552160571255  0.748866494083712  0.09916486092489624  1.0000
  C   C597      1.0  0.9612623608748486  0.7139089277964118  0.10068245805828865  1.0000
  C   C598      1.0  0.01937357829828661  0.7654128259865262  0.12985707944434083  1.0000
  C   C599      1.0  0.9687277729098228  0.7800469682759528  0.08201100934656912  1.0000
  C   C600      1.0  0.06839679979771139  0.7361690401913895  0.08419140277630183  1.0000
  H   H893      1.0  0.9861081344843959  0.6902760061658427  0.11405107920648815  1.0000
  H   H894      1.0  0.9500341648091659  0.6998431137483548  0.07803433753690017  1.0000
  H   H895      1.0  0.9121397554822315  0.7225968406226567  0.11144169032457946  1.0000
  H   H896      1.0  0.9722065280485156  0.775421831669966  0.14181551236706907  1.0000
  H   H897      1.0  0.04625523738999544  0.7425636025090769  0.14343485689027127  1.0000
  H   H898      1.0  0.052712965218021074  0.7915058206229485  0.12967279022874095  1.0000
  H   H899      1.0  0.0001636888509564957  0.8067082257690854  0.08024422083915848  1.0000
  H   H900      1.0  0.9207981889584186  0.7907587289243766  0.09303175025626319  1.0000
  H   H901      1.0  0.955515784987598  0.7682691131201997  0.058944772490042485  1.0000
  H   H902      1.0  0.10067610101549782  0.7620810072085727  0.08117882029392907  1.0000
  H   H903      1.0  0.059477793976294796  0.7209668184921295  0.06179735548101802  1.0000
  H   H904      1.0  0.09869802220262341  0.7146395520056719  0.09748907973964265  1.0000
  N   N55       1.0  0.9213033715655096  0.23177831087960488  0.08191245077183244  1.0000
  C   C601      1.0  0.8715593232294357  0.26420158854351816  0.07497991809840816  1.0000
  C   C602      1.0  0.9775013517900482  0.24890752010946793  0.09995510452773947  1.0000
  C   C603      1.0  0.9477358418056797  0.2124965423086562  0.05371511338488966  1.0000
  C   C604      1.0  0.8881492519230543  0.20149390089012256  0.09882500885295879  1.0000
  H   H905      1.0  0.8942861091877226  0.28691254773918295  0.0613320751594439  1.0000
  H   H906      1.0  0.8513899676871927  0.2797064597896494  0.09580708386510706  1.0000
  H   H907      1.0  0.8281530166567382  0.25204635463727226  0.06166485263041781  1.0000
  H   H908      1.0  0.002200452894812222  0.2725701783402339  0.08801514434432271  1.0000
  H   H909      1.0  0.9596144282746616  0.2627801488723269  0.12173286711370325  1.0000
  H   H910      1.0  0.01737396898821262  0.22536936438521923  0.10465924518861187  1.0000
  H   H911      1.0  0.906605051559331  0.19819425752024325  0.040129527712274425  1.0000
  H   H912      1.0  0.987781015596851  0.189062882189977  0.05820508581537445  1.0000
  H   H913      1.0  0.9704749487660979  0.23485308008777758  0.039740168431869054  1.0000
  H   H914      1.0  0.9241015582561019  0.176110509032539  0.10388013766288208  1.0000
  H   H915      1.0  0.8451521798805034  0.1883932682010624  0.0857817925305827  1.0000
  H   H916      1.0  0.8678575261445849  0.2147513361696439  0.12043602912331929  1.0000
  N   N56       1.0  0.8330525540319865  0.932433681805832  0.6233275124095402  1.0000
  C   C605      1.0  0.8453557541863228  0.9006304986547773  0.5993973560371385  1.0000
  C   C606      1.0  0.8347587873528245  0.972180261192796  0.6104682075883116  1.0000
  C   C607      1.0  0.8860667359169242  0.9291705026944629  0.6468534100385012  1.0000
  C   C608      1.0  0.7661422427351292  0.9277257421629637  0.6365662227266611  1.0000
  H   H917      1.0  0.8943552768871046  0.9042241076601718  0.5882244100668192  1.0000
  H   H918      1.0  0.8048910065273038  0.9012213324877952  0.5817580057841205  1.0000
  H   H919      1.0  0.8470708145843371  0.8703223281700799  0.6085183970542689  1.0000
  H   H920      1.0  0.824388982280947  0.9969279542625314  0.6277002144521837  1.0000
  H   H921      1.0  0.8849821385233779  0.9770972936710265  0.6009243046734958  1.0000
  H   H922      1.0  0.796356675392764  0.9752838658141814  0.5921738053337849  1.0000
  H   H923      1.0  0.8786025250288282  0.9528764053367041  0.6651849140443963  1.0000
  H   H924      1.0  0.937308024697927  0.9323065390998544  0.6375983345290657  1.0000
  H   H925      1.0  0.8853632002688689  0.8997217960244877  0.6573500558787123  1.0000
  H   H926      1.0  0.7631384762517531  0.8980277613643919  0.6464542059325092  1.0000
  H   H927      1.0  0.7246779457293554  0.930361962592746  0.6195492252216475  1.0000
  H   H928      1.0  0.75537753681609  0.9511470115235913  0.6548054565487973  1.0000
  N   N57       1.0  0.1151483301503257  0.47784709456167396  0.4657193151158615  1.0000
  C   C609      1.0  0.1887460144084666  0.4824916314472768  0.4696717983166003  1.0000
  C   C610      1.0  0.07790553118144995  0.5136004968877721  0.4790901765468934  1.0000
  C   C611      1.0  0.0952625879105391  0.44158882345721384  0.48032199468816145  1.0000
  C   C612      1.0  0.09835983849362136  0.4736212841730967  0.43347695627498434  1.0000
  H   H929      1.0  0.21810090334248317  0.4560402184012597  0.45954205282280725  1.0000
  H   H930      1.0  0.20378343528054246  0.4852662678173709  0.4937358669656363  1.0000
  H   H931      1.0  0.20554559340404202  0.5095902088844974  0.4589768363966462  1.0000
  H   H932      1.0  0.09423650346896092  0.5416871210896977  0.46960421893783083  1.0000
  H   H933      1.0  0.022354434422050245  0.5115648338845121  0.4751957409399454  1.0000
  H   H934      1.0  0.0861343713710118  0.5166073260356089  0.5036825561392427  1.0000
  H   H935      1.0  0.12110241540945467  0.41396940022748585  0.4702881246148399  1.0000
  H   H936      1.0  0.040006095269662686  0.4372813301227618  0.47797376892847354  1.0000
  H   H937      1.0  0.1086389255932873  0.4432509806120671  0.5046237181351906  1.0000
  H   H938      1.0  0.11141990542590945  0.5006841006757106  0.4216867386541995  1.0000
  H   H939      1.0  0.04349212793297192  0.4688190800525199  0.42962004035021495  1.0000
  H   H940      1.0  0.12658503816556455  0.44754712426171783  0.422507296134429  1.0000
  N   N58       1.0  0.13425966201530803  0.9605702227303149  0.4625817031414885  1.0000
  C   C613      1.0  0.13406866870231443  0.9196400724907369  0.47358646799117565  1.0000
  C   C614      1.0  0.12931731487578813  0.9904299910170173  0.4883151750584491  1.0000
  C   C615      1.0  0.0759884871042207  0.9665715345703007  0.4419681803423508  1.0000
  C   C616      1.0  0.1976988700715076  0.9655402030756385  0.44646843397950503  1.0000
  H   H941      1.0  0.1393831853468233  0.8962244878132167  0.4548963084165751  1.0000
  H   H942      1.0  0.08633890671606162  0.9144660741887451  0.4852399643059079  1.0000
  H   H943      1.0  0.1762892183562727  0.9144935915648251  0.4898272294206887  1.0000
  H   H944      1.0  0.17279451080537175  0.9868622231550201  0.5042425438812554  1.0000
  H   H945      1.0  0.12909042195987538  0.021693642918849232  0.48088860425928553  1.0000
  H   H946      1.0  0.08230235352007893  0.987248884033487  0.5011489250731507  1.0000
  H   H947      1.0  0.07507401180961913  0.9969102496402078  0.43280317757396475  1.0000
  H   H948      1.0  0.0271659319796679  0.9633464638149635  0.4534062611567444  1.0000
  H   H949      1.0  0.07774763127493725  0.944202006642635  0.4224696484486571  1.0000
  H   H950      1.0  0.20268004166971224  0.9436761635252946  0.4267602567690757  1.0000
  H   H951      1.0  0.2428749080780521  0.9606109770531417  0.46118225146066794  1.0000
  H   H952      1.0  0.19986660822726315  0.9962067729227095  0.43802685966650706  1.0000
  N   N59       1.0  0.679894696892869  0.6929966529597872  0.596785101236445  1.0000
  C   C617      1.0  0.6971753408420348  0.6862225134320126  0.6284511563652561  1.0000
  C   C618      1.0  0.6448361610985847  0.6579768337248758  0.5832565386539244  1.0000
  C   C619      1.0  0.7423110340710682  0.6982266025639675  0.5800305264853385  1.0000
  C   C620      1.0  0.6354111082342357  0.729529095063059  0.5952240517638137  1.0000
  H   H953      1.0  0.6510108126852119  0.6828281636923295  0.6418423636158692  1.0000
  H   H954      1.0  0.7247273176229228  0.7119032677989336  0.6391443328479497  1.0000
  H   H955      1.0  0.7303021734341659  0.658694092169546  0.6305037393822454  1.0000
  H   H956      1.0  0.5955374362176926  0.654269397640006  0.5942248549664866  1.0000
  H   H957      1.0  0.6343548170259206  0.6615702512530132  0.5590466157570271  1.0000
  H   H958      1.0  0.6761497178328064  0.6297095973072608  0.5851746337230656  1.0000
  H   H959      1.0  0.7757032093331867  0.6707717542176166  0.5796419391091383  1.0000
  H   H960      1.0  0.7719713562955131  0.7229864495325199  0.590375593228536  1.0000
  H   H961      1.0  0.7311015447688857  0.7051409114650979  0.5563252323561809  1.0000
  H   H962      1.0  0.6581568879766075  0.755811258615903  0.6073022685779834  1.0000
  H   H963      1.0  0.5852256894128292  0.7256071765921877  0.6053309730180505  1.0000
  H   H964      1.0  0.6265627989824064  0.7376888278932061  0.5716866343033731  1.0000
  N   N60       1.0  0.5489745411283578  0.5504519899890478  0.23670563783970736  1.0000
  C   C621      1.0  0.49285523521001207  0.5809502685967173  0.23565140439519128  1.0000
  C   C622      1.0  0.6091979127642485  0.5654701858106429  0.22251035464617525  1.0000
  C   C623      1.0  0.5288302205200452  0.5129810242874073  0.22030397439877009  1.0000
  C   C624      1.0  0.5649583043293671  0.5422304015204991  0.2682445739555944  1.0000
  H   H965      1.0  0.47701645481077776  0.58627609150565  0.21216451631613906  1.0000
  H   H966      1.0  0.50752172946302  0.61016597903216  0.2465584093506251  1.0000
  H   H967      1.0  0.44799046027139716  0.5713671923151563  0.24756411402317233  1.0000
  H   H968      1.0  0.5988735115738455  0.5720414860044143  0.19873076173898924  1.0000
  H   H969      1.0  0.6265966992921315  0.5935615418030458  0.2343928785157336  1.0000
  H   H970      1.0  0.6524640672245249  0.5430777827410095  0.22294789069619972  1.0000
  H   H971      1.0  0.4856372862989322  0.4994819076728638  0.23108137276578866  1.0000
  H   H972      1.0  0.5711603207318479  0.4898991417711273  0.21950602603296687  1.0000
  H   H973      1.0  0.5132933398514199  0.5183340491334842  0.19677353144803023  1.0000
  H   H974      1.0  0.6064896705573622  0.5188621564944716  0.2698323853212543  1.0000
  H   H975      1.0  0.5204439002781791  0.5313552815878043  0.27979687593302877  1.0000
  H   H976      1.0  0.5817200090346607  0.5696520883924936  0.28124406461564583  1.0000
  N   N61       1.0  0.4153990419821358  0.3693065636376922  0.5424439560936413  1.0000
  C   C625      1.0  0.37030196884169225  0.3382243275942491  0.5517164953958057  1.0000
  C   C626      1.0  0.4396780691003167  0.39265980921862037  0.5693466761142443  1.0000
  C   C627      1.0  0.3778162739472937  0.3965023410314383  0.5225050822460817  1.0000
  C   C628      1.0  0.47370316531299805  0.3498189290812614  0.5263232770413672  1.0000
  H   H977      1.0  0.3963861483607744  0.3181614121369056  0.5676868681213947  1.0000
  H   H978      1.0  0.3520355074008994  0.3192379379755596  0.5322104421191313  1.0000
  H   H979      1.0  0.32496075259322876  0.35201407975488364  0.5633156445787133  1.0000
  H   H980      1.0  0.3968613958971799  0.40708527742889833  0.5823612867312734  1.0000
  H   H981      1.0  0.468906490890173  0.3731454834759963  0.5847777286494457  1.0000
  H   H982      1.0  0.47329080673097346  0.4166800992282199  0.5632949386997372  1.0000
  H   H983      1.0  0.3575507151808914  0.37982252047068876  0.5022076390664416  1.0000
  H   H984      1.0  0.41043570757631376  0.4200866133563013  0.514740636648395  1.0000
  H   H985      1.0  0.33421518083066204  0.41234104556883566  0.5341207360693412  1.0000
  H   H986      1.0  0.5081090070891201  0.3724737550298674  0.5184699660330038  1.0000
  H   H987      1.0  0.4572499075975637  0.3310280423899304  0.5063478114151486  1.0000
  H   H988      1.0  0.504514053462498  0.33007244193701024  0.5410117358268657  1.0000
  N   N62       1.0  0.4727762870326559  0.9480333415197899  0.5252415084116788  1.0000
  C   C629      1.0  0.5075272336394178  0.9305811889382883  0.5512416511747401  1.0000
  C   C630      1.0  0.40179195356707936  0.9359157278972627  0.5238667082062309  1.0000
  C   C631      1.0  0.5072726547517574  0.9332448453895793  0.49745090662846236  1.0000
  C   C632      1.0  0.4746281714973503  0.9923235665961501  0.528434745584801  1.0000
  H   H989      1.0  0.48275970800995244  0.940716036982439  0.572552718643902  1.0000
  H   H990      1.0  0.5613804437116935  0.9389290832741255  0.5528899555737083  1.0000
  H   H991      1.0  0.5068978064755205  0.8971274484653358  0.5495667184865043  1.0000
  H   H992      1.0  0.39873803248810297  0.9026087198377247  0.5222265852349376  1.0000
  H   H993      1.0  0.37410282573322085  0.9469324675327276  0.5444008882699556  1.0000
  H   H994      1.0  0.37409381102432343  0.9482911960446865  0.5043797994639347  1.0000
  H   H995      1.0  0.5068655086437412  0.8998946153373594  0.4943576947014125  1.0000
  H   H996      1.0  0.5612971404082779  0.9414821487182903  0.4979755175371027  1.0000
  H   H997      1.0  0.48329560232909313  0.9463359514363957  0.4773553471273178  1.0000
  H   H998      1.0  0.5275834937761031  0.002411305489491422  0.5297579588375059  1.0000
  H   H999      1.0  0.44794626623043193  0.00451806966149082  0.5488513738876082  1.0000
  H   H1000     1.0  0.4496819866761896  0.006432394615510484  0.5089479135191534  1.0000
  N   N63       1.0  0.9936870818565195  0.7421639504402618  0.763122962834535  1.0000
  C   C633      1.0  0.9335407491232157  0.7200543170314284  0.7705868042113123  1.0000
  C   C634      1.0  0.9963283581777976  0.7797525836594152  0.7822611120229602  1.0000
  C   C635      1.0  0.9895443553739393  0.7521779474974645  0.7313467459013436  1.0000
  C   C636      1.0  0.0552672851273841  0.7167733154493972  0.7683618951733324  1.0000
  H   H1001     1.0  0.8859898067750746  0.7372241267973041  0.7653295160669021  1.0000
  H   H1002     1.0  0.9330020522861117  0.7141337696593972  0.7948070362257589  1.0000
  H   H1003     1.0  0.9316287807426957  0.6906987414651795  0.7575441257200171  1.0000
  H   H1004     1.0  0.9940208210576782  0.7738679569989099  0.8064155003815572  1.0000
  H   H1005     1.0  0.04346376171761168  0.7956584301083953  0.7787410742551152  1.0000
  H   H1006     1.0  0.9531787954440822  0.8008390916684847  0.7774588378046564  1.0000
  H   H1007     1.0  0.9870211988788236  0.7246639096671731  0.7161693272067922  1.0000
  H   H1008     1.0  0.03426677776901221  0.7686816523904235  0.724922556691632  1.0000
  H   H1009     1.0  0.9433382460690111  0.771244012341614  0.7268207181434261  1.0000
  H   H1010     1.0  0.10190818553784209  0.7327442893816745  0.7639805817787273  1.0000
  H   H1011     1.0  0.055982398936230915  0.6886283944796379  0.7536424958962135  1.0000
  H   H1012     1.0  0.058942813486570156  0.7081732476776896  0.7920111641896016  1.0000
  N   N64       1.0  0.32013465803629054  0.21103517035244823  0.47016944860203524  1.0000
  C   C637      1.0  0.35760226349705715  0.24783313958032943  0.47756254662846803  1.0000
  C   C638      1.0  0.36823110505753104  0.17637668799386644  0.4649180725519612  1.0000
  C   C639      1.0  0.27855359270873026  0.2165307191135094  0.44280948636574  1.0000
  C   C640      1.0  0.2762073308182934  0.20334646387114683  0.4954488722390949  1.0000
  H   H1013     1.0  0.39383710687186785  0.2533999631064339  0.4596575513081956  1.0000
  H   H1014     1.0  0.387168078300526  0.24539213806688934  0.49881106212780185  1.0000
  H   H1015     1.0  0.3225293564769681  0.27475633827688256  0.48029052727164473  1.0000
  H   H1016     1.0  0.34121239718997454  0.14789051578814427  0.4607227592343015  1.0000
  H   H1017     1.0  0.40077939064417745  0.18023281901428917  0.4453370202894013  1.0000
  H   H1018     1.0  0.4022076457656037  0.1723554935885333  0.48462487264511606  1.0000
  H   H1019     1.0  0.25021464147297834  0.18923603438078215  0.4362951209305674  1.0000
  H   H1020     1.0  0.3101210370865733  0.2228913015846098  0.42336696039377775  1.0000
  H   H1021     1.0  0.24065833360771266  0.2418438105701784  0.4460991724192522  1.0000
  H   H1022     1.0  0.2416925544102252  0.22955915340638494  0.5012364834815017  1.0000
  H   H1023     1.0  0.3063007865419515  0.1968139416595888  0.5160125734233332  1.0000
  H   H1024     1.0  0.2440662741061611  0.1772844991538446  0.4899979291093215  1.0000
