data_image0
_chemical_formula_structural       FeS2FeS2FeSFeS3FeS2FeS2FeSFeS3FeS2FeS2FeSFeS3FeS2FeS2FeSFeS3FeS2FeS2FeSFeS3FeS2FeS2FeSFeS3FeS2FeS2FeSFeS3FeS2FeS2FeSFeS3C6H4C6H4C6H4C6H4C6H4C6H4C6H4C6H4C6H4C6H4C6H4C6H4C6H4C6H4C6H4C6H4FeS2FeS2FeSFeS3FeS2FeS2FeSFeS3FeS2FeS2FeSFeS3FeS2FeS2FeSFeS3FeS2FeS2FeSFeS3FeS2FeS2FeSFeS3FeS2FeS2FeSFeS3FeS2FeS2FeSFeS3C6H4C6H4C6H4C6H4C6H4C6H4C6H4C6H4C6H4C6H4C6H4C6H4C6H4C6H4C6H4C6H4NC4H12NC4H12NC4H12NC4H12NC4H12NC4H12NC4H12NC4H12NC4H12NC4H12NC4H12NC4H12NC4H12NC4H12NC4H12NC4H12NC4H12NC4H12NC4H12NC4H12NC4H12NC4H12NC4H12NC4H12NC4H12NC4H12NC4H12NC4H12NC4H12NC4H12NC4H12NC4H12
_chemical_formula_sum              "Fe64 S128 C320 H512 N32"
_cell_length_a       42.7785557552755
_cell_length_b       34.63574772858711
_cell_length_c       22.411705584766363
_cell_angle_alpha    89.90798327557305
_cell_angle_beta     89.99807022792662
_cell_angle_gamma    90.45142679935495

_space_group_name_H-M_alt    "P 1"
_space_group_IT_number       1

loop_
  _space_group_symop_operation_xyz
  'x, y, z'

loop_
  _atom_site_type_symbol
  _atom_site_label
  _atom_site_symmetry_multiplicity
  _atom_site_fract_x
  _atom_site_fract_y
  _atom_site_fract_z
  _atom_site_occupancy
  Fe  Fe1       1.0  0.3022672665769437  0.017540005399763414  0.7609406252904719  1.0000
  S   S1        1.0  0.28390777179954935  0.07185213147682235  0.8010546276684636  1.0000
  S   S2        1.0  0.34430864435458863  0.014789098888661867  0.7012357163612414  1.0000
  Fe  Fe2       1.0  0.2508389175277168  0.9685630604876108  0.8157402722954233  1.0000
  S   S3        1.0  0.22778465347656107  0.018636230563968903  0.8609801420538434  1.0000
  S   S4        1.0  0.23684999735049625  0.906561338968539  0.827410099123444  1.0000
  Fe  Fe3       1.0  0.23697274017119307  0.04911857885945259  0.7740165886664769  1.0000
  S   S5        1.0  0.2072127717485707  0.09168922944393088  0.725400575546684  1.0000
  Fe  Fe4       1.0  0.2768052942213905  0.03669788969801058  0.8838238888971519  1.0000
  S   S6        1.0  0.29221332750814977  0.061537912608800927  0.9716887650421844  1.0000
  S   S7        1.0  0.2557449912233344  0.9974701656883008  0.7266482758638009  1.0000
  S   S8        1.0  0.29922101816914176  0.9839992973353944  0.8459513072348159  1.0000
  Fe  Fe5       1.0  0.3903460300443623  0.7061836875118044  0.8848820447193048  1.0000
  S   S9        1.0  0.37892556062962873  0.7134035161158381  0.9814583931705924  1.0000
  S   S10       1.0  0.40900530600749146  0.6516373129157007  0.8460869888773652  1.0000
  Fe  Fe6       1.0  0.3737844163372247  0.7882376551615259  0.8544781253329596  1.0000
  S   S11       1.0  0.36154559855391233  0.803413234228367  0.9488036899530523  1.0000
  S   S12       1.0  0.3672326596840224  0.830135672395089  0.7797472663651764  1.0000
  Fe  Fe7       1.0  0.4043525120790067  0.7698993209548648  0.9723682873739851  1.0000
  S   S13       1.0  0.4368273625525382  0.7872980910849906  0.04631239005608845  1.0000
  Fe  Fe8       1.0  0.3372272429815451  0.7458979768608411  0.9484567749230051  1.0000
  S   S14       1.0  0.29044697675642284  0.7379794092647719  0.991978923530659  1.0000
  S   S15       1.0  0.41916994132393853  0.7601236387878586  0.877603766442559  1.0000
  S   S16       1.0  0.3462870702656651  0.7332066671118482  0.8520792982699403  1.0000
  Fe  Fe9       1.0  0.13355288865722428  0.7061130335195868  0.8880848950451605  1.0000
  S   S17       1.0  0.12825006442200768  0.7631452560880934  0.9329290863866944  1.0000
  S   S18       1.0  0.17467653487529095  0.7040415326324518  0.8261615599027982  1.0000
  Fe  Fe10      1.0  0.6059875742690286  0.7895956258691046  0.06331896661966496  1.0000
  S   S19       1.0  0.587966326767648  0.8335355362176674  0.12750943383855384  1.0000
  S   S20       1.0  0.5795368382300629  0.7809882001206649  0.9782724839256409  1.0000
  Fe  Fe11      1.0  0.6379717185742781  0.8519954291593034  0.13482965840280436  1.0000
  S   S21       1.0  0.6503658370355736  0.9146421835015405  0.1315731486158338  1.0000
  Fe  Fe12      1.0  0.5999216029461912  0.789966872407316  0.19760263694604774  1.0000
  S   S22       1.0  0.5692771087380193  0.7819267848685775  0.2781401371302237  1.0000
  S   S23       1.0  0.6552064529774536  0.8120109895931434  0.06424425440431403  1.0000
  S   S24       1.0  0.6138555397186425  0.7438973689391907  0.1325709451824164  1.0000
  Fe  Fe13      1.0  0.060567039715018194  0.08000967794317848  0.9090274241397113  1.0000
  S   S25       1.0  0.08253868719355752  0.06662807439386698  0.9974653888632545  1.0000
  S   S26       1.0  0.07828570489707626  0.1266094938970197  0.8486754583540004  1.0000
  Fe  Fe14      1.0  0.45757702175589704  0.011720087056174666  0.04187793077159241  1.0000
  S   S27       1.0  0.4560182946172482  0.037427814470705645  0.133072644489308  1.0000
  S   S28       1.0  0.41805062891339023  0.972075398247876  0.016728094290344275  1.0000
  Fe  Fe15      1.0  0.4736217866853829  0.09108680275468917  0.08815585495777745  1.0000
  S   S29       1.0  0.4508143739408217  0.14794441377149692  0.10560533844504305  1.0000
  Fe  Fe16      1.0  0.5063611988041391  0.021204604219745793  0.13774505862709496  1.0000
  S   S30       1.0  0.524529358720881  0.9891221612189457  0.21689064662824098  1.0000
  S   S31       1.0  0.4712115433681863  0.0666582691354054  0.9956971326721192  1.0000
  S   S32       1.0  0.5068057466578308  0.9907967871127494  0.04984096007365735  1.0000
  Fe  Fe17      1.0  0.30243033671587355  0.5187382704372089  0.6778975790192601  1.0000
  S   S33       1.0  0.27903706214966445  0.5426953711198025  0.5967709718456014  1.0000
  S   S34       1.0  0.2936670692953874  0.5505949264148526  0.7632835135867375  1.0000
  Fe  Fe18      1.0  0.32993287648108294  0.4514269566537901  0.6097980916417071  1.0000
  S   S35       1.0  0.3085699031222418  0.4694949662866239  0.5229615655190561  1.0000
  S   S36       1.0  0.36161701019056114  0.4006351375679896  0.6198683865364212  1.0000
  Fe  Fe19      1.0  0.32372625216096185  0.5289479182416988  0.550233509050506  1.0000
  S   S37       1.0  0.3481069591827123  0.5685765768207327  0.4862557105540366  1.0000
  Fe  Fe20      1.0  0.2661077507876939  0.481076287866605  0.5777904620942255  1.0000
  S   S38       1.0  0.2183485907390732  0.461909139637809  0.5485392046437078  1.0000
  S   S39       1.0  0.34845224471010716  0.5097459747046893  0.6328295390418459  1.0000
  S   S40       1.0  0.28589194063529466  0.4580019647623152  0.6630734166576989  1.0000
  Fe  Fe21      1.0  0.36967538443277875  0.18583069722242293  0.5028499749556788  1.0000
  S   S41       1.0  0.3598427197062622  0.13645200157474768  0.4406720015824654  1.0000
  S   S42       1.0  0.37318835470851436  0.18154284994165662  0.6023430034081443  1.0000
  Fe  Fe22      1.0  0.36517796825435467  0.2456510746075538  0.404566958917802  1.0000
  S   S43       1.0  0.35444678680381886  0.20192534752507996  0.3342269096717215  1.0000
  S   S44       1.0  0.368390904225621  0.30791911019619356  0.37998584141457636  1.0000
  Fe  Fe23      1.0  0.3230858471158756  0.17534586464482652  0.40318882997136435  1.0000
  S   S45       1.0  0.27417278090343483  0.15416863677744416  0.3873324665843762  1.0000
  Fe  Fe24      1.0  0.3923537606452049  0.16812674346866147  0.37871075696833006  1.0000
  S   S46       1.0  0.42979835505289365  0.14392899789663227  0.3204786314525755  1.0000
  S   S47       1.0  0.3303819055644225  0.2224192628389711  0.46992582384795534  1.0000
  S   S48       1.0  0.4055650864915769  0.2142088641266284  0.44407488185897354  1.0000
  Fe  Fe25      1.0  0.580969128743387  0.27114057677032616  0.22846250918631192  1.0000
  S   S49       1.0  0.11894341327231399  0.22297979049162625  0.3257976991594141  1.0000
  S   S50       1.0  0.5504583794315956  0.27987131826127987  0.14861401783110792  1.0000
  Fe  Fe26      1.0  0.6146059057490723  0.3164649849612664  0.32495158782448885  1.0000
  S   S51       1.0  0.09345650920769483  0.27881928185714927  0.43439727261020983  1.0000
  S   S52       1.0  0.6292979072685848  0.3756724521625571  0.3538254887246695  1.0000
  Fe  Fe27      1.0  0.13324265415497472  0.2786757178029343  0.3693108287810709  1.0000
  S   S53       1.0  0.1821376678551982  0.2960693091308505  0.3948766542076621  1.0000
  Fe  Fe28      1.0  0.5864878358688687  0.23793477352359563  0.35128855305798456  1.0000
  S   S54       1.0  0.5603579883922181  0.2020849287730181  0.4181717414669357  1.0000
  S   S55       1.0  0.10946177353116501  0.31605146276057045  0.3018398556001379  1.0000
  S   S56       1.0  0.5657864515987222  0.29305110980174265  0.3177208043280213  1.0000
  Fe  Fe29      1.0  0.055222160400030466  0.6404667840505944  0.3479226592938516  1.0000
  S   S57       1.0  0.5577747228915212  0.6317546695996294  0.5404962884840835  1.0000
  S   S58       1.0  0.0354591122796033  0.6892910439582085  0.2936054504173513  1.0000
  Fe  Fe30      1.0  0.5410764341470987  0.5211880582240053  0.5257878517150446  1.0000
  S   S59       1.0  0.5394135466762011  0.5514184888084094  0.6138816576385552  1.0000
  S   S60       1.0  0.5318480634423525  0.45715640855829326  0.5215591191475399  1.0000
  Fe  Fe31      1.0  0.5143561413513927  0.5980078564602694  0.5639532163235927  1.0000
  S   S61       1.0  0.47271658857518484  0.6230248715372866  0.6106637521374525  1.0000
  Fe  Fe32      1.0  0.10296484641096605  0.6042713356500368  0.43007431928920903  1.0000
  S   S62       1.0  0.14801018319645154  0.6147642881058712  0.4788418567295317  1.0000
  S   S63       1.0  0.5121614771455442  0.5649573741885552  0.4778737182659072  1.0000
  S   S64       1.0  0.10113654842363395  0.6116928654445245  0.33052424940114916  1.0000
  C   C1        1.0  0.5999378095555848  0.39749228091863553  0.3961308344288109  1.0000
  C   C2        1.0  0.5962800352711674  0.4375413703844319  0.39339153953015304  1.0000
  C   C3        1.0  0.5743456367233674  0.45572790854312967  0.4300031897683607  1.0000
  C   C4        1.0  0.5566659508345106  0.43409494865311876  0.4707147107059053  1.0000
  C   C5        1.0  0.06909210517831776  0.43339647823832333  0.26558355775068715  1.0000
  C   C6        1.0  0.05930740182116145  0.39936585299726823  0.29411996113730354  1.0000
  H   H1        1.0  0.6102310217991139  0.45450608375338525  0.3625833499377765  1.0000
  H   H2        1.0  0.5709224682320423  0.48644189970722773  0.4261689658152411  1.0000
  H   H3        1.0  0.08285791076413575  0.43193248386015887  0.22513429688832276  1.0000
  H   H4        1.0  0.06477734389286605  0.3717720045432647  0.2746930831708804  1.0000
  C   C7        1.0  0.24851099323738896  0.19350301473334927  0.38835704619961336  1.0000
  C   C8        1.0  0.21643024726420412  0.18725131312962603  0.39671927207865  1.0000
  C   C9        1.0  0.1959294839330875  0.21868649534724008  0.3989439730066423  1.0000
  C   C10       1.0  0.20743799266163654  0.25639248189369934  0.3922690014031918  1.0000
  C   C11       1.0  0.23949468364289137  0.26259460492553355  0.3837831760773138  1.0000
  C   C12       1.0  0.26000854348976404  0.23122104448178904  0.38182885714667214  1.0000
  H   H5        1.0  0.20747961380856703  0.15817240772332428  0.4021718638432285  1.0000
  H   H6        1.0  0.17131798578831267  0.21376679736976067  0.4069045240667866  1.0000
  H   H7        1.0  0.24840464252724187  0.29160774533919903  0.3773572508066622  1.0000
  H   H8        1.0  0.28463827621032606  0.23624520161236756  0.3739820194888159  1.0000
  C   C13       1.0  0.4660138061148165  0.15992530109278782  0.34780913150023346  1.0000
  C   C14       1.0  0.47259903998486125  0.15829277702330177  0.40885855199328847  1.0000
  C   C15       1.0  0.5016323493953665  0.1713140720964486  0.4303115470444508  1.0000
  C   C16       1.0  0.5237811592866618  0.18697874198579906  0.3910121093648683  1.0000
  C   C17       1.0  0.5169289089883231  0.18926712947269822  0.3300461492580483  1.0000
  C   C18       1.0  0.4882198462273041  0.17528154032006557  0.3084545169111733  1.0000
  H   H9        1.0  0.4554551762271305  0.14652141423557752  0.4395665328103225  1.0000
  H   H10       1.0  0.5067900570329614  0.16956131487597742  0.47753177146605535  1.0000
  H   H11       1.0  0.5337665118329823  0.20153414637703523  0.29941880335497817  1.0000
  H   H12       1.0  0.48289592739226106  0.17691440094893238  0.2614006637919759  1.0000
  C   C19       1.0  0.1669112997083333  0.5713257390182545  0.49509301100863967  1.0000
  C   C20       1.0  0.19926623883069622  0.5688488294272133  0.4874731972133907  1.0000
  C   C21       1.0  0.21488293605752057  0.5347193787140724  0.502051140541011  1.0000
  C   C22       1.0  0.1983070289165328  0.5032763199510211  0.5255893078889577  1.0000
  C   C23       1.0  0.16588743829408992  0.5055318197256751  0.5328184508951965  1.0000
  C   C24       1.0  0.15017313444733335  0.5395597517396494  0.5174851543908136  1.0000
  H   H13       1.0  0.21224947156424018  0.5932619017553553  0.46976825511813924  1.0000
  H   H14       1.0  0.23977485930519593  0.5327352684259719  0.49453145784886987  1.0000
  H   H15       1.0  0.15306394999915454  0.48151153400840707  0.5520098664379366  1.0000
  H   H16       1.0  0.12531268982058602  0.5417590014870638  0.5251274154100989  1.0000
  C   C25       1.0  0.4378201542796798  0.6099146130200213  0.5752053841531104  1.0000
  C   C26       1.0  0.4362884643473268  0.6069825064015154  0.5130637764105249  1.0000
  C   C27       1.0  0.4082410200325953  0.5957748539890083  0.48541967322728613  1.0000
  C   C28       1.0  0.3817602591322896  0.5875800148497466  0.5199593905119441  1.0000
  C   C29       1.0  0.3830793878357265  0.5918086934375905  0.5819612268043477  1.0000
  C   C30       1.0  0.41120977186818286  0.602281568107444  0.6096323448799641  1.0000
  H   H17       1.0  0.45662623616190734  0.613615003945915  0.48618632435022613  1.0000
  H   H18       1.0  0.40725411900979375  0.5926955060469176  0.4373913332381823  1.0000
  H   H19       1.0  0.36240360788961967  0.5869202499741012  0.608656557923677  1.0000
  H   H20       1.0  0.41240488391494257  0.6040126411382398  0.6577444897548036  1.0000
  C   C31       1.0  0.36758058243779407  0.3761359381390111  0.5526214292121681  1.0000
  C   C32       1.0  0.3637515522879717  0.3949792621013265  0.4978926290432602  1.0000
  C   C33       1.0  0.3654346296838358  0.3742231759057291  0.4445042451282832  1.0000
  C   C34       1.0  0.37081654482260223  0.3345365276746132  0.44585296776461714  1.0000
  C   C35       1.0  0.376082259064908  0.3159225198154537  0.5003446142149033  1.0000
  C   C36       1.0  0.37463657837183956  0.33680899627964883  0.5537415853038813  1.0000
  H   H21       1.0  0.35942897127006906  0.4254927237674933  0.4962695397978592  1.0000
  H   H22       1.0  0.3616753726599514  0.38872896821404035  0.4023166233771827  1.0000
  H   H23       1.0  0.38048709291000143  0.2852626995289295  0.5017404348475272  1.0000
  H   H24       1.0  0.377873646375825  0.3221271525908657  0.5959731805500301  1.0000
  C   C37       1.0  0.5233086066189724  0.24265655895310634  0.13635678990573652  1.0000
  C   C38       1.0  0.5285364212341688  0.2054199760805937  0.1581837136992208  1.0000
  C   C39       1.0  0.5064952990548383  0.17604801789582725  0.14795749543838688  1.0000
  C   C40       1.0  0.4788069356207493  0.18416340020934396  0.11743230294023843  1.0000
  C   C41       1.0  0.02906039416234707  0.15977021739856992  0.17774370038505571  1.0000
  C   C42       1.0  0.046192292548261404  0.19351568145097908  0.18913491524858084  1.0000
  H   H25       1.0  0.5496226329903726  0.19900983101382375  0.18222812573418556  1.0000
  H   H26       1.0  0.5104163185757353  0.1474389825455822  0.16540108282389498  1.0000
  H   H27       1.0  0.012632396464603126  0.1490168963013043  0.21053446649591168  1.0000
  H   H28       1.0  0.042591437720872254  0.20885478939146496  0.22989680231954912  1.0000
  C   C43       1.0  0.5672916715848498  0.6566678547762804  0.34070874688298075  1.0000
  C   C44       1.0  0.5622374014932153  0.6864277174904362  0.3816035481570026  1.0000
  C   C45       1.0  0.5617627475113756  0.7249551828829035  0.3619087877968339  1.0000
  C   C46       1.0  0.5664410801828574  0.7336499768069678  0.30146031122997874  1.0000
  C   C47       1.0  0.07568969169247451  0.7419015616354472  0.15167537811105336  1.0000
  C   C48       1.0  0.05367147965166818  0.7293656414856392  0.19407868265042702  1.0000
  H   H29       1.0  0.5593647920833034  0.6798912824650362  0.42844857200828956  1.0000
  H   H30       1.0  0.5585370255903841  0.7480563863943169  0.39370835926476255  1.0000
  H   H31       1.0  0.06800644540414025  0.7571898559098353  0.11238596711876259  1.0000
  H   H32       1.0  0.029043628292873214  0.7343498176431623  0.18664117691641313  1.0000
  C   C49       1.0  0.6176841670484076  0.9380610801561537  0.1609898332682136  1.0000
  C   C50       1.0  0.5997143455536049  0.9199456231015899  0.20529114958936034  1.0000
  C   C51       1.0  0.5716576779112869  0.9364967481729447  0.22443588455464325  1.0000
  C   C52       1.0  0.5610000619020274  0.9703483640969159  0.19757134983380253  1.0000
  C   C53       1.0  0.0786838449570687  0.9176769732856598  0.900404909298647  1.0000
  C   C54       1.0  0.06695073749829537  0.8844177647933806  0.8727365060823814  1.0000
  H   H33       1.0  0.6073229805155802  0.8929318936457904  0.22456826239503602  1.0000
  H   H34       1.0  0.5577643288651116  0.9222563868329793  0.2584348467014508  1.0000
  H   H35       1.0  0.07743392485341928  0.944974610690529  0.8775666356201665  1.0000
  H   H36       1.0  0.05638166709609215  0.886409904298354  0.828986131856272  1.0000
  C   C55       1.0  0.37743831524517624  0.6217041204564946  0.8267470523391188  1.0000
  C   C56       1.0  0.38191310076077134  0.5912533737719186  0.7869350256433442  1.0000
  C   C57       1.0  0.35631847591269056  0.5689182449631975  0.7680603327188172  1.0000
  C   C58       1.0  0.32621491300991806  0.5770210005646685  0.7887250550885195  1.0000
  C   C59       1.0  0.32191150914855055  0.6069166832545438  0.8297534647834405  1.0000
  C   C60       1.0  0.3475017000876984  0.6292426150379389  0.8487478424075021  1.0000
  H   H37       1.0  0.4050930754544354  0.5850753849032594  0.7703528484527977  1.0000
  H   H38       1.0  0.36007378053855593  0.5450214636356229  0.738531826384891  1.0000
  H   H39       1.0  0.2987827275882194  0.6129524769294028  0.8467559189518488  1.0000
  H   H40       1.0  0.3439964489937451  0.6519932278964279  0.8809243717727695  1.0000
  C   C61       1.0  0.26037650529025896  0.7247021651508989  0.9428246134395414  1.0000
  C   C62       1.0  0.23392130264154382  0.7061577210229788  0.9659520611790237  1.0000
  C   C63       1.0  0.20796678114369938  0.6991347043660531  0.9295998610010477  1.0000
  C   C64       1.0  0.2084298320008512  0.7100206053074328  0.8696031931762144  1.0000
  C   C65       1.0  0.23520900287559565  0.7276258457480745  0.8456689718771716  1.0000
  C   C66       1.0  0.26111653458658207  0.7352774192843525  0.8824758647056932  1.0000
  H   H41       1.0  0.23341062247867683  0.6973798428212433  0.012318457184367526  1.0000
  H   H42       1.0  0.1877557969199083  0.6848770647220772  0.9481537939401395  1.0000
  H   H43       1.0  0.23562832610651904  0.73641239207339  0.7993391725074249  1.0000
  H   H44       1.0  0.281147235105269  0.7504296181821691  0.8645869378600048  1.0000
  C   C67       1.0  0.4763091267548403  0.785115791817472  0.026291055042757083  1.0000
  C   C68       1.0  0.48587118179898237  0.7930268201266651  0.9678330264913143  1.0000
  C   C69       1.0  0.517665457385836  0.7914741712236719  0.9527519936670741  1.0000
  C   C70       1.0  0.5398650919251057  0.7826827665834121  0.9964331268235272  1.0000
  C   C71       1.0  0.5302718135189525  0.7750326234920357  0.05493113707042596  1.0000
  C   C72       1.0  0.49852797489312856  0.7759918988900734  0.0697256170615681  1.0000
  H   H45       1.0  0.4689291295067396  0.8012450343019926  0.934566814314061  1.0000
  H   H46       1.0  0.5251362693557927  0.7977563395278158  0.9076031010648226  1.0000
  H   H47       1.0  0.5472480126941582  0.7675063752297704  0.08865913949999271  1.0000
  H   H48       1.0  0.49125247876070977  0.7691068555238987  0.11477989011265044  1.0000
  C   C73       1.0  0.3558092746479666  0.06068190082514091  0.6761352263994601  1.0000
  C   C74       1.0  0.3675105889751774  0.06522454337769656  0.6181977755582365  1.0000
  C   C75       1.0  0.3737728866491444  0.10229512790917862  0.5956230841672232  1.0000
  C   C76       1.0  0.36857187081169906  0.1347819132866606  0.6311717797887006  1.0000
  C   C77       1.0  0.35818171006686994  0.13006519150308216  0.689932784164428  1.0000
  C   C78       1.0  0.3517698423721303  0.09306220093756257  0.7123580455730782  1.0000
  H   H49       1.0  0.37104216175931415  0.040166063425117526  0.5902970695349575  1.0000
  H   H50       1.0  0.3827767325370027  0.10568783372902191  0.5509264195594179  1.0000
  H   H51       1.0  0.3546799467826403  0.15511752178385796  0.7178794005718463  1.0000
  H   H52       1.0  0.3440455913229194  0.08965169286920749  0.7578896312905503  1.0000
  C   C79       1.0  0.3264889122885083  0.03688553221515134  0.991176134768016  1.0000
  C   C80       1.0  0.32686293905983826  0.996514844511764  0.9903209550669472  1.0000
  C   C81       1.0  0.3547806483973482  0.9766942994513774  0.0008609334826075177  1.0000
  C   C82       1.0  0.38257803306797405  0.9971594829553959  0.011355562378843498  1.0000
  C   C83       1.0  0.38207864406228  0.03754257121131288  0.013861366411272336  1.0000
  C   C84       1.0  0.3540286327982791  0.057390201443611844  0.003908337763583347  1.0000
  H   H53       1.0  0.30559415715101895  0.9804982391957027  0.9810994074220639  1.0000
  H   H54       1.0  0.3548400655640292  0.945472359537241  0.9999753076863127  1.0000
  H   H55       1.0  0.4034853529250588  0.0535671841455021  0.02135971315117602  1.0000
  H   H56       1.0  0.35405496907252515  0.08859181459967802  0.002977413789817085  1.0000
  C   C85       1.0  0.17027460542099696  0.09895623367062356  0.7568846935568275  1.0000
  C   C86       1.0  0.15717713601262248  0.07223416058775389  0.7968212428061453  1.0000
  C   C87       1.0  0.12837913726099903  0.08001527711556822  0.8242880960903726  1.0000
  C   C88       1.0  0.11285898488318591  0.11455425061697722  0.8117468569371955  1.0000
  C   C89       1.0  0.1258100437892314  0.1408611175030372  0.7711690534958899  1.0000
  C   C90       1.0  0.1543945762408264  0.13299835749130362  0.743582279650464  1.0000
  H   H57       1.0  0.16909193069814954  0.04553734756994743  0.8062919100190626  1.0000
  H   H58       1.0  0.11836953141239434  0.05955952282258914  0.8555529719496506  1.0000
  H   H59       1.0  0.11380973042637325  0.16754188179007867  0.7614295620503913  1.0000
  H   H60       1.0  0.16441957351965844  0.15367686636527833  0.712656009987933  1.0000
  C   C91       1.0  0.27070805051611896  0.8815187332664974  0.8076852436382843  1.0000
  C   C92       1.0  0.2906312474418425  0.8965703964115291  0.7637126973015069  1.0000
  C   C93       1.0  0.31958176852343295  0.8793628689642241  0.7526304729646904  1.0000
  C   C94       1.0  0.3291030831563994  0.847859251155592  0.7868744389038123  1.0000
  C   C95       1.0  0.30865017568871167  0.8319359694611502  0.8292436292782142  1.0000
  C   C96       1.0  0.2793161110012252  0.8484601491376482  0.8392099277596792  1.0000
  H   H61       1.0  0.28395026609821694  0.9217904694488778  0.7385463077274003  1.0000
  H   H62       1.0  0.33486331319372376  0.8911636749294567  0.7186458977058433  1.0000
  H   H63       1.0  0.3155762749446849  0.8073662321543055  0.8554163483871963  1.0000
  H   H64       1.0  0.26411412563446945  0.8367257407489699  0.8733249847318797  1.0000
  Fe  Fe33      1.0  0.7602298701215365  0.0734876361469965  0.8482126491080634  1.0000
  S   S65       1.0  0.7680808935820967  0.10901635506699026  0.9304924018367581  1.0000
  S   S66       1.0  0.7567240481869902  0.09643959788046641  0.75498922852805  1.0000
  Fe  Fe34      1.0  0.7571999451022078  0.9982212786439768  0.9163308000847933  1.0000
  S   S67       1.0  0.7646542324094143  0.026658078886611314  0.0047041274289023605  1.0000
  S   S68       1.0  0.748721773072203  0.9344965039556067  0.9093750008928858  1.0000
  Fe  Fe35      1.0  0.7310522004446268  0.07096419794241293  0.9709479748525605  1.0000
  S   S69       1.0  0.6934666002363976  0.09198756597554758  0.03277513087172457  1.0000
  Fe  Fe36      1.0  0.8010354061377122  0.06161433829813001  0.9565002838246407  1.0000
  S   S70       1.0  0.8468512432355704  0.07573369808096464  0.0010640032193427462  1.0000
  S   S71       1.0  0.7203095340789454  0.03923849646635147  0.886362100042463  1.0000
  S   S72       1.0  0.7963726124415355  0.029405228222028734  0.8700981252239949  1.0000
  Fe  Fe37      1.0  0.8799304420069317  0.7136931889222125  0.8383439958623009  1.0000
  S   S73       1.0  0.8579435679758928  0.6710055921033634  0.9009850443502638  1.0000
  S   S74       1.0  0.8972255796652826  0.6995264432134605  0.7463842283147952  1.0000
  Fe  Fe38      1.0  0.8690384209801983  0.781165555386227  0.9221423979084654  1.0000
  S   S75       1.0  0.8462271536537357  0.7442197822402133  0.9919315805596896  1.0000
  S   S76       1.0  0.8755527827386477  0.8445515711844218  0.9397986315020225  1.0000
  Fe  Fe39      1.0  0.8848371370075703  0.7026827499677004  0.9718464457008333  1.0000
  S   S77       1.0  0.9095118407197073  0.6685665364543691  0.04297112786431234  1.0000
  Fe  Fe40      1.0  0.8217112559956198  0.7162851351488368  0.9145375578519321  1.0000
  S   S78       1.0  0.7704290270489871  0.7031839236836575  0.9078044366673735  1.0000
  S   S79       1.0  0.9099338359665216  0.7420562204967754  0.9078803491127206  1.0000
  S   S80       1.0  0.8415008254223938  0.7566426534046046  0.8459425429984693  1.0000
  Fe  Fe41      1.0  0.661566642509455  0.7704589317311078  0.1400255506720629  1.0000
  S   S81       1.0  0.6486033176296692  0.8127590282704154  0.21108742367379718  1.0000
  S   S82       1.0  0.7053104379948532  0.7366182745322452  0.15437894023012522  1.0000
  Fe  Fe42      1.0  0.07472226077605315  0.6736531231114701  0.9447945627805198  1.0000
  S   S83       1.0  0.06406753694721967  0.7284039373558893  0.993692667989642  1.0000
  S   S84       1.0  0.04451747125759731  0.6210629233652623  0.9580254127930438  1.0000
  Fe  Fe43      1.0  0.07787086300906854  0.756941653443153  0.9080192903282404  1.0000
  S   S85       1.0  0.053768700544115644  0.80743147928622  0.8673132109523486  1.0000
  Fe  Fe44      1.0  0.11520464191598534  0.72937129481579  0.014124398258391402  1.0000
  S   S86       1.0  0.13474655189619011  0.7450642086363902  0.1037522073230448  1.0000
  S   S87       1.0  0.0839010709782706  0.7022700327372948  0.8564911741357634  1.0000
  S   S88       1.0  0.12512941679456624  0.6721226526476896  0.9719600648194506  1.0000
  Fe  Fe45      1.0  0.5207092442470499  0.04855422962709954  0.012999995775431872  1.0000
  S   S89       1.0  0.5243124015245066  0.07770461455499267  0.10225431871224955  1.0000
  S   S90       1.0  0.5573847278891453  0.052887170433451924  0.9412670667147429  1.0000
  Fe  Fe46      1.0  0.007642558348623485  0.022238051291619376  0.9260928105614276  1.0000
  S   S91       1.0  0.02510681247983859  0.0037437047305526328  0.01548886759714252  1.0000
  S   S92       1.0  0.9642173192849299  0.9931133544248176  0.8912687386710523  1.0000
  Fe  Fe47      1.0  0.0330923680802222  0.06681617919001592  0.031206657734784926  1.0000
  S   S93       1.0  0.016627936359952855  0.09374371404102066  0.11651945422896537  1.0000
  Fe  Fe48      1.0  0.07238669445625812  0.005127282422859869  0.9725473285285124  1.0000
  S   S94       1.0  0.1058926068398589  0.9572777083801757  0.9924657161828494  1.0000
  S   S95       1.0  0.012038929731796433  0.08564118151916045  0.9446995330195159  1.0000
  S   S96       1.0  0.054215374811854566  0.01848454743061434  0.8808889743450166  1.0000
  Fe  Fe49      1.0  0.8178631884381692  0.5473444662595703  0.5593476787097668  1.0000
  S   S97       1.0  0.8201219063780236  0.5962768684594283  0.4937076299445235  1.0000
  S   S98       1.0  0.8391239959304936  0.5436544078812566  0.6506817488078105  1.0000
  Fe  Fe50      1.0  0.7811202602783164  0.49477024477543097  0.4751133317670736  1.0000
  S   S99       1.0  0.7804127011675417  0.5386299420966337  0.4016672047051925  1.0000
  S   S100      1.0  0.7594019750537621  0.43542981724199026  0.4698932018069112  1.0000
  Fe  Fe51      1.0  0.8303671767104109  0.5499897187178947  0.42677124189345395  1.0000
  S   S101      1.0  0.8696868503849507  0.5526346002811698  0.36090970527892924  1.0000
  Fe  Fe52      1.0  0.7702018959791572  0.5807374401194451  0.4750258174936974  1.0000
  S   S102      1.0  0.7335617344903167  0.6256431639115879  0.46179091693700136  1.0000
  S   S103      1.0  0.8320976617271579  0.5024378210015604  0.49404951974956207  1.0000
  S   S104      1.0  0.7667509713512719  0.5357382191922226  0.546837401094055  1.0000
  Fe  Fe53      1.0  0.8708793188127926  0.19128964405926155  0.5605667644646263  1.0000
  S   S105      1.0  0.8534691396333358  0.1515865674584657  0.48850744823754527  1.0000
  S   S106      1.0  0.8805375058220046  0.17259276691934736  0.6549805235909905  1.0000
  Fe  Fe54      1.0  0.8654130607486237  0.2627350772932857  0.48222608857130655  1.0000
  S   S107      1.0  0.8464175217967376  0.2294045056792762  0.4047296680866428  1.0000
  S   S108      1.0  0.8759909528936917  0.32566844451844196  0.4682022779387799  1.0000
  Fe  Fe55      1.0  0.8178338385021146  0.19768866871766283  0.47311939087527816  1.0000
  S   S109      1.0  0.7665610046357061  0.18367797886359868  0.47354464712081756  1.0000
  Fe  Fe56      1.0  0.8838850134417783  0.18687553383034347  0.42748906720891705  1.0000
  S   S110      1.0  0.913766135334658  0.16496906004888354  0.3523144264814141  1.0000
  S   S111      1.0  0.8333218877692748  0.23527091770065992  0.5489216899781397  1.0000
  S   S112      1.0  0.9049289358133022  0.22246294920857926  0.5010351590076941  1.0000
  Fe  Fe57      1.0  0.09145023408853703  0.26035996949441526  0.2637940332274211  1.0000
  S   S113      1.0  0.5983423772340319  0.21402023242191381  0.2612809652626408  1.0000
  S   S114      1.0  0.09219684236706271  0.24671452872129068  0.1658585223546445  1.0000
  Fe  Fe58      1.0  0.06827529082305706  0.3118752717900365  0.3635175177055759  1.0000
  S   S115      1.0  0.6341079552313076  0.26353491355029135  0.3677314139124823  1.0000
  S   S116      1.0  0.036059179579906564  0.35951985216236115  0.39011732889013295  1.0000
  Fe  Fe59      1.0  0.6439048563202558  0.2450058526974271  0.27370620004655977  1.0000
  S   S117      1.0  0.6901275306739326  0.22340034076509588  0.2419268193200155  1.0000
  Fe  Fe60      1.0  0.07670561918928587  0.2264885627796563  0.38465132852707695  1.0000
  S   S118      1.0  0.055286144868653686  0.17522652298205485  0.43089788647674904  1.0000
  S   S119      1.0  0.6278201062880671  0.29988529612061376  0.23205714791338264  1.0000
  S   S120      1.0  0.048009343833289364  0.2598945455187238  0.31954896692507717  1.0000
  Fe  Fe61      1.0  0.5578887984869131  0.5945484893961304  0.45829254316371915  1.0000
  S   S121      1.0  0.05921547938147098  0.6378621933080046  0.44769185630140085  1.0000
  S   S122      1.0  0.5718225021900698  0.6087593756516042  0.3641092210937466  1.0000
  Fe  Fe62      1.0  0.07358523726595556  0.5567724158451304  0.33212924557981927  1.0000
  S   S123      1.0  0.07954611871868766  0.5462160754357636  0.43010998692512253  1.0000
  S   S124      1.0  0.07959997963052423  0.5111857780588548  0.26257226215054796  1.0000
  Fe  Fe63      1.0  0.035445662737242145  0.5801156952712739  0.4394843270393718  1.0000
  S   S125      1.0  0.9968601102295387  0.5623152840610923  0.502007895908696  1.0000
  Fe  Fe64      1.0  0.5826544746544942  0.582148588254744  0.5836271504308651  1.0000
  S   S126      1.0  0.6254743168262309  0.5855464408771485  0.6410469090527162  1.0000
  S   S127      1.0  0.027528746586900743  0.5857376155548385  0.3412116848716328  1.0000
  S   S128      1.0  0.58664148720455  0.5480333836799085  0.49967858157061906  1.0000
  C   C97       1.0  0.04297805748638828  0.4012473883532391  0.3480836956438921  1.0000
  C   C98       1.0  0.03436045605707494  0.43702951085687586  0.37123715557742587  1.0000
  C   C99       1.0  0.04391255027614083  0.4710116798290553  0.3424933480564687  1.0000
  C   C100      1.0  0.06227009754955182  0.4691845305621891  0.29092832886741543  1.0000
  C   C101      1.0  0.5597461540821177  0.39387080245708983  0.4723732696739102  1.0000
  C   C102      1.0  0.5812494492502586  0.3755077523153685  0.43476797860435634  1.0000
  H   H65       1.0  0.021461294799439257  0.43859832766736073  0.4126876142498085  1.0000
  H   H66       1.0  0.03778388522688303  0.49858306202906266  0.3613631090237869  1.0000
  H   H67       1.0  0.5459435254340028  0.37699194548932846  0.5035199134338822  1.0000
  H   H68       1.0  0.5840099290798663  0.34451245965769545  0.43699850956252534  1.0000
  C   C103      1.0  0.7461965941407769  0.19191392935787746  0.40711194412696844  1.0000
  C   C104      1.0  0.7135504424719671  0.18949241418134652  0.407841942981443  1.0000
  C   C105      1.0  0.6964115176859419  0.19796567254971087  0.3563923039828772  1.0000
  C   C106      1.0  0.7118456204770303  0.20874999037635955  0.3039768937041046  1.0000
  C   C107      1.0  0.7445562426931046  0.20987043697487906  0.3024467679017872  1.0000
  C   C108      1.0  0.7617769457349933  0.20166993908491038  0.3542419173798964  1.0000
  H   H69       1.0  0.7014334063617884  0.18122640973108273  0.44829264801902047  1.0000
  H   H70       1.0  0.6712205086461107  0.19568483896268185  0.3571760736236877  1.0000
  H   H71       1.0  0.756544919612886  0.21779987498233253  0.26166402206052597  1.0000
  H   H72       1.0  0.7870009256513933  0.20282975447431803  0.35319281977360073  1.0000
  C   C109      1.0  0.953111350161384  0.16517012287016147  0.37422136297655606  1.0000
  C   C110      1.0  0.9614158507039738  0.15917721996835393  0.43390547912544963  1.0000
  C   C111      1.0  0.992963603790369  0.16108350030295923  0.4511834350251456  1.0000
  C   C112      1.0  0.016106056156018234  0.16975900537952052  0.40899241866421704  1.0000
  C   C113      1.0  0.00771884954765123  0.1752626448670054  0.34935482524761735  1.0000
  C   C114      1.0  0.976354824042829  0.1728841348809722  0.3318908377589445  1.0000
  H   H73       1.0  0.9435659914091692  0.1528471612126629  0.4667749151281644  1.0000
  H   H74       1.0  0.999333772484268  0.1567341265515085  0.49743555118157895  1.0000
  H   H75       1.0  0.025442518350944132  0.1814714683935651  0.3166751510664934  1.0000
  H   H76       1.0  0.9701437977654813  0.1783413819094383  0.285987715376717  1.0000
  C   C115      1.0  0.6558444794690789  0.6013278982248804  0.5948848917716064  1.0000
  C   C116      1.0  0.6870000804545316  0.5970056845440425  0.6125053796254284  1.0000
  C   C117      1.0  0.7111617110980784  0.6058431350250718  0.5723082103030992  1.0000
  C   C118      1.0  0.7040791394895917  0.6191548149674895  0.5149249423077419  1.0000
  C   C119      1.0  0.6730212534251944  0.6253539268420413  0.4987489399798087  1.0000
  C   C120      1.0  0.6489273244427812  0.6161561702256566  0.5384540543413504  1.0000
  H   H77       1.0  0.6923316296501894  0.5858440109966315  0.6564170221526031  1.0000
  H   H78       1.0  0.7352240332164222  0.6024116994985221  0.5855723683534415  1.0000
  H   H79       1.0  0.6673815228144394  0.6360272791764009  0.4549463881968704  1.0000
  H   H80       1.0  0.6249533612040978  0.6201196698380862  0.5248961003510754  1.0000
  C   C121      1.0  0.9615616749296967  0.5588399530073209  0.4629250308286499  1.0000
  C   C122      1.0  0.9609652901896729  0.5453295563787963  0.404122038819202  1.0000
  C   C123      1.0  0.9327086680359258  0.5437480092490551  0.37255008700137876  1.0000
  C   C124      1.0  0.9049119521818326  0.554685269215747  0.4003557926916498  1.0000
  C   C125      1.0  0.9053492774439876  0.5668382062998024  0.4598364794413865  1.0000
  C   C126      1.0  0.9336836803283082  0.5692419996071298  0.4909304522703125  1.0000
  H   H81       1.0  0.9821163353944797  0.5350684674762242  0.38349744658485063  1.0000
  H   H82       1.0  0.9322956980686463  0.5333140570713792  0.32707323180104997  1.0000
  H   H83       1.0  0.8839885555283147  0.5751454853065412  0.48170422228513143  1.0000
  H   H84       1.0  0.9340238521723983  0.5796903702332349  0.5364288976613262  1.0000
  C   C127      1.0  0.7905244725632471  0.40301606132124  0.4649362399450357  1.0000
  C   C128      1.0  0.8180887930072355  0.41430628716866214  0.4360892869247733  1.0000
  C   C129      1.0  0.8440949937393192  0.3900741695730505  0.43647242664824154  1.0000
  C   C130      1.0  0.842330169795541  0.35396268108936224  0.46424576724991673  1.0000
  C   C131      1.0  0.814209312952401  0.34162624713372053  0.49021524613547324  1.0000
  C   C132      1.0  0.7883095834915114  0.3663024882502472  0.4908919508714173  1.0000
  H   H85       1.0  0.8193904129117251  0.44182107775087104  0.4133406744489146  1.0000
  H   H86       1.0  0.865581907460296  0.3993936040608495  0.41524208388013184  1.0000
  H   H87       1.0  0.8127736683394415  0.3137367990577421  0.5117588233404133  1.0000
  H   H88       1.0  0.767032652333019  0.3574597674932542  0.5133068383709092  1.0000
  C   C133      1.0  0.0681770540514095  0.20713298813699496  0.1480145600609617  1.0000
  C   C134      1.0  0.07206678721537418  0.18769465099548022  0.09386531342340819  1.0000
  C   C135      1.0  0.05504783166847371  0.1536696782593816  0.08245410413039034  1.0000
  C   C136      1.0  0.034197223319547554  0.1391537417014006  0.12525072955976113  1.0000
  C   C137      1.0  0.4733042125421947  0.22155212813775907  0.09657130657053226  1.0000
  C   C138      1.0  0.49582971110106744  0.2506003102072902  0.10500851503675612  1.0000
  H   H89       1.0  0.08871096849348747  0.1984432438059145  0.061358666412101075  1.0000
  H   H90       1.0  0.05843037294210318  0.13852856110167577  0.040917034297738075  1.0000
  H   H91       1.0  0.45196817712277454  0.22782641316908933  0.07262789593288499  1.0000
  H   H92       1.0  0.4917815051662799  0.2793528259786997  0.08782337332738055  1.0000
  C   C139      1.0  0.06344333637046051  0.7093941578450892  0.24504223397726702  1.0000
  C   C140      1.0  0.0953662875856347  0.7036978199530024  0.2548764318013954  1.0000
  C   C141      1.0  0.1173826226576169  0.7162894089830518  0.21255875020515247  1.0000
  C   C142      1.0  0.10750632418066242  0.7344954611836172  0.16016048347030032  1.0000
  C   C143      1.0  0.5704024547749934  0.7037214587396518  0.2605204502676117  1.0000
  C   C144      1.0  0.5710583060662876  0.6653507659206134  0.28013762338627696  1.0000
  H   H93       1.0  0.1031787906235766  0.6897880812694166  0.2952667897876131  1.0000
  H   H94       1.0  0.14199664029449144  0.7110040689270877  0.2197995449941712  1.0000
  H   H95       1.0  0.5727655838463445  0.7100608942329418  0.2136748711047376  1.0000
  H   H96       1.0  0.5746336303368628  0.6423233392667294  0.2483451379811011  1.0000
  C   C145      1.0  0.0691078229879658  0.8487522837126795  0.9014372480835772  1.0000
  C   C146      1.0  0.08353284484324286  0.8462098719825197  0.9573454265045845  1.0000
  C   C147      1.0  0.09568537496662843  0.8794732920815203  0.9846381281465099  1.0000
  C   C148      1.0  0.09279324141227141  0.9153588325365211  0.9565649457408201  1.0000
  C   C149      1.0  0.5791061266494906  0.9886816014830576  0.15384035117836103  1.0000
  C   C150      1.0  0.6078652255134347  0.973147491781435  0.13666598154042253  1.0000
  H   H97       1.0  0.08457851047457887  0.8188510563294814  0.9804854089892222  1.0000
  H   H98       1.0  0.10632321698643743  0.8776200024230075  0.028357093658833543  1.0000
  H   H99       1.0  0.570847395068619  0.014773510751360241  0.1331021980114928  1.0000
  H   H100      1.0  0.6218009133634254  0.9875436536267487  0.10293989091941147  1.0000
  C   C151      1.0  0.8827759433651183  0.6553698267879151  0.7194222224851516  1.0000
  C   C152      1.0  0.8753844208435869  0.6252703430992785  0.7586847004135907  1.0000
  C   C153      1.0  0.8628669889755362  0.5905949423064297  0.73689724467064  1.0000
  C   C154      1.0  0.8574686414591602  0.585983671808224  0.6757842448643396  1.0000
  C   C155      1.0  0.8656840561148418  0.6156211033428816  0.6362179394345899  1.0000
  C   C156      1.0  0.8785443919283562  0.6502165999924131  0.6580199067502149  1.0000
  H   H101      1.0  0.8795888247720092  0.6283546550462612  0.805800008780881  1.0000
  H   H102      1.0  0.8568307600827677  0.5675529833245258  0.767593207575354  1.0000
  H   H103      1.0  0.8622975118911561  0.6119328060013703  0.5888784027620781  1.0000
  H   H104      1.0  0.8846399625958685  0.6732510977758864  0.6273513757730751  1.0000
  C   C157      1.0  0.751790813288947  0.7094864051053408  0.9767086563351834  1.0000
  C   C158      1.0  0.7200229983162757  0.7188272260167748  0.9784291503218402  1.0000
  C   C159      1.0  0.705403221957918  0.7263346211921334  0.03318312987189542  1.0000
  C   C160      1.0  0.7224953409372111  0.7241213091062644  0.08625669468442321  1.0000
  C   C161      1.0  0.7539845835012504  0.7135707280551095  0.08472275357313475  1.0000
  C   C162      1.0  0.7686572139538687  0.7064055763504815  0.029947533185324282  1.0000
  H   H105      1.0  0.7068454153147722  0.7209585602339517  0.9373547117628506  1.0000
  H   H106      1.0  0.6809157216066151  0.733816781596181  0.034199120736830624  1.0000
  H   H107      1.0  0.7671818297059138  0.7114511619568138  0.12576547803159  1.0000
  H   H108      1.0  0.7929374469842032  0.6980980025528661  0.028991620050560885  1.0000
  C   C163      1.0  0.9470778695077015  0.6556699160696079  0.019516673821153185  1.0000
  C   C164      1.0  0.9580705973338736  0.6184036518848461  0.03072467260478562  1.0000
  C   C165      1.0  0.9878191032657183  0.6075739153826093  0.010789228185338562  1.0000
  C   C166      1.0  0.006952415340375939  0.6343369223731278  0.9811317633714745  1.0000
  C   C167      1.0  0.996093893297869  0.6717018484434815  0.9705585961493727  1.0000
  C   C168      1.0  0.9661497096841483  0.682313530317999  0.9895050154703814  1.0000
  H   H109      1.0  0.943270113357632  0.5976459684082126  0.05354664645948315  1.0000
  H   H110      1.0  0.995944056681597  0.5784929889236429  0.01844190864072459  1.0000
  H   H111      1.0  0.010494924711831999  0.6923152280003979  0.9468616734774071  1.0000
  H   H112      1.0  0.9581012436862  0.711388446641204  0.9820794536964172  1.0000
  C   C169      1.0  0.7928156683751034  0.11402164723286057  0.7293261381513476  1.0000
  C   C170      1.0  0.7996159121369532  0.11223656787637704  0.6683809033632808  1.0000
  C   C171      1.0  0.8265155504041477  0.13022064398708233  0.6458241330865668  1.0000
  C   C172      1.0  0.8470292279036843  0.14969758767965974  0.6840160403446865  1.0000
  C   C173      1.0  0.840741581255753  0.1505801264361793  0.7453775333172873  1.0000
  C   C174      1.0  0.813678380185997  0.13259925631886227  0.7681081590445652  1.0000
  H   H113      1.0  0.7840361982439779  0.09708840813749897  0.6383296201963046  1.0000
  H   H114      1.0  0.831410362844604  0.12859850576259735  0.598812858450637  1.0000
  H   H115      1.0  0.8562148153861807  0.16608797926574953  0.7751775928556524  1.0000
  H   H116      1.0  0.808411055558137  0.13425907854812502  0.8152551388164736  1.0000
  C   C175      1.0  0.8788029690043022  0.04972355215561031  0.9737865722218237  1.0000
  C   C176      1.0  0.9088705729374268  0.06172583665360376  0.9897449061481083  1.0000
  C   C177      1.0  0.9350046622923328  0.0427096371830451  0.9671941518252907  1.0000
  C   C178      1.0  0.93132118657901  0.012583203466635773  0.9264352626652188  1.0000
  C   C179      1.0  0.9012468979763905  0.9996091901860389  0.911615872811863  1.0000
  C   C180      1.0  0.8749701469184455  0.01800595132655336  0.935763171831611  1.0000
  H   H117      1.0  0.9119852312909036  0.0864070727845685  0.01838346973068883  1.0000
  H   H118      1.0  0.9579639024462134  0.051830064949000665  0.980908597578627  1.0000
  H   H119      1.0  0.8981716334441757  0.9758079698587288  0.8808718800502712  1.0000
  H   H120      1.0  0.8518876447303181  0.007715409070115253  0.9246506606514414  1.0000
  C   C181      1.0  0.6558140384319208  0.08117312520688746  0.006869770412579745  1.0000
  C   C182      1.0  0.6319720172420838  0.07345072095548622  0.04796842035306059  1.0000
  C   C183      1.0  0.6016420793403421  0.06511986216511301  0.027978879470148987  1.0000
  C   C184      1.0  0.5950158095524175  0.06445413271438616  0.9669499274571385  1.0000
  C   C185      1.0  0.6189112183553447  0.0721019079024583  0.9258106618802576  1.0000
  C   C186      1.0  0.6492728858373013  0.08061193028516112  0.9457469830061387  1.0000
  H   H121      1.0  0.6370834122656858  0.07321272515743482  0.09525540446382519  1.0000
  H   H122      1.0  0.5835285485012182  0.058572643783374234  0.05968967177683493  1.0000
  H   H123      1.0  0.6138537520839675  0.07170271762683211  0.8784915013244851  1.0000
  H   H124      1.0  0.6674203690149797  0.08746639416749846  0.9138250681645502  1.0000
  C   C187      1.0  0.784387283423536  0.9102775735072925  0.9152870768574202  1.0000
  C   C188      1.0  0.785812833562992  0.8710678986412516  0.9010931275162084  1.0000
  C   C189      1.0  0.813684832524655  0.8507496500271864  0.9092439911281651  1.0000
  C   C190      1.0  0.8405414212859319  0.8698528101989783  0.9297070459961817  1.0000
  C   C191      1.0  0.8392379215801552  0.909273876362814  0.9432079263449594  1.0000
  C   C192      1.0  0.8110911344129756  0.9294033184054371  0.9364745995109057  1.0000
  H   H125      1.0  0.7653191043540717  0.8563179051081133  0.8839448251468857  1.0000
  H   H126      1.0  0.8142549265274134  0.8203212969289828  0.8996267182434011  1.0000
  H   H127      1.0  0.8598727237525663  0.9242118580245596  0.9593521376205607  1.0000
  H   H128      1.0  0.810014024746314  0.9596091704438497  0.9482341512843827  1.0000
  N   N1        1.0  0.3644760164302975  0.1200317803385822  0.17838498477085118  1.0000
  C   C193      1.0  0.378043949692311  0.15943528397105244  0.17896234913065756  1.0000
  C   C194      1.0  0.33753139852249076  0.11876166963017343  0.13711469671953314  1.0000
  C   C195      1.0  0.35407847503284534  0.10943536759065231  0.23920434288098424  1.0000
  C   C196      1.0  0.3884215442497039  0.09247679361015204  0.15816489477359452  1.0000
  H   H129      1.0  0.3990311813782235  0.1610637139013127  0.20835240918214848  1.0000
  H   H130      1.0  0.360958813774233  0.1810498829559537  0.19516257896482658  1.0000
  H   H131      1.0  0.38594895419656905  0.16841166836838384  0.13361143850543233  1.0000
  H   H132      1.0  0.3274850574744986  0.08906814068724711  0.13371933834163197  1.0000
  H   H133      1.0  0.3186282847028929  0.13842601776173669  0.15196889044562778  1.0000
  H   H134      1.0  0.3445324975188706  0.12772834024575497  0.09125424961326112  1.0000
  H   H135      1.0  0.336133535419958  0.12975058478846946  0.2562606165383825  1.0000
  H   H136      1.0  0.37398681508493065  0.10999769373806578  0.27124477726895635  1.0000
  H   H137      1.0  0.3437911745749579  0.07984559018752568  0.24041107732234113  1.0000
  H   H138      1.0  0.37943904266568496  0.062243129266515984  0.15809276506451853  1.0000
  H   H139      1.0  0.4095091197388107  0.09369336407783013  0.1873966240730809  1.0000
  H   H140      1.0  0.39637907389050053  0.0992282042650543  0.11197744894709327  1.0000
  N   N2        1.0  0.9151786006269167  0.4530336289222038  0.548056058730817  1.0000
  C   C197      1.0  0.916834389555451  0.4612059440515371  0.48334068338525366  1.0000
  C   C198      1.0  0.944758670246788  0.43518278745700806  0.5675426259565883  1.0000
  C   C199      1.0  0.8888638302046654  0.4261988301169728  0.5602081617193223  1.0000
  C   C200      1.0  0.9104894469075275  0.4894718289636215  0.5811263992520305  1.0000
  H   H141      1.0  0.8953364565648911  0.47570522503803486  0.4670282891828025  1.0000
  H   H142      1.0  0.919625929801383  0.4342651575644518  0.4569643032449491  1.0000
  H   H143      1.0  0.9369051177208354  0.48062835731005393  0.4725485611223675  1.0000
  H   H144      1.0  0.9444588401764495  0.428800781314766  0.6162394428909109  1.0000
  H   H145      1.0  0.9490214171603857  0.40754729852469174  0.5436492059671554  1.0000
  H   H146      1.0  0.9651389096936488  0.45463954225039693  0.5586289707513316  1.0000
  H   H147      1.0  0.8661914064594572  0.43843234868912523  0.5453716109776525  1.0000
  H   H148      1.0  0.8866640288660355  0.4197190512415752  0.6086771218693892  1.0000
  H   H149      1.0  0.8918354340478394  0.39821444323090194  0.5365245215832349  1.0000
  H   H150      1.0  0.9076666432382886  0.4843092409646587  0.6298641041558944  1.0000
  H   H151      1.0  0.8891635312024906  0.5048158342364144  0.5658893400675971  1.0000
  H   H152      1.0  0.9306268897748595  0.5096436389459392  0.5750320762557027  1.0000
  N   N3        1.0  0.654454725794632  0.9510672285243479  0.9545129775638906  1.0000
  C   C201      1.0  0.6753330058562623  0.973137465033942  0.9947477536277676  1.0000
  C   C202      1.0  0.662490626552426  0.9096636322670545  0.9571284998372093  1.0000
  C   C203      1.0  0.658422460857252  0.9654092720523227  0.8928099981542685  1.0000
  C   C204      1.0  0.6216071468145723  0.9560539638699549  0.9733240322309817  1.0000
  H   H153      1.0  0.6726349024477764  0.963813151407079  0.041910883496241835  1.0000
  H   H154      1.0  0.6702973425208285  0.004524201529204408  0.9931690820846026  1.0000
  H   H155      1.0  0.700324403381412  0.9695286196027738  0.9824238422156022  1.0000
  H   H156      1.0  0.6870359240348389  0.9047706623895249  0.9426532047664944  1.0000
  H   H157      1.0  0.6599684535085303  0.8981368492710257  0.003288418486108835  1.0000
  H   H158      1.0  0.6469804433758465  0.8920899321265281  0.9277531908579858  1.0000
  H   H159      1.0  0.6830061583014695  0.9619533055918135  0.877286028139207  1.0000
  H   H160      1.0  0.6525919587021177  0.9966318010163543  0.8894447564057869  1.0000
  H   H161      1.0  0.643065028266253  0.9494832136721435  0.8610757555491217  1.0000
  H   H162      1.0  0.6051068626281265  0.9411769592282161  0.9424578278393596  1.0000
  H   H163      1.0  0.6150699756589538  0.9870702039496616  0.9745256820131962  1.0000
  H   H164      1.0  0.6175229763555392  0.9438695141095411  0.018658439704769325  1.0000
  N   N4        1.0  0.9829494067245166  0.6565801818192553  0.7860197757099976  1.0000
  C   C205      1.0  0.9757179905159141  0.6496476710783462  0.7223710569304417  1.0000
  C   C206      1.0  0.9591434930497434  0.637246108816911  0.8237414392433611  1.0000
  C   C207      1.0  0.9828781375387166  0.698556869863849  0.7980651362167278  1.0000
  C   C208      1.0  0.014124661534707261  0.6408576318832939  0.7999779855119092  1.0000
  H   H165      1.0  0.9754911181642523  0.6182750382150978  0.711668634721541  1.0000
  H   H166      1.0  0.9931280409245995  0.6639355046163611  0.6925657230093155  1.0000
  H   H167      1.0  0.9523426927040448  0.6611309418250094  0.7102021927116542  1.0000
  H   H168      1.0  0.9643818116705005  0.6407567716853647  0.8720336530709206  1.0000
  H   H169      1.0  0.9355387364914051  0.6494719931524999  0.816045116505744  1.0000
  H   H170      1.0  0.9577118815190596  0.6057424519968088  0.814446511217213  1.0000
  H   H171      1.0  0.9876037743441517  0.7047673077536364  0.8459296501733808  1.0000
  H   H172      1.0  0.9598352706322278  0.7115107668267914  0.7870875241983961  1.0000
  H   H173      1.0  0.0009133368308344998  0.7140432248664378  0.7711684678518239  1.0000
  H   H174      1.0  0.020619560042346885  0.6464903536486075  0.8472087693532137  1.0000
  H   H175      1.0  0.03262372323172036  0.6541619567353749  0.7715118854685669  1.0000
  H   H176      1.0  0.014826502848956258  0.609042548034361  0.7932495707272004  1.0000
  N   N5        1.0  0.7220014441067955  0.18243173083000713  0.6351892225512795  1.0000
  C   C209      1.0  0.7052288388355087  0.18202024054055957  0.6928818910938803  1.0000
  C   C210      1.0  0.7224117592846881  0.1429026900914008  0.610382927188175  1.0000
  C   C211      1.0  0.7544209302106727  0.19631876576584467  0.644540832797122  1.0000
  C   C212      1.0  0.7059157150325649  0.2084323658789311  0.593004523608677  1.0000
  H   H177      1.0  0.7168035872913255  0.16241469121471255  0.725529560036476  1.0000
  H   H178      1.0  0.6807133454423421  0.1715885369359462  0.687570905976872  1.0000
  H   H179      1.0  0.7046398945592414  0.21126940859825952  0.7132497806629211  1.0000
  H   H180      1.0  0.6984277152826457  0.13211106333851141  0.6004450004358597  1.0000
  H   H181      1.0  0.7362024815517564  0.14159092881452942  0.5682846572163144  1.0000
  H   H182      1.0  0.7330403859270793  0.1221949973080525  0.6422596128776481  1.0000
  H   H183      1.0  0.7685721288530358  0.19420113935924554  0.6029390997905949  1.0000
  H   H184      1.0  0.7665114328289334  0.17908141724771923  0.6792857195451761  1.0000
  H   H185      1.0  0.7551251021416125  0.22692575841763651  0.6593492597204693  1.0000
  H   H186      1.0  0.7183680127069328  0.2097099611994588  0.5494346843708462  1.0000
  H   H187      1.0  0.7048066617030455  0.23841631163136429  0.610521095776571  1.0000
  H   H188      1.0  0.6815742424570523  0.1984649463343711  0.5839649314311424  1.0000
  N   N6        1.0  0.6698152388773871  0.6802022965982187  0.3121270278142058  1.0000
  C   C213      1.0  0.649499059024763  0.647579544965503  0.3305334104973777  1.0000
  C   C214      1.0  0.6508729412092586  0.7095832151740105  0.28121352454892884  1.0000
  C   C215      1.0  0.6943839945879232  0.6660188587987756  0.2714893022233967  1.0000
  C   C216      1.0  0.6845502791301586  0.6977234468763485  0.36533805746008563  1.0000
  H   H189      1.0  0.6631922270117567  0.6239518546188609  0.3513781925940136  1.0000
  H   H190      1.0  0.6366136455106398  0.6349715500352999  0.291946016877421  1.0000
  H   H191      1.0  0.6316531324881132  0.6568469762942294  0.36360921488581255  1.0000
  H   H192      1.0  0.6390172922818261  0.6973209619716109  0.24123641850033042  1.0000
  H   H193      1.0  0.6324162955894573  0.7213455220329598  0.31099349224446105  1.0000
  H   H194      1.0  0.6655804384939383  0.7342612944181869  0.26573236836516223  1.0000
  H   H195      1.0  0.7107847519036621  0.6896501981624322  0.25839780402418466  1.0000
  H   H196      1.0  0.684164013066971  0.6541043084476598  0.22962520793773336  1.0000
  H   H197      1.0  0.7085508085727764  0.6429861916084197  0.2929097272119003  1.0000
  H   H198      1.0  0.6998443902644026  0.6767616674861434  0.3887023042244096  1.0000
  H   H199      1.0  0.666681817261932  0.7076403676459314  0.39792873546906793  1.0000
  H   H200      1.0  0.6993531690985099  0.7230878184214927  0.3531083558787619  1.0000
  N   N7        1.0  0.9693010913433917  0.8747832204716955  0.9308632160534936  1.0000
  C   C217      1.0  0.9452543163479795  0.9005748736097295  0.9559112099745921  1.0000
  C   C218      1.0  0.9544420584021073  0.8383928894421316  0.9107731131193595  1.0000
  C   C219      1.0  0.9929053851003197  0.866181795846521  0.9770897215559882  1.0000
  C   C220      1.0  0.9846533656493482  0.8938882169229199  0.8795305870042345  1.0000
  H   H201      1.0  0.955735035305941  0.9280742819306522  0.972377804788102  1.0000
  H   H202      1.0  0.9325042629252673  0.8866518961124609  0.9936217090091121  1.0000
  H   H203      1.0  0.9273578456850124  0.908238061745205  0.9218289663860099  1.0000
  H   H204      1.0  0.9719169529193025  0.8182100028255455  0.8916568540886397  1.0000
  H   H205      1.0  0.9424545966965798  0.823273439350365  0.9483287237598642  1.0000
  H   H206      1.0  0.9363966461571005  0.843889589403042  0.8759890216872737  1.0000
  H   H207      1.0  0.005387644733430008  0.8928757565078717  0.991811118978507  1.0000
  H   H208      1.0  0.010844049295726688  0.8458767583724099  0.9600657790200063  1.0000
  H   H209      1.0  0.9819755691550401  0.8526457719081936  0.01710768095781723  1.0000
  H   H210      1.0  0.9672413592678512  0.9032137850773051  0.845613831034109  1.0000
  H   H211      1.0  0.001400198986177159  0.8742096289578833  0.8572094470427802  1.0000
  H   H212      1.0  0.9978552835748745  0.9201813401727678  0.8936374966939403  1.0000
  N   N8        1.0  0.7708774699219587  0.6529773647551387  0.7318285824493921  1.0000
  C   C221      1.0  0.7986467656713904  0.6740229239648333  0.7545007194115035  1.0000
  C   C222      1.0  0.7485748286610415  0.6464577088386759  0.7813054377678884  1.0000
  C   C223      1.0  0.780564142744644  0.6154258977772695  0.7069143836212892  1.0000
  C   C224      1.0  0.7556809483813359  0.6760499612943582  0.6846138174451336  1.0000
  H   H213      1.0  0.8160087203200248  0.6797165774141352  0.7184539684000748  1.0000
  H   H214      1.0  0.8107217813602472  0.657360126296169  0.790108710138185  1.0000
  H   H215      1.0  0.792113686075541  0.7023026075605439  0.7743850413060807  1.0000
  H   H216      1.0  0.7276015718292026  0.6298846372602913  0.7663697063251624  1.0000
  H   H217      1.0  0.7595852231786565  0.630297213584571  0.8187361143303925  1.0000
  H   H218      1.0  0.740268440114621  0.6742904518356647  0.8002228917426074  1.0000
  H   H219      1.0  0.7968971307211703  0.6193399630002963  0.668657756684197  1.0000
  H   H220      1.0  0.7601748288205676  0.5983862070870622  0.6904346874594379  1.0000
  H   H221      1.0  0.7927949767899581  0.5975268858150435  0.7408585445314829  1.0000
  H   H222      1.0  0.7483985844029695  0.704777888092531  0.7017416018307335  1.0000
  H   H223      1.0  0.7343816048741741  0.661233410774934  0.66706300243519  1.0000
  H   H224      1.0  0.7717284106009571  0.6811293278758555  0.6461994616051004  1.0000
  N   N9        1.0  0.10267917450771567  0.10624115556121927  0.2726724869934117  1.0000
  C   C225      1.0  0.0740565717675669  0.12156865982899157  0.3005335159725636  1.0000
  C   C226      1.0  0.09737954509656326  0.06543300662534168  0.2559503611914346  1.0000
  C   C227      1.0  0.12884359775080706  0.10902353680120691  0.315605232804704  1.0000
  C   C228      1.0  0.11029101406446469  0.12896851448656577  0.21859439335301303  1.0000
  H   H225      1.0  0.07654988560252476  0.15288206208399682  0.3105443098138907  1.0000
  H   H226      1.0  0.06854178209807404  0.10681379526245904  0.34351616919118605  1.0000
  H   H227      1.0  0.05340275446936271  0.11789954231733635  0.2709789859681303  1.0000
  H   H228      1.0  0.07780784502755055  0.0625600765590626  0.22325832386664302  1.0000
  H   H229      1.0  0.11851514653251985  0.05278260603644914  0.23490894438864607  1.0000
  H   H230      1.0  0.09121176454495443  0.0475052864791663  0.2955815813052979  1.0000
  H   H231      1.0  0.123743021884422  0.0924336749715673  0.35713893475293196  1.0000
  H   H232      1.0  0.13326392354155192  0.13949994409258282  0.32914211675534516  1.0000
  H   H233      1.0  0.15092541567161216  0.09776580945101855  0.2962829187333648  1.0000
  H   H234      1.0  0.1323846005832236  0.11918981820064724  0.19755585623202365  1.0000
  H   H235      1.0  0.11296974160919389  0.16032022254396577  0.22873045889409593  1.0000
  H   H236      1.0  0.09154773039991668  0.12624034774936654  0.18445848403071752  1.0000
  N   N10       1.0  0.9259886042696814  0.09110992173207677  0.7739336311204953  1.0000
  C   C229      1.0  0.9184622400305944  0.08191297123411867  0.7111363150890924  1.0000
  C   C230      1.0  0.954581292191285  0.07041141419835362  0.7918543943782359  1.0000
  C   C231      1.0  0.8996758106598178  0.07891802652992164  0.8125723873427504  1.0000
  C   C232      1.0  0.9312743408865756  0.13313201864344082  0.7801929971157388  1.0000
  H   H237      1.0  0.8964727493186426  0.0961239016100488  0.6967543260315459  1.0000
  H   H238      1.0  0.9151499456910939  0.05031046353620905  0.7045257209913522  1.0000
  H   H239      1.0  0.9372566488328463  0.09199240569707134  0.6803479791191509  1.0000
  H   H240      1.0  0.9604882304545904  0.07583783010144662  0.8395350257099675  1.0000
  H   H241      1.0  0.9516537684453633  0.03862845161968287  0.7866444693122205  1.0000
  H   H242      1.0  0.97512398408824  0.0794640960462718  0.7645827369219034  1.0000
  H   H243      1.0  0.8951644865074303  0.047313999058487655  0.8091115452643457  1.0000
  H   H244      1.0  0.8776259673597032  0.09374678894169985  0.8002081820736575  1.0000
  H   H245      1.0  0.9044220440512107  0.08551080727457094  0.8603250404928009  1.0000
  H   H246      1.0  0.9369052231820042  0.14106715408140968  0.8271084908489665  1.0000
  H   H247      1.0  0.9102780897450745  0.1496933340239761  0.7666104237666435  1.0000
  H   H248      1.0  0.9509104067499711  0.14333830637111244  0.7514593928659818  1.0000
  N   N11       1.0  0.15713547291521407  0.840987983554022  0.7955786134540729  1.0000
  C   C233      1.0  0.15293673783440606  0.8648290525986967  0.849639631126751  1.0000
  C   C234      1.0  0.16546387924544415  0.8661982305432749  0.7446119785833766  1.0000
  C   C235      1.0  0.12766874922443544  0.8201676783335639  0.7820726351072876  1.0000
  C   C236      1.0  0.18245093179899635  0.8128708686831353  0.8057871460675075  1.0000
  H   H249      1.0  0.145873002570562  0.8469448698200888  0.8887094547003703  1.0000
  H   H250      1.0  0.13452427564556693  0.886952703165596  0.8430332156476622  1.0000
  H   H251      1.0  0.17484495066975  0.880588647182903  0.8615606473823211  1.0000
  H   H252      1.0  0.18758539406175187  0.8824015001117557  0.7531440136807889  1.0000
  H   H253      1.0  0.16891504157217074  0.8491917508454077  0.7030785250809504  1.0000
  H   H254      1.0  0.1469765307313936  0.8879276130789684  0.7358551532239272  1.0000
  H   H255      1.0  0.10794413851784282  0.8404863010448106  0.7750763128899298  1.0000
  H   H256      1.0  0.12068811661297862  0.8006249373313244  0.8191698747604887  1.0000
  H   H257      1.0  0.12988974681389126  0.8020463534494621  0.7413544607323207  1.0000
  H   H258      1.0  0.1860947115064229  0.7940997792756531  0.7661481233790243  1.0000
  H   H259      1.0  0.1770448689256755  0.7933537186443651  0.8439336678374447  1.0000
  H   H260      1.0  0.20511772110986867  0.8276889863765232  0.8154611582451144  1.0000
  N   N12       1.0  0.6637171349932242  0.477348813374158  0.524563086760454  1.0000
  C   C237      1.0  0.667810970720981  0.4388980432446036  0.49724026493211276  1.0000
  C   C238      1.0  0.6614028735936687  0.5068642735815673  0.4770586353539012  1.0000
  C   C239      1.0  0.6909112620643979  0.48628123861556455  0.5628716977282457  1.0000
  C   C240      1.0  0.6349227609915391  0.477416895466149  0.5610747862360628  1.0000
  H   H261      1.0  0.6700040972432584  0.4159789777006924  0.5317505000133663  1.0000
  H   H262      1.0  0.689179028508922  0.4380694547807099  0.46888469682022427  1.0000
  H   H263      1.0  0.6476003716354554  0.43106875891204166  0.46839647241107424  1.0000
  H   H264      1.0  0.6829128585928267  0.5078462364316171  0.44908739708731316  1.0000
  H   H265      1.0  0.6411935048638565  0.5009609642672318  0.446982916578199  1.0000
  H   H266      1.0  0.6582081748888733  0.5362542593025817  0.4961594684626697  1.0000
  H   H267      1.0  0.7130495277089106  0.48519694725753426  0.5369027855056004  1.0000
  H   H268      1.0  0.6930275137096017  0.4652465782452064  0.6001709136363076  1.0000
  H   H269      1.0  0.6890817911057259  0.5156557217971331  0.5826961907572802  1.0000
  H   H270      1.0  0.6138566241310822  0.47077581977733346  0.533607778888038  1.0000
  H   H271      1.0  0.6312198937391378  0.5060727838822822  0.5824832751433837  1.0000
  H   H272      1.0  0.6358320012784551  0.4555084976974019  0.5973361928625286  1.0000
  N   N13       1.0  0.7272032289194132  0.33527502656262553  0.34822917075473564  1.0000
  C   C241      1.0  0.7442576869905803  0.30208983541085666  0.37354664928527526  1.0000
  C   C242      1.0  0.7083619194024663  0.35366641874883553  0.39544432785707845  1.0000
  C   C243      1.0  0.7063476799706752  0.32166724893098575  0.2999258305109882  1.0000
  C   C244      1.0  0.7497856297547142  0.36372949989151726  0.3239111279571535  1.0000
  H   H273      1.0  0.7278868519174143  0.27985808649132315  0.39181010154819806  1.0000
  H   H274      1.0  0.7601671530332443  0.31114706681726345  0.4103053195851734  1.0000
  H   H275      1.0  0.7588210478072875  0.28769861272622893  0.3391119955362174  1.0000
  H   H276      1.0  0.6958962677203028  0.3794626017078326  0.37807797479474314  1.0000
  H   H277      1.0  0.6902363580619002  0.333495000325681  0.4133199309721263  1.0000
  H   H278      1.0  0.7232413810785628  0.36356008443485477  0.43325615287081504  1.0000
  H   H279      1.0  0.6896319631508376  0.29938920620142667  0.31641863271804155  1.0000
  H   H280      1.0  0.7197106539407387  0.30817549485897916  0.2628738249462101  1.0000
  H   H281      1.0  0.6922402416747045  0.34570712924118063  0.28109685187263866  1.0000
  H   H282      1.0  0.7658532968944404  0.37463618335425336  0.3591965485746904  1.0000
  H   H283      1.0  0.7376440376088738  0.38923998257729514  0.304770091217799  1.0000
  H   H284      1.0  0.7644153479351822  0.3508994941706726  0.28811789889509715  1.0000
  N   N14       1.0  0.439235071540687  0.47591897144578305  0.5817256859364782  1.0000
  C   C245      1.0  0.4654234192124694  0.5028864532043151  0.5702482324107964  1.0000
  C   C246      1.0  0.4131151654359427  0.4850791490117532  0.5411583577241357  1.0000
  C   C247      1.0  0.42888330548075204  0.47994058044660964  0.6443149064565357  1.0000
  C   C248      1.0  0.449589645932613  0.4358897912555133  0.5710270500778553  1.0000
  H   H285      1.0  0.4858259352837828  0.49631105932597075  0.5991897805213391  1.0000
  H   H286      1.0  0.45871007803869995  0.5333482247959644  0.5787413182018203  1.0000
  H   H287      1.0  0.4734307470783759  0.5009479485925677  0.5231212135257102  1.0000
  H   H288      1.0  0.40532926006540027  0.5153757875816807  0.5468867870493158  1.0000
  H   H289      1.0  0.4198827024331689  0.48156849573886445  0.4935342779707652  1.0000
  H   H290      1.0  0.39262312334582006  0.4660507512459548  0.5499063564464424  1.0000
  H   H291      1.0  0.40918180903143603  0.4597780116620966  0.6546549415176621  1.0000
  H   H292      1.0  0.4207816161270681  0.5098287035917011  0.6536355389776785  1.0000
  H   H293      1.0  0.4481727279214221  0.47348262394471385  0.6760088298262068  1.0000
  H   H294      1.0  0.43032315657022036  0.4147076552955609  0.579300946749029  1.0000
  H   H295      1.0  0.46953474677297435  0.42815421529104014  0.6005263589039954  1.0000
  H   H296      1.0  0.45777867231569924  0.43202140489021845  0.5242477645133476  1.0000
  N   N15       1.0  0.39845077177290594  0.7110723849358451  0.6761503164249472  1.0000
  C   C249      1.0  0.39897845264655707  0.7095927852398586  0.6102305014228746  1.0000
  C   C250      1.0  0.3727007841658098  0.6864025300322062  0.6988868005650208  1.0000
  C   C251      1.0  0.3935684778565125  0.7513027248655201  0.6957712561438446  1.0000
  C   C252      1.0  0.42856289410880866  0.697091647345827  0.6999217186320127  1.0000
  H   H297      1.0  0.418261771515665  0.7276901974333304  0.59157254810594  1.0000
  H   H298      1.0  0.3766057017169837  0.7198581691300143  0.5907476604891571  1.0000
  H   H299      1.0  0.4027081646417524  0.6796896257490199  0.59389898692152  1.0000
  H   H300      1.0  0.3717236224026165  0.6868769630849139  0.7484551484922005  1.0000
  H   H301      1.0  0.3496005898113886  0.6960798830173922  0.6820157238238084  1.0000
  H   H302      1.0  0.37566044704309065  0.6557284537609208  0.6854549776578224  1.0000
  H   H303      1.0  0.37095565418975235  0.7629222806590581  0.679270127260252  1.0000
  H   H304      1.0  0.41252185437438754  0.770862950151511  0.6796149808824776  1.0000
  H   H305      1.0  0.3930924149663877  0.7534421150644779  0.7452970882545197  1.0000
  H   H306      1.0  0.4487459516268619  0.7134350019405414  0.6809548245755772  1.0000
  H   H307      1.0  0.4322268953676346  0.6661328191468205  0.6891546898941513  1.0000
  H   H308      1.0  0.42960243706985596  0.6996885627424204  0.7493219012707361  1.0000
  N   N16       1.0  0.1444478297082447  0.41723949790488635  0.40151557324989967  1.0000
  C   C253      1.0  0.15141713574747998  0.40979422942855986  0.3379824533525674  1.0000
  C   C254      1.0  0.12925713974183053  0.45525294796526933  0.40748434384989946  1.0000
  C   C255      1.0  0.17381704965505612  0.41702143996377916  0.4361612807901833  1.0000
  C   C256      1.0  0.12332930958728015  0.3866882329891574  0.4244849066812404  1.0000
  H   H309      1.0  0.16274805506459047  0.38117877590725485  0.33188954168927975  1.0000
  H   H310      1.0  0.1673313306624204  0.4322998231540621  0.31918878471368317  1.0000
  H   H311      1.0  0.12971261888317698  0.4097325323757373  0.31055596959799336  1.0000
  H   H312      1.0  0.14469205520365258  0.4791523771212946  0.39140899240029087  1.0000
  H   H313      1.0  0.10723878834416412  0.45650667894783525  0.3812064670154705  1.0000
  H   H314      1.0  0.12315899418559867  0.4615815576778076  0.4546980461559335  1.0000
  H   H315      1.0  0.1692373399858594  0.42136466307725606  0.4845649265509239  1.0000
  H   H316      1.0  0.19001285185516503  0.4405733774513556  0.42164998992162583  1.0000
  H   H317      1.0  0.1862501768193136  0.3890793589696768  0.431178274193237  1.0000
  H   H318      1.0  0.10118414977481649  0.38549245469756926  0.3986824177876084  1.0000
  H   H319      1.0  0.11700692535981654  0.3916887123264362  0.4719889114515484  1.0000
  H   H320      1.0  0.13429057553404414  0.3576921512800512  0.4215044355338881  1.0000
  N   N17       1.0  0.9348366635792957  0.6478961855904369  0.25810439857434636  1.0000
  C   C257      1.0  0.9321383724434166  0.6505120012114933  0.1924178508018728  1.0000
  C   C258      1.0  0.9598765380377491  0.6206279956615424  0.27401213028492266  1.0000
  C   C259      1.0  0.9048649228154626  0.6340375427934957  0.28351302447061855  1.0000
  C   C260      1.0  0.9425929544175361  0.686392367607206  0.2826833192405436  1.0000
  H   H321      1.0  0.9542986481853799  0.6608657071049203  0.17153804720655774  1.0000
  H   H322      1.0  0.913441352061199  0.6709180233636128  0.17871478209782565  1.0000
  H   H323      1.0  0.9261972630415167  0.6220536362590172  0.17215808807486851  1.0000
  H   H324      1.0  0.962231603784658  0.6178432212632412  0.3233676226396238  1.0000
  H   H325      1.0  0.95504441717528  0.5912467860098577  0.2560317769229007  1.0000
  H   H326      1.0  0.9829462976698999  0.6305736077966425  0.25650326807878915  1.0000
  H   H327      1.0  0.9060250836872783  0.6315867662529162  0.3330567370469599  1.0000
  H   H328      1.0  0.8984445839616584  0.6048537939597877  0.2663140941822663  1.0000
  H   H329      1.0  0.8853019874071458  0.6537632286372953  0.2723709254442533  1.0000
  H   H330      1.0  0.944945859792964  0.6853922608332024  0.33216944651594754  1.0000
  H   H331      1.0  0.9242902789322471  0.707882512079402  0.2715290873757265  1.0000
  H   H332      1.0  0.9652842723280793  0.6974750756117568  0.26475015587443523  1.0000
  N   N18       1.0  0.9180596531431017  0.10183363309081606  0.1747095001470247  1.0000
  C   C261      1.0  0.8943954164706456  0.11947283768664319  0.13526503186060698  1.0000
  C   C262      1.0  0.9411444434305687  0.13149212540086053  0.19291372625002665  1.0000
  C   C263      1.0  0.9342658441966246  0.07058894858931652  0.14249613332972122  1.0000
  C   C264      1.0  0.9024981800408342  0.08589167167123968  0.22837825420544544  1.0000
  H   H333      1.0  0.877171048945291  0.09760027769465474  0.11882590454648877  1.0000
  H   H334      1.0  0.905380428753248  0.1330798828730333  0.09535465559856737  1.0000
  H   H335      1.0  0.8810106439286866  0.14226822076218992  0.1588573350073483  1.0000
  H   H336      1.0  0.9590637189643864  0.11910386251661209  0.22329864540013417  1.0000
  H   H337      1.0  0.9538388081216084  0.1437218719409019  0.15368363983142852  1.0000
  H   H338      1.0  0.9296922809679246  0.15568597872842171  0.21697181189628076  1.0000
  H   H339      1.0  0.9175486109493107  0.04802539323358257  0.12663878047903898  1.0000
  H   H340      1.0  0.9520503423241038  0.05638014584547335  0.17120403090178682  1.0000
  H   H341      1.0  0.9470313054291167  0.08192663717386273  0.10275066189805249  1.0000
  H   H342      1.0  0.8904251051281055  0.1089199604102522  0.25415276227580585  1.0000
  H   H343      1.0  0.919640129389325  0.0723976799995163  0.2592657332755238  1.0000
  H   H344      1.0  0.8846919486158675  0.06361790627130559  0.2163466444062814  1.0000
  N   N19       1.0  0.6367920256506934  0.1958836831538431  0.07533392302957354  1.0000
  C   C265      1.0  0.661914910519156  0.22528073781168476  0.07986366446891746  1.0000
  C   C266      1.0  0.6061721647728364  0.21423401676573778  0.08561098447263427  1.0000
  C   C267      1.0  0.6419637333606384  0.16557467529091782  0.12071675717919139  1.0000
  C   C268      1.0  0.6372007588531177  0.1784065818090609  0.015206615820227976  1.0000
  H   H345      1.0  0.6853901769901901  0.21210857351507445  0.07379488005082235  1.0000
  H   H346      1.0  0.6619353998901565  0.23939291238241936  0.12450547045612237  1.0000
  H   H347      1.0  0.6591597026960418  0.24835437804416932  0.04573084640954561  1.0000
  H   H348      1.0  0.5866070426380627  0.19291781158804844  0.0826494056301359  1.0000
  H   H349      1.0  0.6050630205433348  0.2279346054162932  0.13037197945646706  1.0000
  H   H350      1.0  0.6014370487805355  0.23737541528494258  0.05234745134065899  1.0000
  H   H351      1.0  0.6230357250165492  0.1433982960640463  0.11976721270975177  1.0000
  H   H352      1.0  0.6430022201222565  0.1779493670041589  0.1664943111786812  1.0000
  H   H353      1.0  0.6645252688985556  0.15041733262934767  0.11309991552002274  1.0000
  H   H354      1.0  0.6189304185596185  0.1554804533824233  0.010678611715379427  1.0000
  H   H355      1.0  0.660179825669363  0.1648068606129722  0.005634587996993234  1.0000
  H   H356      1.0  0.6328911548646085  0.20028357730890722  0.9798363384852189  1.0000
  N   N20       1.0  0.3974131014026704  0.9490715657501438  0.83105278094199  1.0000
  C   C269      1.0  0.3806520792449901  0.9238058081473247  0.8738054858557589  1.0000
  C   C270      1.0  0.43125302730827264  0.9410512124153626  0.8340042503368467  1.0000
  C   C271      1.0  0.3919766976449656  0.9900286785972895  0.846139956164078  1.0000
  C   C272      1.0  0.38578217455380487  0.9413037585595924  0.7701766577808263  1.0000
  H   H357      1.0  0.3896282391682268  0.9278122916912449  0.9199203158329001  1.0000
  H   H358      1.0  0.38347304180225134  0.8927620129244653  0.8623784023344122  1.0000
  H   H359      1.0  0.3551179693821655  0.9297699307708266  0.8741383892162036  1.0000
  H   H360      1.0  0.43614109137768386  0.9103328685153148  0.8230627387583118  1.0000
  H   H361      1.0  0.4446073435522555  0.9595356689260021  0.8021352060651464  1.0000
  H   H362      1.0  0.4406539850843491  0.946781669094962  0.8795869186992537  1.0000
  H   H363      1.0  0.36665495223384503  0.9969560357792612  0.8458765909383025  1.0000
  H   H364      1.0  0.40344348118353013  0.009799585537183964  0.8134285870422653  1.0000
  H   H365      1.0  0.40122978277856186  0.9972485238536087  0.8911692766322654  1.0000
  H   H366      1.0  0.3972501313712906  0.9604165894959059  0.7365653202592394  1.0000
  H   H367      1.0  0.3601950710778441  0.9465341176100177  0.7671227127289891  1.0000
  H   H368      1.0  0.3898416982183296  0.9108100751894104  0.7568238152405912  1.0000
  N   N21       1.0  0.21091350246749396  0.8129927846254378  0.03960235133573441  1.0000
  C   C273      1.0  0.23363789656145678  0.839326052863607  0.0685026489992062  1.0000
  C   C274      1.0  0.21842009506767196  0.8099010963273904  0.9753890766089173  1.0000
  C   C275      1.0  0.17893768391341192  0.8282128519105777  0.04690067476470139  1.0000
  C   C276      1.0  0.21279107971305966  0.7744386527821073  0.06772620440679167  1.0000
  H   H369      1.0  0.2287210841721475  0.8423226078321674  0.11703875569977229  1.0000
  H   H370      1.0  0.2330802260385273  0.8686504312014427  0.048106906101881064  1.0000
  H   H371      1.0  0.25797327457629876  0.8283368499726456  0.06390921491788037  1.0000
  H   H372      1.0  0.2028364882462252  0.7886519848852498  0.9526673257533008  1.0000
  H   H373      1.0  0.2162402575721671  0.8382172936132676  0.9522289327054975  1.0000
  H   H374      1.0  0.24288217268716408  0.800000009083442  0.9686829508681446  1.0000
  H   H375      1.0  0.1723774678449398  0.830314016264669  0.09488506397486174  1.0000
  H   H376      1.0  0.16129423543529886  0.8088234830727661  0.025813879141471482  1.0000
  H   H377      1.0  0.1765280664961339  0.857398980747864  0.02662292875300509  1.0000
  H   H378      1.0  0.23682998379505638  0.7624661780188214  0.06464613625893789  1.0000
  H   H379      1.0  0.19657911356900262  0.7534553839233932  0.045979070886999145  1.0000
  H   H380      1.0  0.20625377128493583  0.775352224880124  0.11578767644571751  1.0000
  N   N22       1.0  0.45742412993331116  0.28803750293449976  0.29980859854398206  1.0000
  C   C277      1.0  0.46815050637357764  0.2800625652146139  0.36130692072740006  1.0000
  C   C278      1.0  0.4454984838902766  0.32793167311383087  0.29642535419678395  1.0000
  C   C279      1.0  0.4322384803459843  0.26049102821419146  0.2837127336630677  1.0000
  C   C280      1.0  0.4837544410251764  0.28378355078849865  0.257692539099982  1.0000
  H   H381      1.0  0.48783011073990085  0.29950899791213575  0.37438287693586436  1.0000
  H   H382      1.0  0.4764182582789138  0.24986368245182874  0.3661826373792528  1.0000
  H   H383      1.0  0.44891543516237975  0.28407383798630126  0.39423336018206073  1.0000
  H   H384      1.0  0.43685514559640676  0.3348862500655404  0.25085584883353745  1.0000
  H   H385      1.0  0.42573081928805545  0.33233584756185863  0.32793645958429063  1.0000
  H   H386      1.0  0.4640098949220531  0.349430751278814  0.3079911780870977  1.0000
  H   H387      1.0  0.42338322503659004  0.2658379368409634  0.23779375094890715  1.0000
  H   H388      1.0  0.4120940384800368  0.2627077173665677  0.3148308683117045  1.0000
  H   H389      1.0  0.44048144950437984  0.2301233548930632  0.28550606222018676  1.0000
  H   H390      1.0  0.47630810114878047  0.2891153366136718  0.210853583013488  1.0000
  H   H391      1.0  0.4937423122354712  0.2542602703092701  0.25943759863934224  1.0000
  H   H392      1.0  0.5029930335542898  0.3046082740778526  0.2674780313579889  1.0000
  N   N23       1.0  0.20080485028754455  0.125172814905401  0.9434509064340171  1.0000
  C   C281      1.0  0.22349435929985173  0.12304505721597625  0.893834933599959  1.0000
  C   C282      1.0  0.21652533105969163  0.1413374563736334  0.9966663260889931  1.0000
  C   C283      1.0  0.1888448893441717  0.08600819242938185  0.9573657143503809  1.0000
  C   C284      1.0  0.17449002773916986  0.1502156282977248  0.9259537657824621  1.0000
  H   H393      1.0  0.21270846186677336  0.1101933836915221  0.8532615754397267  1.0000
  H   H394      1.0  0.24395259205228317  0.10496459309837114  0.9059297921943886  1.0000
  H   H395      1.0  0.23256578770446512  0.1521168304379001  0.8811963576380865  1.0000
  H   H396      1.0  0.20012528003271485  0.14341598340023975  0.03506279915338606  1.0000
  H   H397      1.0  0.2365588177287303  0.12297178793655418  0.010694567057961013  1.0000
  H   H398      1.0  0.22598000988724934  0.17081703406845106  0.987664907366012  1.0000
  H   H399      1.0  0.20812907136197792  0.06636176435077724  0.9708265786792009  1.0000
  H   H400      1.0  0.17698554062875302  0.07281069166551536  0.918104601658864  1.0000
  H   H401      1.0  0.171447437935852  0.0864898496949158  0.9942774227490496  1.0000
  H   H402      1.0  0.18248834428475136  0.18021925531679567  0.916232355153125  1.0000
  H   H403      1.0  0.15633537236675427  0.15162564458953576  0.9614863538356921  1.0000
  H   H404      1.0  0.16274189996830243  0.13930229387638926  0.8849831920268862  1.0000
  N   N24       1.0  0.474181046909039  0.8883511445774784  0.13852223549656073  1.0000
  C   C285      1.0  0.46468392397729646  0.9238040485522879  0.1700456653843594  1.0000
  C   C286      1.0  0.46083876980426247  0.8543555845516059  0.1696021286996734  1.0000
  C   C287      1.0  0.5086801211346351  0.8856967982046919  0.13804833241710468  1.0000
  C   C288      1.0  0.4624261848320596  0.8895223502613333  0.07650103611245807  1.0000
  H   H405      1.0  0.4387982372501483  0.9266661675775136  0.17124134384522738  1.0000
  H   H406      1.0  0.4741513939696581  0.9500093550042809  0.1476345491316413  1.0000
  H   H407      1.0  0.473560688609117  0.9242376195485883  0.21676324539100755  1.0000
  H   H408      1.0  0.46911308411743297  0.8525950727411991  0.21661412125514845  1.0000
  H   H409      1.0  0.43482819225739255  0.8549722030810417  0.16987228170835666  1.0000
  H   H410      1.0  0.467627512726533  0.8271107770201166  0.14723996690980168  1.0000
  H   H411      1.0  0.5166198569438439  0.8594558363439755  0.1138482329625834  1.0000
  H   H412      1.0  0.5183336462988947  0.8841542759641887  0.18413949199166524  1.0000
  H   H413      1.0  0.5196286182980803  0.9112781493417811  0.11604314685718231  1.0000
  H   H414      1.0  0.4696467897877003  0.8635791459043329  0.051020174373875404  1.0000
  H   H415      1.0  0.47139363394401296  0.9152808748093176  0.052066343282932026  1.0000
  H   H416      1.0  0.43642107447214756  0.8906306561408728  0.07504597443374816  1.0000
  N   N25       1.0  0.2673271541191885  0.35025392119892773  0.5179380000876873  1.0000
  C   C289      1.0  0.2341598127256314  0.3382710277035106  0.5216019410251461  1.0000
  C   C290      1.0  0.28716269821744134  0.3158337202398217  0.5105921619818217  1.0000
  C   C291      1.0  0.2762171858923587  0.3706779423468619  0.5732907595898123  1.0000
  C   C292      1.0  0.271780422395723  0.3763816479639589  0.46634166955544903  1.0000
  H   H417      1.0  0.21860922444104516  0.3636550125966462  0.5272638966566244  1.0000
  H   H418      1.0  0.22996528368386476  0.31847887877007935  0.5599796316263239  1.0000
  H   H419      1.0  0.2266623541307361  0.3227603845835481  0.4805405611748772  1.0000
  H   H420      1.0  0.28449743953373685  0.29540141714214985  0.548641761323148  1.0000
  H   H421      1.0  0.2814413967336614  0.299873647082622  0.4689244634479728  1.0000
  H   H422      1.0  0.31226966316571325  0.3240209447097917  0.5080376983262614  1.0000
  H   H423      1.0  0.2613048357197394  0.39642845921569303  0.5806998891566778  1.0000
  H   H424      1.0  0.3009157598217661  0.38085973861840017  0.5715561755856604  1.0000
  H   H425      1.0  0.273927360762216  0.3516960937263046  0.6131742642188093  1.0000
  H   H426      1.0  0.26495051229821365  0.36206084901914565  0.42379531692064154  1.0000
  H   H427      1.0  0.2966927417637408  0.3855454299089893  0.4618805530712152  1.0000
  H   H428      1.0  0.25760488733156955  0.403073256560407  0.47106469083830976  1.0000
  N   N26       1.0  0.2687416195470634  0.11641778229928558  0.5782932737991588  1.0000
  C   C293      1.0  0.2787964960824709  0.09192111149493565  0.6287235021714355  1.0000
  C   C294      1.0  0.26061119774794417  0.09169307282595418  0.5268063447363304  1.0000
  C   C295      1.0  0.2944337630644515  0.1430025597109681  0.5613575377840216  1.0000
  C   C296      1.0  0.24111554900464596  0.13903637458805254  0.5960706377406  1.0000
  H   H429      1.0  0.28599628290822265  0.10963982712692455  0.667863237270466  1.0000
  H   H430      1.0  0.299039881846077  0.07363771468415647  0.616275911445743  1.0000
  H   H431      1.0  0.25965250772688947  0.07226665984184179  0.6437961274002402  1.0000
  H   H432      1.0  0.252296895160071  0.10924047202359222  0.48835118421864665  1.0000
  H   H433      1.0  0.28121615423027996  0.07504472987424693  0.5111973139001682  1.0000
  H   H434      1.0  0.24177650733531084  0.07064414489703365  0.5384473827666467  1.0000
  H   H435      1.0  0.2876634993389491  0.1617354638181231  0.5231645109392206  1.0000
  H   H436      1.0  0.3156204162355479  0.126878696434666  0.5476570737092447  1.0000
  H   H437      1.0  0.30145706275314754  0.16205860081970944  0.5991396122355731  1.0000
  H   H438      1.0  0.23355539568670802  0.1587974425447305  0.5596735283007911  1.0000
  H   H439      1.0  0.24605126599097332  0.15676955326541922  0.6364316534732909  1.0000
  H   H440      1.0  0.2209156096628201  0.11984249833836347  0.6071346448702301  1.0000
  N   N27       1.0  0.7526298500868448  0.8443492870106426  0.07317400832818155  1.0000
  C   C297      1.0  0.7455546549644988  0.8172297959047184  0.024046363143485072  1.0000
  C   C298      1.0  0.786220549909584  0.854684149318568  0.07173321850855152  1.0000
  C   C299      1.0  0.7450266904868107  0.8257498499668249  0.13082334570215948  1.0000
  C   C300      1.0  0.7337358655270306  0.8796463187312763  0.06607892851084451  1.0000
  H   H441      1.0  0.7496764802879731  0.8306976998196411  0.9797821939093209  1.0000
  H   H442      1.0  0.7207850356002166  0.8073872187521135  0.02516185914111535  1.0000
  H   H443      1.0  0.760380199683988  0.7910025640067236  0.026485064747292952  1.0000
  H   H444      1.0  0.8012040511941884  0.8286243692065286  0.07538744577885681  1.0000
  H   H445      1.0  0.7925676609526872  0.8694432217897679  0.02928537353368199  1.0000
  H   H446      1.0  0.7925918273268003  0.8746312484665513  0.10871136639152845  1.0000
  H   H447      1.0  0.7197073983896801  0.8183040591274554  0.1337941795769848  1.0000
  H   H448      1.0  0.7505932197683195  0.8449830319322759  0.1691359217624655  1.0000
  H   H449      1.0  0.7581392541999933  0.798349021144257  0.13686560194901465  1.0000
  H   H450      1.0  0.7384723955217343  0.9007675307088926  0.10242213966021452  1.0000
  H   H451      1.0  0.7082532989833199  0.8729566386852005  0.06718511901689994  1.0000
  H   H452      1.0  0.7388895409587461  0.8944023075993924  0.02295981701045413  1.0000
  N   N28       1.0  0.4886884489414753  0.6668703243627423  0.9485195514423086  1.0000
  C   C301      1.0  0.4607089523915702  0.6773261290975101  0.9835016063260477  1.0000
  C   C302      1.0  0.48669037289779143  0.6256687160411883  0.9316768054596581  1.0000
  C   C303      1.0  0.5170330971888054  0.6736649032080175  0.9848702943785941  1.0000
  C   C304      1.0  0.49027087117162454  0.6908420295709117  0.8939465002639474  1.0000
  H   H453      1.0  0.4609086248408391  0.7084555548600977  0.9957241437130142  1.0000
  H   H454      1.0  0.4590874512282513  0.6604640246233301  0.025707574753425222  1.0000
  H   H455      1.0  0.4388887164480783  0.6716598799671888  0.9578781722148894  1.0000
  H   H456      1.0  0.5073812531907808  0.616754152894963  0.9050738386941884  1.0000
  H   H457      1.0  0.4852802546102731  0.606710163423198  0.9717471965763703  1.0000
  H   H458      1.0  0.4654950358443205  0.6196947090463527  0.904093011969403  1.0000
  H   H459      1.0  0.5167491884872011  0.6560210909327675  0.026423778436811318  1.0000
  H   H460      1.0  0.5190182751016995  0.7044346494180775  0.9984903791541095  1.0000
  H   H461      1.0  0.5386901735313683  0.6666036401669901  0.9597210356410519  1.0000
  H   H462      1.0  0.5112484468078272  0.6839472710093826  0.8666940839164758  1.0000
  H   H463      1.0  0.49147183749907875  0.722098509640968  0.9049534390396335  1.0000
  H   H464      1.0  0.4693305780409345  0.6862704272598713  0.8652935483722103  1.0000
  N   N29       1.0  0.9557869155790718  0.29672488418574716  0.3648650334261545  1.0000
  C   C305      1.0  0.926231879179586  0.2751309329887727  0.3560177506998149  1.0000
  C   C306      1.0  0.9489473775457127  0.33545525946904675  0.3889636104866819  1.0000
  C   C307      1.0  0.9720926436709556  0.30067396899250054  0.30701397970957045  1.0000
  C   C308      1.0  0.9757841193146437  0.2756004493876818  0.40749831325720204  1.0000
  H   H465      1.0  0.910487098862228  0.29006443262646203  0.32411455350220436  1.0000
  H   H466      1.0  0.9131710075816124  0.2720139402264447  0.39856169883864917  1.0000
  H   H467      1.0  0.9305393600070978  0.2455763111952777  0.3386450526951432  1.0000
  H   H468      1.0  0.9705107647652119  0.3534271939519383  0.39260475755509544  1.0000
  H   H469      1.0  0.9321002130681955  0.351237429454755  0.3602485528245367  1.0000
  H   H470      1.0  0.9386681071453907  0.33346376817892  0.4344293171859818  1.0000
  H   H471      1.0  0.9777761404378593  0.27192778920411614  0.2878365910657416  1.0000
  H   H472      1.0  0.9944532846500355  0.31703410304138885  0.31189537335067474  1.0000
  H   H473      1.0  0.9576059380144053  0.31645460525679514  0.2739106105721062  1.0000
  H   H474      1.0  0.9981423838256777  0.29131228759718825  0.41595604101812667  1.0000
  H   H475      1.0  0.9817782485711678  0.2464496029604774  0.39059972814257127  1.0000
  H   H476      1.0  0.9639100296998625  0.2714765081957014  0.45127851440039546  1.0000
  N   N30       1.0  0.5594098193454159  0.07965667633919349  0.31422341523948477  1.0000
  C   C309      1.0  0.5779768262266096  0.07573999838051271  0.25896965721789633  1.0000
  C   C310      1.0  0.5265517370444134  0.08795895590300473  0.29859039613301824  1.0000
  C   C311      1.0  0.572350984406332  0.1116188175610533  0.35041573361154077  1.0000
  C   C312      1.0  0.5607753492853128  0.04337244907630167  0.34893120508699094  1.0000
  H   H477      1.0  0.6027230117606591  0.06834213474271067  0.2688221364673883  1.0000
  H   H478      1.0  0.5778958664057234  0.10289180306407064  0.2323424601587713  1.0000
  H   H479      1.0  0.5683086567888368  0.052534266022347786  0.2300452495272356  1.0000
  H   H480      1.0  0.5120540862979726  0.09296044360568412  0.33910605255098064  1.0000
  H   H481      1.0  0.524790859506729  0.11408836832475644  0.2699407771045024  1.0000
  H   H482      1.0  0.5155967800519233  0.06364493303872032  0.2735250582908099  1.0000
  H   H483      1.0  0.571524653638635  0.13953403870641412  0.32587658050647367  1.0000
  H   H484      1.0  0.5971492233049417  0.1065030126763209  0.36288452495866586  1.0000
  H   H485      1.0  0.5589235725499309  0.11550054878270721  0.392562624212162  1.0000
  H   H486      1.0  0.5466648918099347  0.04531004942324257  0.39054926114410393  1.0000
  H   H487      1.0  0.5851985622860018  0.036254442460783354  0.36171983981013417  1.0000
  H   H488      1.0  0.5514596616206586  0.01850179195540891  0.32283758167612026  1.0000
  N   N31       1.0  0.07398871476644478  0.6025869699990204  0.13861688676124628  1.0000
  C   C313      1.0  0.10552428780787772  0.6001001519065632  0.1652919753686195  1.0000
  C   C314      1.0  0.05023090847859746  0.6033230476274354  0.18638297489774303  1.0000
  C   C315      1.0  0.06836016709060999  0.5687831347306557  0.09981016570589185  1.0000
  C   C316      1.0  0.07180081110987224  0.638331967477579  0.10300205965348219  1.0000
  H   H489      1.0  0.12399656778795198  0.5994964613144094  0.13034860667854042  1.0000
  H   H490      1.0  0.10797066402199813  0.5735754672028661  0.19301023388565297  1.0000
  H   H491      1.0  0.11056740310038753  0.6253385515725498  0.19462225120290255  1.0000
  H   H492      1.0  0.02627121228236473  0.6064565366249298  0.16783696276906412  1.0000
  H   H493      1.0  0.05058657336273819  0.5763249240842837  0.21318439988187476  1.0000
  H   H494      1.0  0.054464155799997194  0.6277877500613736  0.2174507345224337  1.0000
  H   H495      1.0  0.04484119076963577  0.5699819199070009  0.07871424456450549  1.0000
  H   H496      1.0  0.06985727779530304  0.541278887204424  0.12555629072680619  1.0000
  H   H497      1.0  0.08575259358971722  0.5675255047136932  0.06290927791600986  1.0000
  H   H498      1.0  0.04788736456371745  0.6423876841008564  0.08467579622155874  1.0000
  H   H499      1.0  0.08825672028526421  0.637944513267912  0.0647579801271232  1.0000
  H   H500      1.0  0.07751523024850658  0.6640923528751531  0.13029362292482882  1.0000
  N   N32       1.0  0.2124666374421576  0.6031184854729  0.7000824916250695  1.0000
  C   C317      1.0  0.20332495666194533  0.6037686153181576  0.6364236775142977  1.0000
  C   C318      1.0  0.24313480936712867  0.622520396501236  0.7075604806325213  1.0000
  C   C319      1.0  0.21463243953389616  0.5626696710243122  0.7207665606401397  1.0000
  C   C320      1.0  0.18876490300410526  0.6235465873292995  0.7358251261054786  1.0000
  H   H501      1.0  0.18043873910555655  0.5889956637098268  0.6289416926021513  1.0000
  H   H502      1.0  0.22082586910398105  0.5888966744922753  0.6080663795632895  1.0000
  H   H503      1.0  0.20114376841355233  0.6337958061321616  0.619213654381543  1.0000
  H   H504      1.0  0.24235462578473518  0.6532011278540253  0.6929617452967977  1.0000
  H   H505      1.0  0.2508575959117952  0.6220779253981622  0.7550853341675807  1.0000
  H   H506      1.0  0.2616797380268676  0.6078669268237675  0.681351173324856  1.0000
  H   H507      1.0  0.22198309722552353  0.5611083599838328  0.768418240418628  1.0000
  H   H508      1.0  0.23230585207306298  0.5463683951449695  0.6947525670291839  1.0000
  H   H509      1.0  0.19192104192297152  0.5471097162639355  0.7161470544563149  1.0000
  H   H510      1.0  0.16532224114088456  0.609686559921575  0.7317621330270186  1.0000
  H   H511      1.0  0.18644810662989816  0.6541605108839668  0.7213324992362651  1.0000
  H   H512      1.0  0.19510528387801646  0.6240104703756812  0.7840676204957626  1.0000
