data_image0
_chemical_formula_structural       FeS2FeS2FeSFeS3FeS2FeS2FeSFeS3FeS2FeS2FeSFeS3FeS2FeS2FeSFeS3FeS2FeS2FeSFeS3FeS2FeS2FeSFeS3FeS2FeS2FeSFeS3FeS2FeS2FeSFeS3FeS2FeS2FeSFeS3FeS2FeS2FeSFeS3FeS2FeS2FeSFeS3FeS2FeS2FeSFeS3C6H4C6H4C6H4C6H4C6H4C6H4C6H4C6H4C6H4C6H4C6H4C6H4C6H4C6H4C6H4C6H4C6H4C6H4C6H4C6H4C6H4C6H4C6H4C6H4FeS2FeS2FeSFeS3FeS2FeS2FeSFeS3FeS2FeS2FeSFeS3FeS2FeS2FeSFeS3FeS2FeS2FeSFeS3FeS2FeS2FeSFeS3FeS2FeS2FeSFeS3FeS2FeS2FeSFeS3FeS2FeS2FeSFeS3FeS2FeS2FeSFeS3FeS2FeS2FeSFeS3FeS2FeS2FeSFeS3C6H4C6H4C6H4C6H4C6H4C6H4C6H4C6H4C6H4C6H4C6H4C6H4C6H4C6H4C6H4C6H4C6H4C6H4C6H4C6H4C6H4C6H4C6H4C6H4NC4H12NC4H12NC4H12NC4H12NC4H12NC4H12NC4H12NC4H12NC4H12NC4H12NC4H12NC4H12NC4H12NC4H12NC4H12NC4H12NC4H12NC4H12NC4H12NC4H12NC4H12NC4H12NC4H12NC4H12NC4H12NC4H12NC4H12NC4H12NC4H12NC4H12NC4H12NC4H12NC4H12NC4H12NC4H12NC4H12NC4H12NC4H12NC4H12NC4H12NC4H12NC4H12NC4H12NC4H12NC4H12NC4H12NC4H12NC4H12
_chemical_formula_sum              "Fe96 S192 C480 H768 N48"
_cell_length_a       44.6067408220017
_cell_length_b       49.92512407001485
_cell_length_c       23.823460419128583
_cell_angle_alpha    89.87258316429032
_cell_angle_beta     89.76989515506068
_cell_angle_gamma    89.61293162904654

_space_group_name_H-M_alt    "P 1"
_space_group_IT_number       1

loop_
  _space_group_symop_operation_xyz
  'x, y, z'

loop_
  _atom_site_type_symbol
  _atom_site_label
  _atom_site_symmetry_multiplicity
  _atom_site_fract_x
  _atom_site_fract_y
  _atom_site_fract_z
  _atom_site_occupancy
  Fe  Fe1       1.0  0.546724239669233  0.7991954660471029  0.43959705129082205  1.0000
  S   S1        1.0  0.5317329210918782  0.8197902746937306  0.3607928783379362  1.0000
  S   S2        1.0  0.5171309899362087  0.7907019965872033  0.5137936697477989  1.0000
  Fe  Fe2       1.0  0.1257603787510234  0.8862978300265655  0.5879106290728171  1.0000
  S   S3        1.0  0.13069261337106128  0.8532534219782547  0.5252275227481543  1.0000
  S   S4        1.0  0.1675473221871023  0.909544937868756  0.6067735546976026  1.0000
  Fe  Fe3       1.0  0.08775067479767422  0.8692742602769429  0.489981685822133  1.0000
  S   S5        1.0  0.08127638347059646  0.8730030737238854  0.39679943225023373  1.0000
  Fe  Fe4       1.0  0.5623048238461847  0.7904529205256879  0.3178256533087527  1.0000
  S   S6        1.0  0.5501588020714094  0.7729829620376922  0.23471744061771574  1.0000
  S   S7        1.0  0.08469416833214297  0.9044894655866433  0.5480238660411516  1.0000
  S   S8        1.0  0.5734630784585877  0.7672517001745712  0.39584274714471623  1.0000
  Fe  Fe5       1.0  0.3589069142223488  0.8420093345910019  0.587869435806863  1.0000
  S   S9        1.0  0.3558319966939001  0.8375418086330945  0.4947883898234725  1.0000
  S   S10       1.0  0.3906286082429495  0.8717582598835608  0.6247585966775497  1.0000
  Fe  Fe6       1.0  0.30982762515335094  0.8015487428375371  0.6095775731298322  1.0000
  S   S11       1.0  0.30280408332185593  0.793089417312691  0.518199142204196  1.0000
  S   S12       1.0  0.28313954982724443  0.7831502175005474  0.6790614781448504  1.0000
  Fe  Fe7       1.0  0.35323996922006445  0.7935534365455047  0.5133179670691508  1.0000
  S   S13       1.0  0.38168673375410567  0.7652492115698738  0.4615432409490257  1.0000
  Fe  Fe8       1.0  0.30612997509590584  0.8376942569073403  0.5092528917295157  1.0000
  S   S14       1.0  0.2746259058623117  0.8638500734972793  0.46061343813334144  1.0000
  S   S15       1.0  0.35985823249633997  0.798004605456419  0.6061996808124374  1.0000
  S   S16       1.0  0.3094361596045562  0.8461252778293832  0.6009951622531097  1.0000
  Fe  Fe9       1.0  0.2729799529227213  0.6379823964795758  0.6358247265876029  1.0000
  S   S17       1.0  0.25255297997805776  0.6607484163613867  0.5647203249064098  1.0000
  S   S18       1.0  0.30533596320248424  0.6585860204722265  0.6924773997662221  1.0000
  Fe  Fe10      1.0  0.23990746019143616  0.5870258442920293  0.6077952511669743  1.0000
  S   S19       1.0  0.21622072851849808  0.6054202183225585  0.5337717975712137  1.0000
  S   S20       1.0  0.23759013175372032  0.5428027607584316  0.6244886242586322  1.0000
  Fe  Fe11      1.0  0.2607579832347787  0.6236482538610558  0.5146933063271277  1.0000
  S   S21       1.0  0.2837451210308937  0.6234220817156834  0.4312405929656258  1.0000
  Fe  Fe12      1.0  0.2101765587300899  0.6407059056580698  0.5910904788387799  1.0000
  S   S22       1.0  0.17169333154096017  0.6693972891833608  0.5906318077671417  1.0000
  S   S23       1.0  0.285059658623902  0.6024210337339035  0.5835901481765778  1.0000
  S   S24       1.0  0.2296882840014256  0.6208314793363984  0.6672193166120131  1.0000
  Fe  Fe13      1.0  0.026888949596351353  0.6856281738514528  0.45022606704018514  1.0000
  S   S25       1.0  0.47981732272216165  0.6686522961997118  0.41538138752490655  1.0000
  S   S26       1.0  0.05363854971908144  0.7194731160003537  0.4142760743695578  1.0000
  Fe  Fe14      1.0  0.48717204716516177  0.595468033882974  0.3657293565136682  1.0000
  S   S27       1.0  0.49401030714847377  0.607097543526236  0.4554643845749747  1.0000
  S   S28       1.0  0.48744328108333196  0.5516132544404527  0.348341628097527  1.0000
  Fe  Fe15      1.0  0.453513757688125  0.6328907652473219  0.44223501251752223  1.0000
  S   S29       1.0  0.41783226039290516  0.6370653062495382  0.5080902466395443  1.0000
  Fe  Fe16      1.0  0.020643353469649517  0.6410310071211395  0.5372954418180231  1.0000
  S   S30       1.0  0.04394782281925136  0.6184216723665719  0.6060810926178316  1.0000
  S   S31       1.0  0.44462965885362726  0.6186929306245369  0.3550817143104779  1.0000
  S   S32       1.0  0.04567072195196075  0.6443415784955073  0.45615398368382754  1.0000
  Fe  Fe17      1.0  0.619713079957122  0.46178741229820935  0.35047143154135624  1.0000
  S   S33       1.0  0.6191557263453867  0.459865583834741  0.44431710107695443  1.0000
  S   S34       1.0  0.6143893999202623  0.5007118328501159  0.30445048040706235  1.0000
  Fe  Fe18      1.0  0.6392001716920162  0.40358659856433843  0.3379220321102474  1.0000
  S   S35       1.0  0.6410050495812627  0.39673729518847234  0.4307942061320372  1.0000
  S   S36       1.0  0.6522626101182989  0.37257745407447146  0.27437577453363904  1.0000
  Fe  Fe19      1.0  0.5974581289559283  0.41984877534422493  0.4317814915169755  1.0000
  S   S37       1.0  0.5578272344844338  0.40494335571790796  0.4811443093156793  1.0000
  Fe  Fe20      1.0  0.18384221405396342  0.4710374082685476  0.3031294099849822  1.0000
  S   S38       1.0  0.23299212986619647  0.46175515197011446  0.2971835457774665  1.0000
  S   S39       1.0  0.59407303845544  0.4237279417121353  0.3382972322662007  1.0000
  S   S40       1.0  0.17143865683166845  0.5092679576444886  0.259859459824731  1.0000
  Fe  Fe21      1.0  0.39649233846830734  0.4117869191817212  0.587593634610479  1.0000
  S   S41       1.0  0.3795135521263938  0.40570425515901826  0.5002775011642067  1.0000
  S   S42       1.0  0.4183279982656318  0.3807122707628637  0.6413491035130872  1.0000
  Fe  Fe22      1.0  0.3773726784497725  0.4700625000229486  0.5916807860175417  1.0000
  S   S43       1.0  0.3594880153909799  0.46980505430109737  0.5042131599814781  1.0000
  S   S44       1.0  0.3726714829016259  0.5060722171074302  0.6463584227540895  1.0000
  Fe  Fe23      1.0  0.33978309222656244  0.43024529840276304  0.5289953262105798  1.0000
  S   S45       1.0  0.2906241923102957  0.42127581344717363  0.5234964367391799  1.0000
  Fe  Fe24      1.0  0.40092619851833816  0.44569270897976143  0.4844956289964236  1.0000
  S   S46       1.0  0.4326544328534534  0.45560886086091723  0.41461332167877973  1.0000
  S   S47       1.0  0.3549610001330952  0.4324285774563008  0.6180994578919797  1.0000
  S   S48       1.0  0.42071503744294453  0.4498664985785648  0.5702880812239487  1.0000
  Fe  Fe25      1.0  0.12449794610970809  0.9936705676509883  0.22322350309224714  1.0000
  S   S49       1.0  0.0984486944751922  0.9724702330673509  0.15642767242311817  1.0000
  S   S50       1.0  0.1458925415057188  0.9748578065044496  0.2987213186478195  1.0000
  Fe  Fe26      1.0  0.11530526937602945  0.04826549628791166  0.1709615452259856  1.0000
  S   S51       1.0  0.087925449183488  0.03233872034781182  0.1003580333261973  1.0000
  S   S52       1.0  0.1254495468789582  0.09187785613354703  0.17259417155588364  1.0000
  Fe  Fe27      1.0  0.5850935153902355  0.9483042061753508  0.9543509866544345  1.0000
  S   S53       1.0  0.5433166487261905  0.9498482659158052  0.9015190162022343  1.0000
  Fe  Fe28      1.0  0.12277864237806022  0.9999035745794836  0.09728861691699442  1.0000
  S   S54       1.0  0.14374347321612022  0.9895094336060271  0.01447064837913481  1.0000
  S   S55       1.0  0.5882725157616046  0.9574116320999734  0.04632004757127528  1.0000
  S   S56       1.0  0.15193070675752385  0.01805237422223316  0.1632403698071847  1.0000
  Fe  Fe29      1.0  0.3419952880279782  0.9344299553301929  0.9040822989980849  1.0000
  S   S57       1.0  0.3492436741874211  0.9364090882180003  0.9968098549533919  1.0000
  S   S58       1.0  0.33992681683088727  0.8929991360368944  0.867928189867993  1.0000
  Fe  Fe30      1.0  0.3352680876991914  0.9943939323882932  0.8939429969303421  1.0000
  S   S59       1.0  0.3428007673175783  0.0014895211853929169  0.985644236850916  1.0000
  S   S60       1.0  0.3264656980685601  0.03026529964219169  0.8394442107442351  1.0000
  Fe  Fe31      1.0  0.3792940287582341  0.9707537399391031  0.9768800999882522  1.0000
  S   S61       1.0  0.42131535884953314  0.9723036110958027  0.028453264769940256  1.0000
  Fe  Fe32      1.0  0.3120947139021464  0.9666877371454973  0.9972018905739367  1.0000
  S   S62       1.0  0.2796152761600987  0.9676567309561622  0.06934529500980635  1.0000
  S   S63       1.0  0.37493222930274794  0.9668103954311764  0.8834214488676422  1.0000
  S   S64       1.0  0.30175144742192217  0.9614470004673015  0.9058415859812413  1.0000
  Fe  Fe33      1.0  0.2247849246208443  0.1314494876170184  0.9445549303616172  1.0000
  S   S65       1.0  0.20950931958707875  0.1516877522762252  0.023576037447058162  1.0000
  S   S66       1.0  0.21082783618009288  0.08916464350476494  0.9304320156610681  1.0000
  Fe  Fe34      1.0  0.26365520891585864  0.17768515470513546  0.908564375877408  1.0000
  S   S67       1.0  0.2513390057189452  0.20231011138799354  0.9837396413318055  1.0000
  S   S68       1.0  0.2976286573788663  0.19419831788631503  0.8492135300821957  1.0000
  Fe  Fe35      1.0  0.2574816501923895  0.1639305100200262  0.031165187877186806  1.0000
  S   S69       1.0  0.2855952429776006  0.16253390948526622  0.1087445113891734  1.0000
  Fe  Fe36      1.0  0.2048328931277167  0.18773189904596468  0.967784387144568  1.0000
  S   S70       1.0  0.16478429056325336  0.2149616834917015  0.9744365194928911  1.0000
  S   S71       1.0  0.2733008532182351  0.14041511411572996  0.9569743108228201  1.0000
  S   S72       1.0  0.21649704200500797  0.16648010615190784  0.8875418203329458  1.0000
  Fe  Fe37      1.0  0.9893195979548504  0.16304646606421444  0.09427489729330185  1.0000
  S   S73       1.0  0.9836647937735946  0.1341996103570672  0.023762416678057896  1.0000
  S   S74       1.0  0.9991289928147157  0.14824867239130182  0.18082807438018667  1.0000
  Fe  Fe38      1.0  0.9814649048878357  0.21122683195055753  0.018610652318602927  1.0000
  S   S75       1.0  0.9744516029907492  0.1863173425871926  0.9411573552342621  1.0000
  S   S76       1.0  0.9855447917604105  0.25600743554909566  0.019175645407474073  1.0000
  Fe  Fe39      1.0  0.4439798784884131  0.11977681934313708  0.04065911545193912  1.0000
  S   S77       1.0  0.4001362378265956  0.0995465748232078  0.025093468417519693  1.0000
  Fe  Fe40      1.0  0.012840267713109643  0.16191556061643886  0.9746536674102794  1.0000
  S   S78       1.0  0.05130224334887412  0.14482075813411607  0.9251711120567608  1.0000
  S   S79       1.0  0.45852870933096207  0.13271230994800112  0.126113984413037  1.0000
  S   S80       1.0  0.02195703760523737  0.18857952038205886  0.047821448238712705  1.0000
  Fe  Fe41      1.0  0.07595363243205251  0.38148894521249155  0.9398973986757985  1.0000
  S   S81       1.0  0.08501699114130935  0.4142056508194527  0.8773506669095874  1.0000
  S   S82       1.0  0.06266585378684628  0.388178550742429  0.02993499706061864  1.0000
  Fe  Fe42      1.0  0.08270913113819525  0.3375906900325042  0.8530655942886554  1.0000
  S   S83       1.0  0.0907698072098047  0.36613202635735886  0.7820735729842317  1.0000
  S   S84       1.0  0.0823462140190189  0.29317648428007437  0.8443164907792021  1.0000
  Fe  Fe43      1.0  0.12055592359767746  0.3864824916004736  0.8441802827364641  1.0000
  S   S85       1.0  0.16725864352763914  0.39732178299117515  0.8191889023208316  1.0000
  Fe  Fe44      1.0  0.5445834181525228  0.3676525618035065  0.882885658811879  1.0000
  S   S86       1.0  0.5070712530176933  0.37878095160366776  0.8251526722697156  1.0000
  S   S87       1.0  0.11481176574939818  0.3560618527459299  0.9127039349932894  1.0000
  S   S88       1.0  0.5328647889354746  0.35009800006499786  0.9664655458883284  1.0000
  Fe  Fe45      1.0  0.3225125743761685  0.34380106434080465  0.8739329239272574  1.0000
  S   S89       1.0  0.31479574727741005  0.38235188015328964  0.9199107233583196  1.0000
  S   S90       1.0  0.30952814070150186  0.34126312302298667  0.783331022771936  1.0000
  Fe  Fe46      1.0  0.3443507587993148  0.3147807342510739  0.9775152709592208  1.0000
  S   S91       1.0  0.3376726227230091  0.35024853059304717  0.033679601507833334  1.0000
  S   S92       1.0  0.36321174981162585  0.2755565392667385  0.005995231584714711  1.0000
  Fe  Fe47      1.0  0.2946811488357971  0.3559246087959827  0.9862770718427553  1.0000
  S   S93       1.0  0.24960495234625027  0.36546818468325687  0.023599728951593457  1.0000
  Fe  Fe48      1.0  0.3582740043910016  0.3731412176733858  0.9621470776608477  1.0000
  S   S94       1.0  0.39373510147317653  0.40398687071994693  0.9752101657326581  1.0000
  S   S95       1.0  0.2992651522626608  0.31799264482807965  0.9370925333753216  1.0000
  S   S96       1.0  0.3682027857621936  0.33698489920128466  0.9100412735387671  1.0000
  C   C1        1.0  0.19012268830141904  0.38910061840259696  0.8761533342264364  1.0000
  C   C2        1.0  0.21866930111187177  0.37842196981317083  0.86658287549029  1.0000
  C   C3        1.0  0.2364748031151407  0.3704561542812909  0.9119226171178428  1.0000
  C   C4        1.0  0.22613986985457663  0.37368781256327105  0.9670543372329369  1.0000
  C   C5        1.0  0.19733631387869788  0.38401619816686333  0.9766089296297177  1.0000
  C   C6        1.0  0.179356653984134  0.3917806200245657  0.9311551184919975  1.0000
  H   H1        1.0  0.22677763103773488  0.37567520304362756  0.8241560045625622  1.0000
  H   H2        1.0  0.2580651501876406  0.3615084235064052  0.9037893504296853  1.0000
  H   H3        1.0  0.18890354798019673  0.3861283741882524  0.018906947071961167  1.0000
  H   H4        1.0  0.15726080055273453  0.40010826342047756  0.9386827914580327  1.0000
  C   C7        1.0  0.42520781158551735  0.3972103860142909  0.9333225772670547  1.0000
  C   C8        1.0  0.4537863057237085  0.40410811497234994  0.952150983957254  1.0000
  C   C9        1.0  0.4790873028504793  0.39839383015259744  0.9190366554489287  1.0000
  C   C10       1.0  0.47569970548350005  0.38645471597970593  0.8664277807801276  1.0000
  C   C11       1.0  0.4471104174307318  0.38009391104642654  0.8470912939058348  1.0000
  C   C12       1.0  0.4219001255859946  0.38517316361093373  0.880768859134052  1.0000
  H   H5        1.0  0.4564378857142544  0.4134887842428844  0.9927332786626103  1.0000
  H   H6        1.0  0.5012004939957768  0.40351133068918754  0.9340255417877699  1.0000
  H   H7        1.0  0.4445824813093574  0.3708986267898252  0.8064473986960602  1.0000
  H   H8        1.0  0.39985973879535913  0.38039918068912  0.8654265626070612  1.0000
  C   C13       1.0  0.01522229069279657  0.2648083468821349  0.9746338931983489  1.0000
  C   C14       1.0  0.030582107313142926  0.2887913462342101  0.9829976446008362  1.0000
  C   C15       1.0  0.05305003099387684  0.29658360699563224  0.9451128952187351  1.0000
  C   C16       1.0  0.05950026800651297  0.2807673920883737  0.8980361338188813  1.0000
  C   C17       1.0  0.5228813970898999  0.23437150467664886  0.9702808937950572  1.0000
  C   C18       1.0  0.5064103659645309  0.21929931847064216  0.008735129630119687  1.0000
  H   H9        1.0  0.024977321183188073  0.3014164894973481  0.018419500863007476  1.0000
  H   H10       1.0  0.0647679371429316  0.31517509040298597  0.9516293483471264  1.0000
  H   H11       1.0  0.526830350165754  0.22666959497342976  0.9284237002809709  1.0000
  H   H12       1.0  0.4977985509564041  0.2001584828616551  0.9963406485465874  1.0000
  C   C19       1.0  0.08256723318642441  0.16566689568520485  0.9312092337595139  1.0000
  C   C20       1.0  0.11123695068383205  0.15475538074933812  0.9244837309691036  1.0000
  C   C21       1.0  0.13653676125661796  0.1701245495244196  0.9363782559825718  1.0000
  C   C22       1.0  0.13329212213432892  0.19687425378351953  0.9528134654339532  1.0000
  C   C23       1.0  0.1046330781551623  0.20836198078341567  0.95608713831439  1.0000
  C   C24       1.0  0.07926574643481799  0.19262233610742208  0.9460458486370081  1.0000
  H   H13       1.0  0.11381335827080277  0.13422007206883158  0.9114064454763985  1.0000
  H   H14       1.0  0.15844783070652893  0.1609815006466055  0.9338953585931014  1.0000
  H   H15       1.0  0.10187896040520347  0.22917240974720857  0.9677415397330149  1.0000
  H   H16       1.0  0.057147461878876316  0.20134983667728776  0.9495396769280949  1.0000
  C   C25       1.0  0.31783464774697334  0.14392658983184584  0.09146897553690292  1.0000
  C   C26       1.0  0.34640029013715656  0.15441370775937266  0.10101815926158131  1.0000
  C   C27       1.0  0.3720019765226888  0.14063835603073885  0.0817036874917787  1.0000
  C   C28       1.0  0.36895968039102306  0.11621146407926257  0.05366014730022717  1.0000
  C   C29       1.0  0.3404696547589767  0.10536084579149563  0.04573349419178507  1.0000
  C   C30       1.0  0.31497215129770123  0.11926355753368603  0.06435246914146386  1.0000
  H   H17       1.0  0.34871733931196147  0.17357994901251547  0.12159725402092136  1.0000
  H   H18       1.0  0.3939767082238568  0.14920648280770887  0.08756694177365087  1.0000
  H   H19       1.0  0.33805430208867304  0.0864738097846844  0.02404795761538936  1.0000
  H   H20       1.0  0.293010393377008  0.11108195677545227  0.05695474284157376  1.0000
  C   C31       1.0  0.31989451021850335  0.21533074102372007  0.8897603098668868  1.0000
  C   C32       1.0  0.32731889607676606  0.20800079045433664  0.9447626111696291  1.0000
  C   C33       1.0  0.3431406582541068  0.2257080275444523  0.978963909666489  1.0000
  C   C34       1.0  0.34990132537617685  0.25139690953077937  0.9593356240626856  1.0000
  C   C35       1.0  0.3428175046821803  0.2586277880847718  0.9041460520669388  1.0000
  C   C36       1.0  0.3283709650901422  0.24036900417453158  0.8689569860008309  1.0000
  H   H21       1.0  0.32042641874297  0.1888390527108411  0.9613903476301437  1.0000
  H   H22       1.0  0.34868670699859244  0.21991425948314453  0.021443056940783967  1.0000
  H   H23       1.0  0.3478420139994296  0.27848487434251096  0.8887245521162094  1.0000
  H   H24       1.0  0.3223451870346252  0.2462001504078443  0.8266547897996599  1.0000
  C   C37       1.0  0.2930350975556633  0.045905363783000225  0.8611494774375379  1.0000
  C   C38       1.0  0.27388712614792515  0.03307824159435002  0.8990810996488822  1.0000
  C   C39       1.0  0.2475853752320227  0.04579812805727795  0.9175352368310224  1.0000
  C   C40       1.0  0.241296565022829  0.07204969848267645  0.9006977410467061  1.0000
  C   C41       1.0  0.2604258607078026  0.08504261030482288  0.8629085024744727  1.0000
  C   C42       1.0  0.28587182189574684  0.07167590096093199  0.8419958435702927  1.0000
  H   H25       1.0  0.27931354130351316  0.013356669877313156  0.9143117752486611  1.0000
  H   H26       1.0  0.23275022625952016  0.035606028314351654  0.9463966685570131  1.0000
  H   H27       1.0  0.2553804556444384  0.10525729103850101  0.849248614014448  1.0000
  H   H28       1.0  0.30021110052521977  0.08141589556150428  0.8116878908248868  1.0000
  C   C43       1.0  0.09006022938925275  0.10682268872845928  0.1754278044445965  1.0000
  C   C44       1.0  0.07597428432593449  0.11140256415727405  0.2271019532484  1.0000
  C   C45       1.0  0.047529215840013794  0.12353211708196866  0.2288224844071609  1.0000
  C   C46       1.0  0.03336808051634477  0.13107798295260303  0.17888270830311837  1.0000
  C   C47       1.0  0.5588562284713605  0.03558603025237837  0.13899192472181987  1.0000
  C   C48       1.0  0.5842201751445385  0.024469304248440776  0.11253274607697117  1.0000
  H   H29       1.0  0.08704238703617632  0.10565711289946199  0.2656801215353346  1.0000
  H   H30       1.0  0.03669700991320024  0.12739585137712542  0.2687455732922257  1.0000
  H   H31       1.0  0.5451949061259176  0.023310439374875445  0.16631124769505656  1.0000
  H   H32       1.0  0.5902060382117367  0.0037793757005511372  0.12013388144497594  1.0000
  C   C49       1.0  0.1809960378753736  0.9799937387387047  0.026896676884464954  1.0000
  C   C50       1.0  0.1896110103768395  0.9718384739530106  0.08065657292459849  1.0000
  C   C51       1.0  0.21990587016496524  0.9673401445104215  0.09278814039778571  1.0000
  C   C52       1.0  0.24170558549579682  0.9706964491750986  0.051061639529656144  1.0000
  C   C53       1.0  0.23303339511785123  0.9779664698759138  0.99670151284559  1.0000
  C   C54       1.0  0.20264287120383295  0.9825711216482337  0.9845432684855066  1.0000
  H   H33       1.0  0.17290747407190632  0.9690050568607427  0.11307927303484422  1.0000
  H   H34       1.0  0.22646524446632343  0.9614820058621949  0.13477004507243562  1.0000
  H   H35       1.0  0.24970387039994346  0.9807344489853246  0.9644134098433046  1.0000
  H   H36       1.0  0.1960682305736218  0.9889249377104922  0.9428913259018682  1.0000
  C   C55       1.0  0.5095691874495942  0.9561515971842534  0.9372225565017919  1.0000
  C   C56       1.0  0.4837015481589  0.9620874595844643  0.906354387082208  1.0000
  C   C57       1.0  0.45652655598112113  0.9675165431239712  0.9340271216175811  1.0000
  C   C58       1.0  0.4551954938177267  0.9670358222239488  0.9926267548446486  1.0000
  C   C59       1.0  0.4811139496096317  0.9614145840526802  0.023498515406363607  1.0000
  C   C60       1.0  0.5081936879988047  0.9557420960471781  0.9958214693344647  1.0000
  H   H37       1.0  0.48471062992922215  0.9625647820678122  0.8609562844142247  1.0000
  H   H38       1.0  0.43675904000073684  0.9722654751880846  0.9099660802832688  1.0000
  H   H39       1.0  0.4801628467685107  0.9608471569863092  0.06889643612155849  1.0000
  H   H40       1.0  0.5278342703629869  0.9507148393884007  0.019940409022572547  1.0000
  C   C61       1.0  0.38901738230959426  0.36385375069773135  0.6744856630188713  1.0000
  C   C62       1.0  0.39398866970491103  0.3508920551360139  0.7255878592063548  1.0000
  C   C63       1.0  0.3695629545887805  0.34254613520823796  0.75812361846546  1.0000
  C   C64       1.0  0.34029243905909123  0.3468174712419556  0.739148731156244  1.0000
  C   C65       1.0  0.33554457723059045  0.3573710589736285  0.6855693421829504  1.0000
  C   C66       1.0  0.35990940862526094  0.3660681366497769  0.6533275344630508  1.0000
  H   H41       1.0  0.41656418892267083  0.34817568675673105  0.7408590847052638  1.0000
  H   H42       1.0  0.37343504147920664  0.33277045222817964  0.7976305505726949  1.0000
  H   H43       1.0  0.31302690805047945  0.35953354427078976  0.6697221043477513  1.0000
  H   H44       1.0  0.35609741856473753  0.37484306744920104  0.6124388502649085  1.0000
  C   C67       1.0  0.1119256199203006  0.458681733810621  0.10558499706543058  1.0000
  C   C68       1.0  0.6236725897098591  0.36021911268780143  0.17644040204772438  1.0000
  C   C69       1.0  0.6049821999989161  0.36637732929099104  0.13087361509857653  1.0000
  C   C70       1.0  0.08370143160776898  0.4137433739362144  0.06041345999830239  1.0000
  C   C71       1.0  0.07874367732649964  0.420776982348983  0.11655851394345218  1.0000
  C   C72       1.0  0.09313836636825687  0.4431179402752485  0.13933372776418662  1.0000
  H   H45       1.0  0.6306412296110073  0.33973300246330024  0.18394832902031233  1.0000
  H   H46       1.0  0.5973573390567  0.35061529336451214  0.1035506695694366  1.0000
  H   H47       1.0  0.06351358197190714  0.409228698999266  0.14228294721546098  1.0000
  H   H48       1.0  0.08890960834684304  0.44884463306055067  0.18239364713164186  1.0000
  C   C73       1.0  0.46741234088503336  0.4405318701773508  0.4296580025953983  1.0000
  C   C74       1.0  0.4939177595772064  0.45165476733922716  0.4087273921758617  1.0000
  C   C75       1.0  0.5218755787239843  0.4405935975272302  0.4234943007056691  1.0000
  C   C76       1.0  0.5232682888619679  0.4181285568937545  0.45860356145615033  1.0000
  C   C77       1.0  0.4966902604636884  0.40640892675866563  0.4776207770900249  1.0000
  C   C78       1.0  0.4688318650675889  0.41779165309788224  0.4639502986450071  1.0000
  H   H49       1.0  0.4927324617716601  0.46927550430085174  0.3825302314848941  1.0000
  H   H50       1.0  0.5423178099398615  0.4496823167665845  0.40867492633635044  1.0000
  H   H51       1.0  0.49765217522496824  0.3883990795074923  0.5026988476684771  1.0000
  H   H52       1.0  0.44843452012925084  0.40875081596661755  0.47938711521653804  1.0000
  C   C79       1.0  0.24873394322219244  0.45021969598188966  0.3600319195601869  1.0000
  C   C80       1.0  0.2798814517016987  0.4508246774334541  0.3667575052495452  1.0000
  C   C81       1.0  0.29288437464284717  0.4420098097008532  0.41704575538196853  1.0000
  C   C82       1.0  0.27473835170111677  0.4323289876919273  0.46042824031735896  1.0000
  C   C83       1.0  0.24357617563163536  0.4316424532575275  0.45366424755328977  1.0000
  C   C84       1.0  0.23054930359808148  0.4406877899503536  0.40352151879730325  1.0000
  H   H53       1.0  0.29400772746808906  0.45809724155565396  0.33305696251209954  1.0000
  H   H54       1.0  0.31697728640291895  0.4423188627713695  0.42185436552807565  1.0000
  H   H55       1.0  0.22950843408092253  0.42403081210684046  0.48709055424164316  1.0000
  H   H56       1.0  0.20651554538219494  0.43983763300993317  0.3982298606136641  1.0000
  C   C85       1.0  0.5242691645272605  0.5398687505589819  0.341322332923119  1.0000
  C   C86       1.0  0.057689195587048436  0.5763332848310513  0.3114803152286714  1.0000
  C   C87       1.0  0.08693458147275174  0.5663229207895797  0.318060209861693  1.0000
  C   C88       1.0  0.5810349589908375  0.5172684168965747  0.3225642165012575  1.0000
  C   C89       1.0  0.5722533019380934  0.5403005392313412  0.29315788236014567  1.0000
  C   C90       1.0  0.5438975840156646  0.5517557632556946  0.3028575910167707  1.0000
  H   H57       1.0  0.04812820743270674  0.5782161701623291  0.2699802575973916  1.0000
  H   H58       1.0  0.09984913322864232  0.560284607327232  0.2816154432985567  1.0000
  H   H59       1.0  0.587015423333827  0.5488319777484119  0.2618119596964108  1.0000
  H   H60       1.0  0.5367704330229845  0.569109045370886  0.2790065768336333  1.0000
  C   C91       1.0  0.1367211916426554  0.65515380564067  0.6039955233919019  1.0000
  C   C92       1.0  0.13370468949624514  0.6281231160399365  0.618669907894111  1.0000
  C   C93       1.0  0.10496496747273251  0.6167930114612304  0.6222159694311761  1.0000
  C   C94       1.0  0.07958575281234914  0.6325507224362801  0.610724265859862  1.0000
  C   C95       1.0  0.08282611304812598  0.6596524074959932  0.598156054341478  1.0000
  C   C96       1.0  0.11131332751288027  0.6709484807418002  0.5950571989127145  1.0000
  H   H61       1.0  0.15341244922206723  0.6158293668388083  0.6256764062608651  1.0000
  H   H62       1.0  0.1024531209866692  0.5957310883859067  0.6317837226290933  1.0000
  H   H63       1.0  0.0632037335780506  0.6718472564575515  0.5906783362537142  1.0000
  H   H64       1.0  0.11377565808280002  0.6917633658192441  0.5839017283256288  1.0000
  C   C97       1.0  0.3212408480056551  0.6286787235195405  0.4491370540477145  1.0000
  C   C98       1.0  0.34451393055043655  0.6193429648581893  0.41484157184764686  1.0000
  C   C99       1.0  0.3743415412157318  0.6216880004471266  0.4326287018176849  1.0000
  C   C100      1.0  0.3809055162012469  0.6334426362237745  0.48444818113648663  1.0000
  C   C101      1.0  0.35754279460085786  0.6426838047942329  0.518445972508121  1.0000
  C   C102      1.0  0.3279273625878422  0.6407658119794866  0.5003905945470299  1.0000
  H   H65       1.0  0.3394408758206539  0.6096018492132697  0.3754950857704829  1.0000
  H   H66       1.0  0.3918907385585218  0.6135618007846789  0.4068765389821962  1.0000
  H   H67       1.0  0.36208537653350154  0.6510290086239198  0.5592545893828124  1.0000
  H   H68       1.0  0.31025838678588724  0.6483558184613292  0.5269363478278491  1.0000
  C   C103      1.0  0.2742362341077127  0.5313123099530827  0.6372611999666323  1.0000
  C   C104      1.0  0.29508856728277544  0.5478452594204588  0.6637212284823758  1.0000
  C   C105      1.0  0.3252301261576578  0.5398184345876587  0.6679608740951775  1.0000
  C   C106      1.0  0.33457214669700897  0.5152831817597229  0.6454950772230273  1.0000
  C   C107      1.0  0.31346566679561755  0.4983621048376625  0.6208535966242168  1.0000
  C   C108      1.0  0.28332046618434964  0.5062031571239377  0.6173559957609126  1.0000
  H   H69       1.0  0.2880263010676439  0.5669824753064386  0.680613826213676  1.0000
  H   H70       1.0  0.3413325083573372  0.5529418790543777  0.6874381581489921  1.0000
  H   H71       1.0  0.3202694315781575  0.4794032589976835  0.6033520515158673  1.0000
  H   H72       1.0  0.2673536502343752  0.49316748907910934  0.5974175662238005  1.0000
  C   C109      1.0  0.37838653367440117  0.8775807069433753  0.6935959054914494  1.0000
  C   C110      1.0  0.3844432028496254  0.9018910966397464  0.7203890077328131  1.0000
  C   C111      1.0  0.3728296449294443  0.906941542227015  0.7742802507395291  1.0000
  C   C112      1.0  0.3558338626714469  0.887377001155819  0.8016959956906342  1.0000
  C   C113      1.0  0.3505496916132657  0.8628614377546238  0.7754071279515716  1.0000
  C   C114      1.0  0.3614060983437806  0.8581223211168112  0.7211710774738647  1.0000
  H   H73       1.0  0.39737705755986025  0.9170658572675816  0.6988842139017157  1.0000
  H   H74       1.0  0.37681527875940546  0.9259920790314644  0.7941897903682686  1.0000
  H   H75       1.0  0.33749452289872195  0.847637113645833  0.7965502623839239  1.0000
  H   H76       1.0  0.3567098754011194  0.8392836639532896  0.7008318553549754  1.0000
  C   C115      1.0  0.28971367450277996  0.7486073042344998  0.6822565787113797  1.0000
  C   C116      1.0  0.29777906400024956  0.7343226544980758  0.6339406039165403  1.0000
  C   C117      1.0  0.30171069955754304  0.706450384645894  0.6366470951977035  1.0000
  C   C118      1.0  0.2987847270625873  0.6930899368164556  0.6881068834631012  1.0000
  C   C119      1.0  0.29143108249810223  0.7074905611056026  0.7365293080324564  1.0000
  C   C120      1.0  0.28631871153929084  0.735161167953565  0.7333970319561647  1.0000
  H   H77       1.0  0.3002329842441772  0.744629121340731  0.5942708229933821  1.0000
  H   H78       1.0  0.30751932132549575  0.6953127644294946  0.5991951752228745  1.0000
  H   H79       1.0  0.28923629641415805  0.6971563667994111  0.776313463690264  1.0000
  H   H80       1.0  0.28016034290368985  0.7461916069447059  0.7708113930525864  1.0000
  C   C121      1.0  0.09868360516189406  0.9015531093337764  0.3696006314487306  1.0000
  C   C122      1.0  0.5770811388159367  0.8693633029596366  0.24325772296884618  1.0000
  C   C123      1.0  0.5893295675621335  0.8698220501476389  0.18915258115337785  1.0000
  C   C124      1.0  0.12693394585372328  0.9470435692622643  0.3253751681116872  1.0000
  C   C125      1.0  0.11034018458700774  0.930372987450932  0.29025260928554486  1.0000
  C   C126      1.0  0.0964319087898482  0.9074902664250383  0.312318135406092  1.0000
  H   H81       1.0  0.5667748343571415  0.8512647944148565  0.25872501172762674  1.0000
  H   H82       1.0  0.5890629006607412  0.8518380225906218  0.16384126918188002  1.0000
  H   H83       1.0  0.10897212618689403  0.9346107336383762  0.24588322933279483  1.0000
  H   H84       1.0  0.08403439540248991  0.8943229734840024  0.28497737156507097  1.0000
  C   C127      1.0  0.5214524565591157  0.7495728403515131  0.24134736160644435  1.0000
  C   C128      1.0  0.09355626573016308  0.7791240487886046  0.49887675733926196  1.0000
  C   C129      1.0  0.08123413161093032  0.7637590727817546  0.45569883550186857  1.0000
  C   C130      1.0  0.07140584028810036  0.737739584817693  0.46675565929464824  1.0000
  C   C131      1.0  0.4931356953274923  0.718778338175724  0.2992640337608301  1.0000
  C   C132      1.0  0.5127918962033847  0.7404079413021014  0.29440215288541566  1.0000
  H   H85       1.0  0.10080065786182314  0.7993582057641127  0.49035728651855953  1.0000
  H   H86       1.0  0.07876129888985144  0.7722323365340844  0.4140976194502809  1.0000
  H   H87       1.0  0.4871456344159739  0.7114203313961188  0.3403095108685447  1.0000
  H   H88       1.0  0.5219695575584405  0.7493774440084773  0.33170587778559657  1.0000
  C   C133      1.0  0.1981011433801334  0.8966304094600839  0.5685566922422327  1.0000
  C   C134      1.0  0.20464920632788564  0.8691313378449499  0.5689692200214179  1.0000
  C   C135      1.0  0.2291810976988727  0.8591007316587241  0.5380699567465224  1.0000
  C   C136      1.0  0.24658730599018297  0.8764752769778514  0.5053976692935621  1.0000
  C   C137      1.0  0.24019055219120203  0.9039590508293236  0.5055104718218291  1.0000
  C   C138      1.0  0.21629490150756878  0.9140560818851702  0.5377090628375009  1.0000
  H   H89       1.0  0.19083697106309042  0.8556261094559383  0.5933057592418842  1.0000
  H   H90       1.0  0.23400579241890634  0.8378272048157124  0.5380062003044335  1.0000
  H   H91       1.0  0.25363396200069044  0.9174664836039136  0.4804634990278247  1.0000
  H   H92       1.0  0.21138397667666314  0.9353211187822451  0.5375144387394988  1.0000
  C   C139      1.0  0.4804157336900641  0.7807970356363052  0.4985388362862193  1.0000
  C   C140      1.0  0.4717787015632394  0.7734435621666255  0.4442690417090952  1.0000
  C   C141      1.0  0.44150760299796876  0.7678432401349616  0.43297642429871375  1.0000
  C   C142      1.0  0.41987838460009946  0.7703542834210697  0.47557678570599077  1.0000
  C   C143      1.0  0.42878485530040844  0.7773535631081955  0.5296483998794085  1.0000
  C   C144      1.0  0.4589640268873636  0.7820710540323  0.5413589478741716  1.0000
  H   H93       1.0  0.4883134155449013  0.7723485687338173  0.41096828354084797  1.0000
  H   H94       1.0  0.43483676298577006  0.7624216347771822  0.39091502717665316  1.0000
  H   H95       1.0  0.41249247715732795  0.778934004718057  0.5628047326303157  1.0000
  H   H96       1.0  0.4655798384299602  0.7875938954722711  0.5834153994255  1.0000
  Fe  Fe49      1.0  0.05873235229220719  0.8767708903990841  0.6040227280523307  1.0000
  S   S97       1.0  0.05869382837142556  0.842729375719403  0.5428043542477073  1.0000
  S   S98       1.0  0.01476170193382087  0.8876070241846513  0.6458798873330782  1.0000
  Fe  Fe50      1.0  0.6116039741550808  0.7959590844472026  0.40376821501112264  1.0000
  S   S99       1.0  0.6032055438019037  0.8160535012143814  0.3215168567838208  1.0000
  S   S100      1.0  0.6566906407047669  0.779395472003021  0.4275149770467674  1.0000
  Fe  Fe51      1.0  0.573407392905773  0.8440585772334649  0.3702267266742568  1.0000
  S   S101      1.0  0.5728098187683273  0.8881081082003303  0.35035886218781465  1.0000
  Fe  Fe52      1.0  0.10149161065761914  0.8304667173237181  0.584606689909659  1.0000
  S   S102      1.0  0.11056298698711364  0.7877369190975216  0.6072677297621372  1.0000
  S   S103      1.0  0.5858644474772368  0.8263799562532953  0.4537575482502427  1.0000
  S   S104      1.0  0.09954443333475038  0.8622373259195083  0.6506265897097251  1.0000
  Fe  Fe53      1.0  0.8225655622866067  0.8544986894562041  0.6175794488923692  1.0000
  S   S105      1.0  0.8288953543476234  0.8795227723398819  0.5403397741436008  1.0000
  S   S106      1.0  0.8106286434439223  0.8729890526175142  0.7000223225544605  1.0000
  Fe  Fe54      1.0  0.8272755171847296  0.8024460832421664  0.5545083168320032  1.0000
  S   S107      1.0  0.8332440364528381  0.82278630637942  0.4712833982559518  1.0000
  S   S108      1.0  0.8313006406988114  0.7580199085021606  0.5635270521862343  1.0000
  Fe  Fe55      1.0  0.8646817768731948  0.849507893010513  0.5184896384908861  1.0000
  S   S109      1.0  0.909098700478617  0.8600939553010504  0.47951355741565094  1.0000
  Fe  Fe56      1.0  0.7969132656880309  0.8506188115157627  0.5015781519577605  1.0000
  S   S110      1.0  0.7568717176792363  0.8668443607371357  0.45521829994118584  1.0000
  S   S111      1.0  0.861265996778079  0.827062936709001  0.5997725838731959  1.0000
  S   S112      1.0  0.788075107075078  0.8276408250356192  0.5806266886837834  1.0000
  Fe  Fe57      1.0  0.7334998467685678  0.6526317998026959  0.4851700345176911  1.0000
  S   S113      1.0  0.7340040771014601  0.6607838594454088  0.39254487661101195  1.0000
  S   S114      1.0  0.7169498015088984  0.6865665283734715  0.5392241820727806  1.0000
  Fe  Fe58      1.0  0.7563246952020908  0.5954756988819524  0.47034418921487825  1.0000
  S   S115      1.0  0.7593353213596767  0.599227557243649  0.37693844400555376  1.0000
  S   S116      1.0  0.7670409341969378  0.5561862543596925  0.5113004045004402  1.0000
  Fe  Fe59      1.0  0.7784318886141217  0.6396422479693534  0.39458254273272964  1.0000
  S   S117      1.0  0.8185630680555104  0.6542189601279358  0.34703697912453957  1.0000
  Fe  Fe60      1.0  0.7147460366609466  0.6196035334162611  0.38511926228600135  1.0000
  S   S118      1.0  0.6752270270140718  0.6069107202283077  0.3343268783368105  1.0000
  S   S119      1.0  0.7795315591834445  0.6340969970675795  0.48797810134419156  1.0000
  S   S120      1.0  0.7102637865805161  0.6132517256107435  0.4778277271273169  1.0000
  Fe  Fe61      1.0  0.47409782069609446  0.6524068310027176  0.328643316722594  1.0000
  S   S121      1.0  0.0059036353622277105  0.6841588760795891  0.5359126326608354  1.0000
  S   S122      1.0  0.4595172459458257  0.6780437748488218  0.2563373721252319  1.0000
  Fe  Fe62      1.0  0.00271536311692544  0.631274178358432  0.41726082129146636  1.0000
  S   S123      1.0  0.9787634052342764  0.6249604947681976  0.49887901241511795  1.0000
  S   S124      1.0  0.006093326228597151  0.5999810246234416  0.35027991205291725  1.0000
  Fe  Fe63      1.0  0.9660990221871607  0.6683290735120632  0.48995250879503016  1.0000
  S   S125      1.0  0.9212854205826397  0.684336884535491  0.5155437669532009  1.0000
  Fe  Fe64      1.0  0.5196645227026153  0.6412659977830694  0.4188110923184658  1.0000
  S   S126      1.0  0.5623311061457  0.6565140506709655  0.4556358292324941  1.0000
  S   S127      1.0  0.9858109888697698  0.6731649307583479  0.4039483478392473  1.0000
  S   S128      1.0  0.5162397411027101  0.6276399396170552  0.3292615869578733  1.0000
  Fe  Fe65      1.0  0.14087084880689105  0.5159635070415086  0.3327928475445056  1.0000
  S   S129      1.0  0.15657847203676956  0.47986124207586467  0.3801207750937527  1.0000
  S   S130      1.0  0.1370042002639409  0.5545447239473237  0.37943908109464924  1.0000
  Fe  Fe66      1.0  0.1337675965574312  0.4855303927513056  0.22415099018762552  1.0000
  S   S131      1.0  0.14824334809610695  0.446476996680803  0.2621461412900804  1.0000
  S   S132      1.0  0.12704705611937595  0.4883382588099437  0.1312804245073709  1.0000
  Fe  Fe67      1.0  0.1192742968335545  0.4591570263995958  0.3348860062119399  1.0000
  S   S133      1.0  0.08844140920992238  0.43265678609684116  0.3843898715662096  1.0000
  Fe  Fe68      1.0  0.6623367190039542  0.4372638203205687  0.43354466116919593  1.0000
  S   S134      1.0  0.7043794911150384  0.4499622313025532  0.4767158521798707  1.0000
  S   S135      1.0  0.10136728448856558  0.49616482333159073  0.2929576628000715  1.0000
  S   S136      1.0  0.6643075161953932  0.44189411788676874  0.34030430769087744  1.0000
  Fe  Fe69      1.0  0.9013359198765443  0.41034008655421234  0.4624212485613082  1.0000
  S   S137      1.0  0.8956794878636798  0.3918596223259657  0.3772166907702349  1.0000
  S   S138      1.0  0.9116448596075141  0.38511119552815676  0.5384218801528254  1.0000
  Fe  Fe70      1.0  0.8918695506819925  0.46663664295721546  0.4190787540847067  1.0000
  S   S139      1.0  0.8849735081509317  0.4532411615372323  0.3305461044103261  1.0000
  S   S140      1.0  0.8931877299351549  0.5108189546262719  0.43533259117199063  1.0000
  Fe  Fe71      1.0  0.8571531156390342  0.42077890865703166  0.36877543937399154  1.0000
  S   S141      1.0  0.8133239380601335  0.4075906194026265  0.3318684083358254  1.0000
  Fe  Fe72      1.0  0.9239851524611351  0.42587397988167824  0.34651459304757215  1.0000
  S   S142      1.0  0.9594014872925328  0.42350136213046335  0.2788407901593494  1.0000
  S   S143      1.0  0.8604593827323783  0.4365098125116068  0.45661883622193583  1.0000
  S   S144      1.0  0.9331943866462816  0.4418660022035343  0.4326919631819688  1.0000
  Fe  Fe73      1.0  0.6229275215218751  0.9245438789503574  0.04686734035226303  1.0000
  S   S145      1.0  0.6165602130233708  0.9131430103516143  0.9564334399166351  1.0000
  S   S146      1.0  0.6253691625895703  0.890364023722316  0.10803837452307641  1.0000
  Fe  Fe74      1.0  0.6269087864106103  0.9834583837826456  0.021432292255701757  1.0000
  S   S147      1.0  0.6211593502000365  0.9768749555176035  0.9295778201060173  1.0000
  S   S148      1.0  0.6335021296088921  0.02668927871076266  0.04300645977775974  1.0000
  Fe  Fe75      1.0  0.06616661399782564  0.00688976553691889  0.16599579953339227  1.0000
  S   S149      1.0  0.016277201400859198  0.0022411243563922323  0.17184383696735428  1.0000
  Fe  Fe76      1.0  0.653070048820894  0.9426835872841988  0.9400279938876193  1.0000
  S   S150      1.0  0.6886464913197303  0.9387690219984951  0.873430373182293  1.0000
  S   S151      1.0  0.09025920829253398  0.02599043857356298  0.23762506191705524  1.0000
  S   S152      1.0  0.662150681663094  0.9515565652880791  0.030520697345229886  1.0000
  Fe  Fe77      1.0  0.8733666692285034  0.9856738212558355  0.8302970905735793  1.0000
  S   S153      1.0  0.8879527189370211  0.9488792757012051  0.8765946892152938  1.0000
  S   S154      1.0  0.877594817595791  0.9816295053543795  0.7371973268492393  1.0000
  Fe  Fe78      1.0  0.8630511861513334  0.01701979617941407  0.9366251402147924  1.0000
  S   S155      1.0  0.8778777134825023  0.9832132442785735  0.9921419390340541  1.0000
  S   S156      1.0  0.8476282071737046  0.0549717927591186  0.9775477212280219  1.0000
  Fe  Fe79      1.0  0.9144824691577966  0.9774269036399466  0.9283123403489816  1.0000
  S   S157      1.0  0.9635107449423713  0.9684026138377684  0.9372706684014603  1.0000
  Fe  Fe80      1.0  0.8499274560945327  0.9580794633660545  0.9350525408862176  1.0000
  S   S158      1.0  0.8194089855771234  0.9267980343601069  0.9712546112719856  1.0000
  S   S159      1.0  0.9023617636082099  0.013828858528442511  0.878151355457432  1.0000
  S   S160      1.0  0.8324240720775297  0.9923619314452378  0.883797271957735  1.0000
  Fe  Fe81      1.0  0.7285861374389535  0.14794689960026072  0.8911286418362522  1.0000
  S   S161      1.0  0.7148578858418089  0.15887578788191603  0.979247253224049  1.0000
  S   S162      1.0  0.7355993004017012  0.10639102951713114  0.8578655531289487  1.0000
  Fe  Fe82      1.0  0.7355470099863731  0.20556133070200666  0.8534150827685149  1.0000
  S   S163      1.0  0.7217834839896988  0.22134409766247728  0.9369745099090346  1.0000
  S   S164      1.0  0.7465420624663262  0.23718590312204124  0.7898593968350283  1.0000
  Fe  Fe83      1.0  0.7514560383059806  0.18947888797790585  0.9724386940128484  1.0000
  S   S165      1.0  0.7854405141875186  0.20343360374967984  0.03479932419595255  1.0000
  Fe  Fe84      1.0  0.6866740148924597  0.18982272423921198  0.9352602545217066  1.0000
  S   S166      1.0  0.6409801845934937  0.2040580060957517  0.9597919060458737  1.0000
  S   S167      1.0  0.7678100796109094  0.1755827608155081  0.8886119355179826  1.0000
  S   S168      1.0  0.6974621092759029  0.17672080845992308  0.8476747295635002  1.0000
  Fe  Fe85      1.0  0.5002944966578676  0.10911713360193445  0.10754628104908526  1.0000
  S   S169      1.0  0.4840329271671265  0.0938388538892826  0.02569753791988383  1.0000
  S   S170      1.0  0.5186292694674303  0.07598422881656246  0.1611026610965134  1.0000
  Fe  Fe86      1.0  0.4813533257476418  0.16598551779135123  0.07888762315849607  1.0000
  S   S171      1.0  0.46331885928246197  0.15468475341721688  0.9938308463782479  1.0000
  S   S172      1.0  0.48300786730836204  0.2082817146936602  0.11162704854952676  1.0000
  Fe  Fe87      1.0  0.945990451475128  0.16120788777458167  0.9980999911698654  1.0000
  S   S173      1.0  0.9038221160650034  0.14027440183188378  0.9737426697411053  1.0000
  Fe  Fe88      1.0  0.5053881315036138  0.12972953698740583  0.9878540422622084  1.0000
  S   S174      1.0  0.537106908806443  0.12200274971561206  0.9161691179281631  1.0000
  S   S175      1.0  0.9493478302984316  0.1882211480394014  0.07288545217944598  1.0000
  S   S176      1.0  0.524813126555651  0.1435346819464664  0.06910046109237378  1.0000
  Fe  Fe89      1.0  0.5726856942458843  0.3731736108842773  0.9962984205134082  1.0000
  S   S177      1.0  0.5818530831970365  0.39337936352446906  0.913833236400624  1.0000
  S   S178      1.0  0.5692380713678338  0.4006590605230608  0.07004914582815713  1.0000
  Fe  Fe90      1.0  0.5666088021028763  0.3184181841775621  0.9447146757109994  1.0000
  S   S179      1.0  0.575220989762846  0.33426108993622855  0.8585445469100139  1.0000
  S   S180      1.0  0.5596581219173666  0.27430905444537756  0.9389270866314355  1.0000
  Fe  Fe91      1.0  0.6117333817954375  0.3577875253935788  0.8986201319597351  1.0000
  S   S181      1.0  0.6559067416894797  0.358895741164572  0.8532588918183818  1.0000
  Fe  Fe92      1.0  0.054337585665933386  0.3909950651131232  0.8217851858229414  1.0000
  S   S182      1.0  0.015229790487256034  0.41181956889163046  0.7814279201289859  1.0000
  S   S183      1.0  0.6056286816139631  0.3393297260084681  0.9835310408692306  1.0000
  S   S184      1.0  0.04303513704442641  0.35993451091136874  0.8862427933237186  1.0000
  Fe  Fe93      1.0  0.8410852185230875  0.3943610334894974  0.8280452044417013  1.0000
  S   S185      1.0  0.8386984619239632  0.4141427136535264  0.9127042622164223  1.0000
  S   S186      1.0  0.8353040256896903  0.41944016450788135  0.7502873049175506  1.0000
  Fe  Fe94      1.0  0.8545121766240922  0.33956282312458314  0.8767765787118124  1.0000
  S   S187      1.0  0.8540701801580841  0.35467288986840334  0.9649935725531767  1.0000
  S   S188      1.0  0.8645069231603846  0.29589106306858914  0.8651103598812716  1.0000
  Fe  Fe95      1.0  0.8130352172229686  0.3775606579337342  0.9387134335328132  1.0000
  S   S189      1.0  0.7730317624093015  0.37600384070376364  0.9969840196906592  1.0000
  Fe  Fe96      1.0  0.8796669527926689  0.3895067109947456  0.9310289249246761  1.0000
  S   S190      1.0  0.9208077327047406  0.404434097991041  0.9749858685758146  1.0000
  S   S191      1.0  0.811708697925801  0.3598593074757001  0.8522088503831186  1.0000
  S   S192      1.0  0.8839410257644036  0.372198280398255  0.8445725294326508  1.0000
  C   C145      1.0  0.6875298054974517  0.3650139772139312  0.8949519605045189  1.0000
  C   C146      1.0  0.7138172280010647  0.37391550960170694  0.8689976157228645  1.0000
  C   C147      1.0  0.7396666559575024  0.3783381056573784  0.9007423337692858  1.0000
  C   C148      1.0  0.7397444538030573  0.3730097980511668  0.9583235525388168  1.0000
  C   C149      1.0  0.7133775578115621  0.36434651211551516  0.9846452756591006  1.0000
  C   C150      1.0  0.6872169221342039  0.3605099087677313  0.9530137741026402  1.0000
  H   H97       1.0  0.714071742378782  0.37783363232667105  0.8243010691723415  1.0000
  H   H98       1.0  0.759339335488879  0.38637453855323145  0.8806022675843387  1.0000
  H   H99       1.0  0.7131776882792099  0.3604208685735627  0.02927048140331956  1.0000
  H   H100      1.0  0.6670186901042559  0.3537889245238094  0.9734733236363787  1.0000
  C   C151      1.0  0.9469047641932617  0.4129230282268823  0.9230057661189688  1.0000
  C   C152      1.0  0.977455893893264  0.41171950603178437  0.9351414570736654  1.0000
  C   C153      1.0  0.9984879784162505  0.41362605222195586  0.8916907749102467  1.0000
  C   C154      1.0  0.9891250130325397  0.41623413679332355  0.8359493072945192  1.0000
  C   C155      1.0  0.9586612400523766  0.4197800993462195  0.8243674466185099  1.0000
  C   C156      1.0  0.937561466497199  0.4183463054774164  0.8680942870231484  1.0000
  H   H101      1.0  0.9849260337953335  0.4079789398416781  0.9775251212595713  1.0000
  H   H102      1.0  0.021961954195582  0.4119723117082462  0.9013307275046465  1.0000
  H   H103      1.0  0.9511527114683839  0.42253181250195854  0.7816562937582431  1.0000
  H   H104      1.0  0.9139820620932749  0.4208257184308601  0.8590096260915855  1.0000
  C   C157      1.0  0.5016568078575531  0.22869656918368406  0.0630788619871332  1.0000
  C   C158      1.0  0.5128890080821862  0.25379247515201897  0.07863870450128685  1.0000
  C   C159      1.0  0.5298033962098404  0.26890983001877566  0.040014353927839474  1.0000
  C   C160      1.0  0.5353609060266143  0.25871336634716807  0.9862246689432836  1.0000
  C   C161      1.0  0.04504818290439805  0.2563123047378935  0.8910252944557908  1.0000
  C   C162      1.0  0.02292927535054501  0.24837191228023411  0.9293171201718441  1.0000
  H   H105      1.0  0.5091528982937553  0.2611849044152455  0.12077991671423849  1.0000
  H   H106      1.0  0.539391694853687  0.2878471734160459  0.05240877817540901  1.0000
  H   H107      1.0  0.050095408966430055  0.24395525069973895  0.854867316892735  1.0000
  H   H108      1.0  0.011231577548024951  0.22989439255387656  0.9225000747026181  1.0000
  C   C163      1.0  0.5664154079916496  0.14501562995820477  0.9222524573968789  1.0000
  C   C164      1.0  0.5963474880645835  0.1370023158063635  0.9147500082993881  1.0000
  C   C165      1.0  0.6196483789130736  0.15521711771731705  0.9247475045922614  1.0000
  C   C166      1.0  0.6128403441238847  0.1814997965272673  0.9410113473296027  1.0000
  C   C167      1.0  0.5829834206651999  0.1896974752350903  0.9456468143627376  1.0000
  C   C168      1.0  0.559817487775079  0.17136970384114708  0.9374697903035077  1.0000
  H   H109      1.0  0.6015805943625905  0.11659455787066106  0.9030290538610509  1.0000
  H   H110      1.0  0.6427747731231962  0.1487820216722974  0.9209268088206907  1.0000
  H   H111      1.0  0.5778910211443374  0.21024918132832912  0.9560722505349142  1.0000
  H   H112      1.0  0.5367397070785965  0.17760168073391172  0.9423725871207296  1.0000
  C   C169      1.0  0.8188001174333104  0.18554841281173254  0.023015832790238777  1.0000
  C   C170      1.0  0.846403164144467  0.19874249421530343  0.023748808831373758  1.0000
  C   C171      1.0  0.8728332606723493  0.1848514337028725  0.009633670316670173  1.0000
  C   C172      1.0  0.8717195133336544  0.1576002037677063  0.9963994018586521  1.0000
  C   C173      1.0  0.8443355073036956  0.14422131024445775  0.998112548969196  1.0000
  C   C174      1.0  0.8177904764824797  0.1582595952554961  0.010255687401261149  1.0000
  H   H113      1.0  0.8473116896642365  0.21982984451008017  0.03356897338388842  1.0000
  H   H114      1.0  0.8938903618511779  0.1953964250270724  0.00778749165607695  1.0000
  H   H115      1.0  0.8437196513804783  0.12303431626877308  0.9894166719865252  1.0000
  H   H116      1.0  0.7965466590918551  0.1479497066024835  0.010245128409863247  1.0000
  C   C175      1.0  0.7805554088645541  0.2527565195433049  0.8065993857043723  1.0000
  C   C176      1.0  0.8018010410825166  0.23956679266447103  0.8399357843836807  1.0000
  C   C177      1.0  0.8282948395293062  0.25245479602457344  0.8553808174039218  1.0000
  C   C178      1.0  0.8332558877890854  0.27894042012980097  0.8389766916897861  1.0000
  C   C179      1.0  0.8124595196957607  0.2919856867597799  0.8044151868634665  1.0000
  C   C180      1.0  0.78619871119855  0.2788464427450427  0.7879546537688445  1.0000
  H   H117      1.0  0.7979982487379442  0.21940669328837686  0.8537617788999875  1.0000
  H   H118      1.0  0.8444767784918601  0.2421635629957106  0.8815933631017835  1.0000
  H   H119      1.0  0.8167191237049215  0.3120737464190847  0.7897535553869325  1.0000
  H   H120      1.0  0.7700378322533453  0.2890765856234252  0.7616310707421642  1.0000
  C   C181      1.0  0.8160529853845315  0.0685119739635569  0.9444311156331796  1.0000
  C   C182      1.0  0.7980037196843948  0.08699789801608904  0.9730968447796863  1.0000
  C   C183      1.0  0.7733989877481547  0.09887749321697815  0.9462936854077214  1.0000
  C   C184      1.0  0.7663055161286891  0.09166951544405655  0.8913492272650729  1.0000
  C   C185      1.0  0.7841111927779941  0.07296383691842796  0.8627553487248231  1.0000
  C   C186      1.0  0.8091910984254986  0.06159209904983741  0.8891077660786391  1.0000
  H   H121      1.0  0.8032274161153531  0.0923670693147487  0.015944415193070327  1.0000
  H   H122      1.0  0.7597015096836788  0.11336303735212001  0.9684736827472028  1.0000
  H   H123      1.0  0.7788105406024307  0.06763191677587839  0.8199280432315976  1.0000
  H   H124      1.0  0.8235609295724925  0.047987657766874366  0.86612217079345  1.0000
  C   C187      1.0  0.6022224831442758  0.04036197842944772  0.0778262243016008  1.0000
  C   C188      1.0  0.5947875626474055  0.06734483309646637  0.06956117360958802  1.0000
  C   C189      1.0  0.5689766003904632  0.07823260668001672  0.09466569330766994  1.0000
  C   C190      1.0  0.5510608268909134  0.062443857256893685  0.12973628045603047  1.0000
  C   C191      1.0  0.04736592676613083  0.12602787191630657  0.1272917104526312  1.0000
  C   C192      1.0  0.07553914001813844  0.11366219387846936  0.12557382107673254  1.0000
  H   H125      1.0  0.608731771915928  0.0797687361717442  0.043025428459076975  1.0000
  H   H126      1.0  0.5633423541144519  0.09899584678652314  0.08768168181100822  1.0000
  H   H127      1.0  0.03671534504619789  0.1318640043363607  0.08859454535213107  1.0000
  H   H128      1.0  0.08623752053305256  0.10978050125121419  0.08564722940340208  1.0000
  C   C193      1.0  0.7247614127619975  0.9349216056501284  0.9010518048437606  1.0000
  C   C194      1.0  0.7291482413943119  0.9247215415177393  0.9551718174403314  1.0000
  C   C195      1.0  0.7582961172065903  0.9220316064858055  0.9766221504521698  1.0000
  C   C196      1.0  0.7829769889493706  0.9300747722486915  0.9444230657812259  1.0000
  C   C197      1.0  0.7784952321432073  0.9402231545337238  0.8903733866823159  1.0000
  C   C198      1.0  0.7494924385256444  0.9423972735085602  0.8684739791595778  1.0000
  H   H129      1.0  0.7101536958073931  0.9183572101044285  0.9800336926378367  1.0000
  H   H130      1.0  0.7616811783758757  0.9139324427034038  0.01829975755285873  1.0000
  H   H131      1.0  0.7974340863828402  0.9458733312945398  0.8649210617598837  1.0000
  H   H132      1.0  0.7462077759561395  0.9501406844173398  0.8264677495509162  1.0000
  C   C199      1.0  0.0017467576188900935  0.9925427214623512  0.10688397385093973  1.0000
  C   C200      1.0  0.9706883383950856  0.9910577118740479  0.09971336748581816  1.0000
  C   C201      1.0  0.958839493879329  0.983722115407837  0.04758269576445495  1.0000
  C   C202      1.0  0.9780050122624133  0.9776100977979785  0.0027411489606945505  1.0000
  C   C203      1.0  0.009079055335327046  0.9788361751123371  0.010138535585363373  1.0000
  C   C204      1.0  0.020956836499712805  0.9864153205434949  0.06211358244062226  1.0000
  H   H133      1.0  0.9558156134466687  0.9955253310127192  0.13447503160483842  1.0000
  H   H134      1.0  0.9349344700844371  0.9822584278894858  0.04249553798100725  1.0000
  H   H135      1.0  0.024001090680001003  0.9739617569492319  0.9756727261357331  1.0000
  H   H136      1.0  0.04497882858524793  0.9872559001532981  0.06756174907565637  1.0000
  C   C205      1.0  0.8919457347358833  0.39523916031181466  0.5987907363727357  1.0000
  C   C206      1.0  0.8884664013817456  0.377335940911598  0.6436694118359023  1.0000
  C   C207      1.0  0.8718569548193298  0.3848894380383483  0.6913331248454934  1.0000
  C   C208      1.0  0.8589568881308627  0.41047037170437645  0.6943551324659817  1.0000
  C   C209      1.0  0.8632635381454062  0.4286226486805103  0.650230369775101  1.0000
  C   C210      1.0  0.8797807624880221  0.4210523694865322  0.602582015148991  1.0000
  H   H137      1.0  0.8978783056942283  0.35734357922858967  0.6409107007572776  1.0000
  H   H138      1.0  0.8681292403482721  0.3705989599232474  0.7247284678336727  1.0000
  H   H139      1.0  0.8534997018347501  0.4484980947508736  0.6526845698290682  1.0000
  H   H140      1.0  0.8831284980188101  0.43526858014223657  0.5689552009590902  1.0000
  C   C211      1.0  0.6318732651426872  0.3803701752470216  0.21398758804133822  1.0000
  C   C212      1.0  0.1175816190618475  0.4511946259463122  0.05002678757864132  1.0000
  C   C213      1.0  0.10390394405958037  0.42843359221551947  0.027807945127734657  1.0000
  C   C214      1.0  0.5949794255387165  0.39272015109645536  0.12268913865147146  1.0000
  C   C215      1.0  0.6045206675890539  0.412996948206567  0.15857385791418865  1.0000
  C   C216      1.0  0.6228255479094174  0.40683873356159134  0.2043789425692768  1.0000
  H   H141      1.0  0.13242129459873753  0.46306839447560977  0.02408559020769152  1.0000
  H   H142      1.0  0.10854185952786288  0.42264288116615045  0.9850750919288741  1.0000
  H   H143      1.0  0.5977229405072257  0.43348307960099974  0.15075087116509356  1.0000
  H   H144      1.0  0.6298114856517212  0.42259926529365555  0.23235987355092047  1.0000
  C   C217      1.0  0.9954448146412717  0.4252046914217324  0.3075863202972114  1.0000
  C   C218      1.0  0.0005529691033006046  0.41701309963609096  0.362895316159478  1.0000
  C   C219      1.0  0.029282733731817334  0.41910647197173845  0.38606837792858656  1.0000
  C   C220      1.0  0.05285326110793287  0.42969770447029265  0.35423422810804817  1.0000
  C   C221      1.0  0.04773164138823627  0.4379261357453947  0.2989157731105479  1.0000
  C   C222      1.0  0.019083022534074567  0.43550750933781124  0.2754367797187302  1.0000
  H   H145      1.0  0.982523687528112  0.40852428157028653  0.3874607426724811  1.0000
  H   H146      1.0  0.033320816722008484  0.4124595493167876  0.42862812571040376  1.0000
  H   H147      1.0  0.06596846668270095  0.4458428110137054  0.2741403970059048  1.0000
  H   H148      1.0  0.01521473208672508  0.44193290383696726  0.23267935028260148  1.0000
  C   C223      1.0  0.7342745229981883  0.4393594000876978  0.4342487322636931  1.0000
  C   C224      1.0  0.7614621263710316  0.45318725333179916  0.43451100497220446  1.0000
  C   C225      1.0  0.785688619403173  0.44391724024924095  0.4019587717871473  1.0000
  C   C226      1.0  0.7827539725001208  0.420743634883206  0.36946046229131535  1.0000
  C   C227      1.0  0.7553296510170158  0.40733616207273693  0.3683283659406352  1.0000
  C   C228      1.0  0.731106950311509  0.41665330148989177  0.4005618438171684  1.0000
  H   H149      1.0  0.7637946431149021  0.47110457936439576  0.4596098513609383  1.0000
  H   H150      1.0  0.8065058083614078  0.45487219641904025  0.4016281507710667  1.0000
  H   H151      1.0  0.7530702971923646  0.3892185959445936  0.34400930606792063  1.0000
  H   H152      1.0  0.7102277760738315  0.40574938564566254  0.40059888921446946  1.0000
  C   C229      1.0  0.041361805962674136  0.5849227586120164  0.358428988701051  1.0000
  C   C230      1.0  0.5335577820429915  0.5175124368245312  0.37225435943446633  1.0000
  C   C231      1.0  0.5620665783666526  0.5063966448132972  0.363340206190604  1.0000
  C   C232      1.0  0.09985427290729176  0.5652102807529011  0.37147730280169833  1.0000
  C   C233      1.0  0.08311845530690598  0.5728701007766338  0.41851418833920473  1.0000
  C   C234      1.0  0.05373820782288763  0.582337868211788  0.4120286365918267  1.0000
  H   H153      1.0  0.5186737627099961  0.5088035180032084  0.40310687939909395  1.0000
  H   H154      1.0  0.5690039896354451  0.48893155626987395  0.38680927824183414  1.0000
  H   H155      1.0  0.0927124552601728  0.5712848378839058  0.4600591315170591  1.0000
  H   H156      1.0  0.04070518200895101  0.5877923444407855  0.4487038892896499  1.0000
  C   C235      1.0  0.6437057965064789  0.6192179020360307  0.3697668856402532  1.0000
  C   C236      1.0  0.6466721048135382  0.6416106317513098  0.4042511008685217  1.0000
  C   C237      1.0  0.6215558565843952  0.6524274371468122  0.43122585512509926  1.0000
  C   C238      1.0  0.5934711198929551  0.6407966950209025  0.4247522285503054  1.0000
  C   C239      1.0  0.5904778381201007  0.6179452585986914  0.3913017820239859  1.0000
  C   C240      1.0  0.6156361353772409  0.6072258290348772  0.36340141374130785  1.0000
  H   H157      1.0  0.6682340665094515  0.6510356728995617  0.4091433693753563  1.0000
  H   H158      1.0  0.6237313484150226  0.6701630941651162  0.4561495096461009  1.0000
  H   H159      1.0  0.5689299266541463  0.6084193234907049  0.38708177751792244  1.0000
  H   H160      1.0  0.6133314502203715  0.5896808429674587  0.33716300048871317  1.0000
  C   C241      1.0  0.8472848140010938  0.6626798442543791  0.3933933454434127  1.0000
  C   C242      1.0  0.8772491132715825  0.6598254239090284  0.3768408786524854  1.0000
  C   C243      1.0  0.9002981168004032  0.6666500770351674  0.4139274573755733  1.0000
  C   C244      1.0  0.8933206000244057  0.6772081441729457  0.46675271535398605  1.0000
  C   C245      1.0  0.863421990009535  0.6808321560519488  0.48243277937161155  1.0000
  C   C246      1.0  0.8404289338869685  0.6729986915118159  0.44647656568157174  1.0000
  H   H161      1.0  0.8826572034901001  0.6518460247662196  0.3357853049648475  1.0000
  H   H162      1.0  0.9233418803977838  0.6635677826747731  0.40160727679344915  1.0000
  H   H163      1.0  0.8581485414719578  0.6893403008781694  0.5229441668951643  1.0000
  H   H164      1.0  0.817470683752481  0.6759097586708812  0.45935878638402894  1.0000
  C   C247      1.0  0.8011668164953604  0.5428719577758296  0.48698806483912427  1.0000
  C   C248      1.0  0.8192201611131631  0.5575156991248821  0.4499914156677843  1.0000
  C   C249      1.0  0.8473052315833104  0.5473915708707741  0.43350146021060043  1.0000
  C   C250      1.0  0.8573093308098366  0.5225522538945283  0.45362542178673587  1.0000
  C   C251      1.0  0.8390309916368793  0.5076949175558193  0.48981540785531424  1.0000
  C   C252      1.0  0.8110268227288698  0.5178922124468391  0.5066254895878249  1.0000
  H   H165      1.0  0.811859484050181  0.5768694850029855  0.4348362685896769  1.0000
  H   H166      1.0  0.8611993273960129  0.5587520233612953  0.4048594468468413  1.0000
  H   H167      1.0  0.8468100268282619  0.48870806982692533  0.506185885321944  1.0000
  H   H168      1.0  0.7971580782363469  0.506580847897757  0.5353970439289812  1.0000
  C   C253      1.0  0.8277077158490421  0.9042434328478465  0.7055427540642091  1.0000
  C   C254      1.0  0.8170359772925275  0.92249353970385  0.7452996654070593  1.0000
  C   C255      1.0  0.8319233144170513  0.9467123740776582  0.7533701242721403  1.0000
  C   C256      1.0  0.8570726575871217  0.9530081646935585  0.720961946515077  1.0000
  C   C257      1.0  0.8670444344709418  0.935259720722999  0.6794281460875033  1.0000
  C   C258      1.0  0.8525263926514725  0.9106782169482851  0.6721378067416081  1.0000
  H   H169      1.0  0.7974055171385052  0.9178764127571788  0.7702236731300518  1.0000
  H   H170      1.0  0.8238243997490189  0.9607074422064719  0.784407704665102  1.0000
  H   H171      1.0  0.8864804432566251  0.9400757499337206  0.6541475692879446  1.0000
  H   H172      1.0  0.8610736318855524  0.8964972521069698  0.6416938880958851  1.0000
  C   C259      1.0  0.7981648518779825  0.7394634244730618  0.5652093583515299  1.0000
  C   C260      1.0  0.8002682980242872  0.7118169216086154  0.5737299255538769  1.0000
  C   C261      1.0  0.7750043046653166  0.695693410977631  0.5677431225058278  1.0000
  C   C262      1.0  0.7473726898294075  0.7072188102847174  0.554245811866256  1.0000
  C   C263      1.0  0.7447208197088553  0.7351006446746938  0.5490350337104014  1.0000
  C   C264      1.0  0.7702269525255682  0.7512715089655633  0.554162949742285  1.0000
  H   H173      1.0  0.8215982077986301  0.7027915732287625  0.5842556687458703  1.0000
  H   H174      1.0  0.7769120493139169  0.6743084233727329  0.5738009820076572  1.0000
  H   H175      1.0  0.7232766441577506  0.7440657859555216  0.5389807697497627  1.0000
  H   H176      1.0  0.7684030396373378  0.7726585984374309  0.5480609358833599  1.0000
  C   C265      1.0  0.5793840294058376  0.8917476117913944  0.27798067816979916  1.0000
  C   C266      1.0  0.11507286705543263  0.9183649274762834  0.40462427706776216  1.0000
  C   C267      1.0  0.12936277531110796  0.9409556738846316  0.38247984673796  1.0000
  C   C268      1.0  0.6031650042377418  0.8929435207342835  0.1687494343465179  1.0000
  C   C269      1.0  0.6030394268688181  0.9162535102066618  0.2013910216451842  1.0000
  C   C270      1.0  0.5911733567189009  0.9156288147033633  0.2562583378122667  1.0000
  H   H177      1.0  0.11740837105902613  0.9136972985337126  0.4486292839417238  1.0000
  H   H178      1.0  0.14234569699735777  0.9537301428913393  0.40971533026360984  1.0000
  H   H179      1.0  0.6137895579885067  0.934171935353443  0.18582868097764926  1.0000
  H   H180      1.0  0.5928906279942625  0.9330603627788613  0.28292564309568125  1.0000
  C   C271      1.0  0.09650038309015208  0.7682568518706443  0.5527695422415396  1.0000
  C   C272      1.0  0.5088367570419949  0.7383817339740604  0.19319924149143097  1.0000
  C   C273      1.0  0.4885297709810536  0.7171919816232706  0.19812470650275119  1.0000
  C   C274      1.0  0.4814454433787868  0.706841237843197  0.2511008501812648  1.0000
  C   C275      1.0  0.07453828933097673  0.7268744177408475  0.5204155012701932  1.0000
  C   C276      1.0  0.08714939501425123  0.7420984390366426  0.5635070441161432  1.0000
  H   H181      1.0  0.5153799724046432  0.745610891371389  0.152108439368011  1.0000
  H   H182      1.0  0.4793669314757149  0.7080817292211823  0.1608120816048757  1.0000
  H   H183      1.0  0.06694455397255639  0.7068110688827727  0.5286343377235673  1.0000
  H   H184      1.0  0.08893878847229231  0.7338638584958915  0.6054266764899061  1.0000
  C   C277      1.0  0.6840349807410271  0.8039603408880488  0.4370053079418414  1.0000
  C   C278      1.0  0.6771228395715779  0.831071195561704  0.4292499913213949  1.0000
  C   C279      1.0  0.6995993465825873  0.850419232564106  0.43479663668236085  1.0000
  C   C280      1.0  0.7288260748112159  0.8426598584488685  0.44911823811583107  1.0000
  C   C281      1.0  0.73550526373407  0.815632444359686  0.4584048989138235  1.0000
  C   C282      1.0  0.7131850041071828  0.7962630606404077  0.45185052103701245  1.0000
  H   H185      1.0  0.6544511382890799  0.8370699986749044  0.4190517655430592  1.0000
  H   H186      1.0  0.6943015922791533  0.871382049113573  0.42839917528524835  1.0000
  H   H187      1.0  0.7579706046884682  0.8096551536379697  0.47002197181397254  1.0000
  H   H188      1.0  0.7185026749514887  0.7753050693180489  0.4581836653816508  1.0000
  C   C283      1.0  0.9849943780947787  0.8809190752588787  0.5998703498863505  1.0000
  C   C284      1.0  0.9562143624355094  0.8758587896011965  0.6210789220445897  1.0000
  C   C285      1.0  0.9325765567778797  0.8699056053866531  0.5844065578511086  1.0000
  C   C286      1.0  0.9377044285461015  0.868906661906041  0.5264388512948481  1.0000
  C   C287      1.0  0.9663961464304043  0.8742636417095416  0.5053013551270994  1.0000
  C   C288      1.0  0.9899701964567765  0.8802624673251007  0.5418848578122707  1.0000
  H   H189      1.0  0.9523130071239978  0.875948978254702  0.6658748059197513  1.0000
  H   H190      1.0  0.9104728165809317  0.8659790624954513  0.6009952155198043  1.0000
  H   H191      1.0  0.9704629677613644  0.8735932821743482  0.46051193685566705  1.0000
  H   H192      1.0  0.011980953804409333  0.8845523345321279  0.5250817145661083  1.0000
  N   N1        1.0  0.2441346941197923  0.05402085956142155  0.09869751271643956  1.0000
  C   C289      1.0  0.2691904351113385  0.05009719883627062  0.05863054933559919  1.0000
  C   C290      1.0  0.2437358211806201  0.08208016875328528  0.118487074839978  1.0000
  C   C291      1.0  0.24797319979821217  0.035688229104335  0.14699358977963217  1.0000
  C   C292      1.0  0.21548525442726987  0.04818046181117852  0.07053119114128203  1.0000
  H   H193      1.0  0.26960232516299837  0.029265900701434422  0.04172334889692597  1.0000
  H   H194      1.0  0.2912540475517526  0.05367407815844327  0.07877742944446431  1.0000
  H   H195      1.0  0.26733067992289267  0.06402865491562504  0.022219243486489848  1.0000
  H   H196      1.0  0.22522091686233559  0.08563119961403265  0.14916370734605833  1.0000
  H   H197      1.0  0.26516184554497446  0.08745525521356101  0.13934024265333123  1.0000
  H   H198      1.0  0.2403599353422955  0.09635281169274101  0.08298571047380099  1.0000
  H   H199      1.0  0.22889595789240136  0.0373819110465925  0.17712932622968514  1.0000
  H   H200      1.0  0.2690103453900408  0.03989507718094343  0.17016765592442007  1.0000
  H   H201      1.0  0.24918726566546476  0.014410732685643746  0.13309380329110243  1.0000
  H   H202      1.0  0.19601449645627772  0.05143285893088212  0.09909878740949152  1.0000
  H   H203      1.0  0.21472663928209584  0.027071217626000177  0.055968606389331876  1.0000
  H   H204      1.0  0.21219642036305875  0.06120119658541001  0.03319260775789101  1.0000
  N   N2        1.0  0.9863189735551618  0.41984827608201786  0.6106084855075546  1.0000
  C   C293      1.0  0.9958728631977471  0.40735933285847137  0.5571514795747272  1.0000
  C   C294      1.0  0.9628036719892299  0.4401517437073516  0.5993546717729543  1.0000
  C   C295      1.0  0.012261883632629589  0.4328468157804328  0.6374205605051357  1.0000
  C   C296      1.0  0.9743020392578  0.399036652845241  0.6486224519081922  1.0000
  H   H205      1.0  0.004869959279217628  0.4224842048696919  0.527208521921765  1.0000
  H   H206      1.0  0.9767586825489257  0.3972485732208556  0.5360731588876688  1.0000
  H   H207      1.0  0.013663875932094172  0.39197199753704526  0.5640306788285474  1.0000
  H   H208      1.0  0.9542911520392596  0.44933161375134245  0.638937689329588  1.0000
  H   H209      1.0  0.9712817751528379  0.4565125112832865  0.571903317033701  1.0000
  H   H210      1.0  0.9432704985050467  0.43114958551610433  0.5777412413065426  1.0000
  H   H211      1.0  0.030087525068057897  0.4179813643354398  0.6481746106852059  1.0000
  H   H212      1.0  0.005615059047756832  0.44285011936094754  0.6773904731056294  1.0000
  H   H213      1.0  0.022430921277140303  0.448259837996616  0.6095645861825496  1.0000
  H   H214      1.0  0.9916891433516049  0.38377742453068525  0.659250838710146  1.0000
  H   H215      1.0  0.9550787416373147  0.3883997020443998  0.6293692309552332  1.0000
  H   H216      1.0  0.9663051347080833  0.4078314974041752  0.6888940686798498  1.0000
  N   N3        1.0  0.9886217658241981  0.5146191740864923  0.3485195832701305  1.0000
  C   C297      1.0  0.9798760112268686  0.5326439002167813  0.3020106254318831  1.0000
  C   C298      1.0  0.9839192192927181  0.5284732613158615  0.4026711882486447  1.0000
  C   C299      1.0  0.020584147119404594  0.5069866454444862  0.3424911559928511  1.0000
  C   C300      1.0  0.9699503258126099  0.49032346047548636  0.3468727425979298  1.0000
  H   H217      1.0  0.9820774643670126  0.5225523214373445  0.2606341701280404  1.0000
  H   H218      1.0  0.9942081880459995  0.5507580943520561  0.30063221996934003  1.0000
  H   H219      1.0  0.9562232023397914  0.5396374700413921  0.3066880571203823  1.0000
  H   H220      1.0  0.959935983648755  0.5342772780089171  0.4087421573628577  1.0000
  H   H221      1.0  0.9904814879297661  0.5155297540101911  0.43868702869999  1.0000
  H   H222      1.0  0.9973331704797499  0.5471661971821261  0.40503673821410513  1.0000
  H   H223      1.0  0.0278298543776061  0.4929451100046743  0.37630569358909016  1.0000
  H   H224      1.0  0.0354007187980776  0.5248123792428575  0.3446232243032775  1.0000
  H   H225      1.0  0.024995457021017575  0.4968205610963108  0.3017367642428892  1.0000
  H   H226      1.0  0.977057498987955  0.47564135874662733  0.3794038431326115  1.0000
  H   H227      1.0  0.9717153272157916  0.48006307476702254  0.3055765628941534  1.0000
  H   H228      1.0  0.9457953252675614  0.4951426217084836  0.354137923815779  1.0000
  N   N4        1.0  0.967875367655851  0.37762300919739633  0.12743402273856574  1.0000
  C   C301      1.0  0.9501030855124958  0.40216743583914877  0.11636487020552755  1.0000
  C   C302      1.0  0.9688510034619557  0.3608802092973111  0.07629443737378129  1.0000
  C   C303      1.0  0.9538052798896939  0.36242918824118975  0.17379738836991357  1.0000
  C   C304      1.0  0.9987102176902649  0.3850670336909485  0.1434128414372262  1.0000
  H   H229      1.0  0.9598228363122266  0.41401306393145915  0.08120753722067509  1.0000
  H   H230      1.0  0.9489453802333871  0.4152798572301565  0.1541450440716823  1.0000
  H   H231      1.0  0.9266485007185337  0.3973266619188493  0.10428369973001696  1.0000
  H   H232      1.0  0.9803173965592252  0.37139998118157014  0.0411310934937279  1.0000
  H   H233      1.0  0.9812372517705539  0.3417494519229107  0.08366071105661833  1.0000
  H   H234      1.0  0.9458697237527776  0.35586311911513  0.061685995649694014  1.0000
  H   H235      1.0  0.9666852026429797  0.3438414410040889  0.18363763669564806  1.0000
  H   H236      1.0  0.9304817032036808  0.356530553193277  0.163219107581994  1.0000
  H   H237      1.0  0.9526394075721438  0.374563415188854  0.21299569915560412  1.0000
  H   H238      1.0  0.012918733690111539  0.36703947530372494  0.1513266148262118  1.0000
  H   H239      1.0  0.9987870426784243  0.397389963338503  0.18237172109100055  1.0000
  H   H240      1.0  0.009912820796623478  0.39680048930734063  0.10961267791462515  1.0000
  N   N5        1.0  0.5115653907496068  0.3884821170219874  0.6542614441543718  1.0000
  C   C305      1.0  0.5293027717867032  0.40367373245910604  0.6955231815895693  1.0000
  C   C306      1.0  0.4927934009078601  0.3686056476995413  0.6838181948725518  1.0000
  C   C307      1.0  0.5321069492646933  0.37449897640377056  0.6151151865477417  1.0000
  C   C308      1.0  0.49208380946527575  0.40715503027704447  0.6225767960202124  1.0000
  H   H241      1.0  0.5145428809440149  0.4142945737893635  0.7261298236535425  1.0000
  H   H242      1.0  0.5437180064829211  0.4188544395494502  0.6745744748564535  1.0000
  H   H243      1.0  0.5441799940604901  0.39016584507994667  0.7204040125961676  1.0000
  H   H244      1.0  0.4794473752137053  0.35651163649636725  0.6538062901425171  1.0000
  H   H245      1.0  0.5066426271309721  0.35459338511963623  0.70944124781945  1.0000
  H   H246      1.0  0.47658259950584536  0.3785320111832813  0.712854776574961  1.0000
  H   H247      1.0  0.5195767684402908  0.3634150268537445  0.5823162387840434  1.0000
  H   H248      1.0  0.5467316080588176  0.3598752413916102  0.6375015958755291  1.0000
  H   H249      1.0  0.5470558116433223  0.3888747101686237  0.5929937463704001  1.0000
  H   H250      1.0  0.5054847318988845  0.42164065331151074  0.5973704723234364  1.0000
  H   H251      1.0  0.47702173540653386  0.4186886196459736  0.6510615714036562  1.0000
  H   H252      1.0  0.47728526624281886  0.39618706865153347  0.5930991960351979  1.0000
  N   N6        1.0  0.2936436442360688  0.2588914413021781  0.11665366624159423  1.0000
  C   C309      1.0  0.27609242284047053  0.2731448143070282  0.16018240746403611  1.0000
  C   C310      1.0  0.32589358650674094  0.2603039927676322  0.13039895295754  1.0000
  C   C311      1.0  0.2881213713811225  0.2715637407392831  0.06145352375522628  1.0000
  C   C312      1.0  0.284476513311831  0.2305219378148902  0.1146070737665712  1.0000
  H   H253      1.0  0.2516435845598119  0.272513277137186  0.15113886213147554  1.0000
  H   H254      1.0  0.2826434848306724  0.29461337639132346  0.1626387335052477  1.0000
  H   H255      1.0  0.2796219417314151  0.26406865567377413  0.20240177778445334  1.0000
  H   H256      1.0  0.33967877844163885  0.2484614534919146  0.10028513756887647  1.0000
  H   H257      1.0  0.3342531681611542  0.2812663350590504  0.12869209615455524  1.0000
  H   H258      1.0  0.33061710995966287  0.25212639156179406  0.17296333746946546  1.0000
  H   H259      1.0  0.2638869453386643  0.27163441207727207  0.05063252450837341  1.0000
  H   H260      1.0  0.3000475762583685  0.2607054977375448  0.0272678567836786  1.0000
  H   H261      1.0  0.29604796173857256  0.29266861538253225  0.0604665990415445  1.0000
  H   H262      1.0  0.29720555927013137  0.219306942688654  0.0817213976300768  1.0000
  H   H263      1.0  0.2602518795285011  0.22844903715587525  0.10476644684405723  1.0000
  H   H264      1.0  0.2887113242542691  0.22004152025643184  0.15515339417020013  1.0000
  N   N7        1.0  0.8034329198718426  0.7418180549400532  0.3847771978859792  1.0000
  C   C313      1.0  0.8016345708685475  0.7410274102756076  0.32287236206870595  1.0000
  C   C314      1.0  0.7929507079499758  0.7681641626275227  0.4053268712981408  1.0000
  C   C315      1.0  0.8348805106447689  0.7374882812838138  0.4022764121428401  1.0000
  C   C316      1.0  0.7842359540484524  0.7205941827002317  0.4086287349195671  1.0000
  H   H265      1.0  0.7782340912362199  0.7443304091185244  0.3082593666269215  1.0000
  H   H266      1.0  0.8092024050792925  0.7211638445169618  0.3064160894866992  1.0000
  H   H267      1.0  0.8160842206901155  0.7565794558880657  0.303306107903598  1.0000
  H   H268      1.0  0.8062461291632276  0.7847720440908112  0.38677579106402965  1.0000
  H   H269      1.0  0.7689886498057917  0.7718033235217134  0.39480881503293813  1.0000
  H   H270      1.0  0.795202507763862  0.7695401886566161  0.45176780297939334  1.0000
  H   H271      1.0  0.8368420446985332  0.7358491258241306  0.448825322218887  1.0000
  H   H272      1.0  0.8495495731236012  0.7542390609073264  0.38867399805397834  1.0000
  H   H273      1.0  0.8443674276837905  0.7187954964467184  0.3839484686688125  1.0000
  H   H274      1.0  0.7866520651527885  0.7192295121067293  0.4549228683254538  1.0000
  H   H275      1.0  0.790148335445966  0.7006500425623982  0.3910787175748411  1.0000
  H   H276      1.0  0.7600903393297915  0.7242068185205903  0.3996034327254354  1.0000
  N   N8        1.0  0.3597769756860194  0.12476247872710088  0.8701865648849207  1.0000
  C   C317      1.0  0.3364551019390502  0.13303368530721402  0.829665248840256  1.0000
  C   C318      1.0  0.3524690008007711  0.09802544073946343  0.8929997321003136  1.0000
  C   C319      1.0  0.3610040121508617  0.14442024800175687  0.9163915773537515  1.0000
  C   C320      1.0  0.3892247730183407  0.1235786711607384  0.8416227401022244  1.0000
  H   H277      1.0  0.34108838506542827  0.15322952446449975  0.8117822596378889  1.0000
  H   H278      1.0  0.31394429260178564  0.1341821146646173  0.8499686328677986  1.0000
  H   H279      1.0  0.3349147048505949  0.11873654347353299  0.7940709292763001  1.0000
  H   H280      1.0  0.3516081222085957  0.0826842014104128  0.8592452987485576  1.0000
  H   H281      1.0  0.3695151605573435  0.09108616398134203  0.9237400704276056  1.0000
  H   H282      1.0  0.33032795410007726  0.09806828794808008  0.914735719041895  1.0000
  H   H283      1.0  0.364551812936998  0.16510325043670732  0.900234784935583  1.0000
  H   H284      1.0  0.3795956975481097  0.1398050191768032  0.9458986239090152  1.0000
  H   H285      1.0  0.3398691741211704  0.14455135546909598  0.9412736334522578  1.0000
  H   H286      1.0  0.39547793186200814  0.14347457563809696  0.8240985978514634  1.0000
  H   H287      1.0  0.3890986945817708  0.108937123483605  0.8064376795183292  1.0000
  H   H288      1.0  0.4072497291484589  0.11728859044912421  0.871239766276647  1.0000
  N   N9        1.0  0.9696367204794613  0.9514987997439034  0.7583467476934772  1.0000
  C   C321      1.0  0.9582905497229163  0.9767194514908477  0.7832090861610409  1.0000
  C   C322      1.0  0.9768780553336287  0.9322628746267683  0.8036621678888505  1.0000
  C   C323      1.0  0.9969384653885033  0.9569174869718132  0.7249423771055342  1.0000
  C   C324      1.0  0.9464153287184583  0.9400531226209977  0.7215663008675476  1.0000
  H   H289      1.0  0.97500917207409  0.9857880228752244  0.8119766126757889  1.0000
  H   H290      1.0  0.9376258974908315  0.9732147124781314  0.8083083718669513  1.0000
  H   H291      1.0  0.952422163848803  0.99172338277926  0.7503309120886733  1.0000
  H   H292      1.0  0.9855409421650967  0.912972074677511  0.7863511737532232  1.0000
  H   H293      1.0  0.9942402256314469  0.9403734127180218  0.8324100105303397  1.0000
  H   H294      1.0  0.9568364360911868  0.9279024392208357  0.8300645203260624  1.0000
  H   H295      1.0  0.014940462112366104  0.9656099611667247  0.7513441551361998  1.0000
  H   H296      1.0  0.9922478884431237  0.9711604169762528  0.6900221806442217  1.0000
  H   H297      1.0  0.006109883032127783  0.9381958769770586  0.7058014329810693  1.0000
  H   H298      1.0  0.9545294063864352  0.9213880858435073  0.7008653986099663  1.0000
  H   H299      1.0  0.9398249665051189  0.9543664030819148  0.6878022120608999  1.0000
  H   H300      1.0  0.9256520805621575  0.9352609599383307  0.7455534395485482  1.0000
  N   N10       1.0  0.25193599002364586  0.41019596743310643  0.6844453643986853  1.0000
  C   C325      1.0  0.25977669934056635  0.436929852981897  0.6621084731220536  1.0000
  C   C326      1.0  0.2718623132823011  0.40338491874953314  0.7319035060040339  1.0000
  C   C327      1.0  0.25572125406741075  0.39000427774242036  0.6396254362963867  1.0000
  C   C328      1.0  0.22042335329589785  0.4103824027751951  0.7040252348070531  1.0000
  H   H301      1.0  0.24554183559039075  0.442426822203334  0.625476402636436  1.0000
  H   H302      1.0  0.28345069208576146  0.43746372125159877  0.6470668311734744  1.0000
  H   H303      1.0  0.2569013333729912  0.4528435947987778  0.6943773899606777  1.0000
  H   H304      1.0  0.2668848687684001  0.3830948779793583  0.7489996902945463  1.0000
  H   H305      1.0  0.29584763634416905  0.4032219021770184  0.718813443583907  1.0000
  H   H306      1.0  0.26923621467454284  0.4178740183990422  0.7670289051151482  1.0000
  H   H307      1.0  0.2791817693110272  0.3895830025394649  0.6234670072317754  1.0000
  H   H308      1.0  0.241101147646098  0.39450581993531203  0.6029503722901798  1.0000
  H   H309      1.0  0.25036437677388484  0.3694937218692326  0.6549205536338962  1.0000
  H   H310      1.0  0.21367361649700856  0.3904597870411928  0.7208231030175487  1.0000
  H   H311      1.0  0.2047066118022974  0.4156201782204509  0.6694738086972457  1.0000
  H   H312      1.0  0.2167229756432355  0.42514058362480617  0.7384260087295801  1.0000
  N   N11       1.0  0.11031751826722222  0.19082808186247233  0.12865109422118715  1.0000
  C   C329      1.0  0.10274544765821031  0.21583217765192111  0.09838484081484355  1.0000
  C   C330      1.0  0.11487812669200463  0.16890144257257797  0.0878547925917057  1.0000
  C   C331      1.0  0.08558438742833262  0.1839361311622863  0.1674312896124508  1.0000
  C   C332      1.0  0.13818890179612858  0.19459404103982342  0.16093695238100536  1.0000
  H   H313      1.0  0.09839568399380276  0.2326785842454387  0.12784681835025458  1.0000
  H   H314      1.0  0.08226661739628259  0.2133882107120177  0.07232651331016982  1.0000
  H   H315      1.0  0.12123907176691288  0.22194232398427424  0.06966910217509548  1.0000
  H   H316      1.0  0.12103487411087117  0.14982401470052556  0.10928407909395088  1.0000
  H   H317      1.0  0.09428634328516212  0.1652887889872574  0.0626720290185796  1.0000
  H   H318      1.0  0.13337266704885223  0.17352009453072184  0.058032416284811816  1.0000
  H   H319      1.0  0.0905781602941232  0.1652144521643707  0.19111878542052918  1.0000
  H   H320      1.0  0.06422522538070662  0.18073096898825747  0.14446709003172353  1.0000
  H   H321      1.0  0.08134208982893407  0.20005202125534513  0.19867749382120725  1.0000
  H   H322      1.0  0.15731268652357966  0.19967088675092848  0.1326924094120896  1.0000
  H   H323      1.0  0.14443955820226348  0.1759877174798297  0.18420698989085849  1.0000
  H   H324      1.0  0.13566984252682782  0.2110031540886248  0.19216516548661966  1.0000
  N   N12       1.0  0.6867374982027574  0.5297530009660013  0.4121107730654166  1.0000
  C   C333      1.0  0.6569695531004035  0.5427453187878105  0.4067915344638937  1.0000
  C   C334      1.0  0.6865744472309551  0.5038310808036564  0.3826652500709099  1.0000
  C   C335      1.0  0.6937797857402281  0.5253226319485911  0.4720417921651771  1.0000
  C   C336      1.0  0.7097595283065771  0.5470542844861004  0.3866888394412231  1.0000
  H   H325      1.0  0.651275128762402  0.5466336009797016  0.36195337612023665  1.0000
  H   H326      1.0  0.6562275628405874  0.5624182465714475  0.4286925196354798  1.0000
  H   H327      1.0  0.6388748575015731  0.5299505422163739  0.42443545483072526  1.0000
  H   H328      1.0  0.7087840799792435  0.4935785923445787  0.38514577910552933  1.0000
  H   H329      1.0  0.6698402466459127  0.49026440696309453  0.4018515190106446  1.0000
  H   H330      1.0  0.6806231100432699  0.5062929793769831  0.3375765174658648  1.0000
  H   H331      1.0  0.6946239991489813  0.5445656748443852  0.4954985005373716  1.0000
  H   H332      1.0  0.7160542839860498  0.5153567103711055  0.4772234652417232  1.0000
  H   H333      1.0  0.6768850344671765  0.512208337554525  0.4926259725509258  1.0000
  H   H334      1.0  0.7326554859295926  0.5382773818157469  0.3912684869246742  1.0000
  H   H335      1.0  0.7097767887221763  0.5669031549399326  0.40726988376152967  1.0000
  H   H336      1.0  0.7054419474667878  0.5505793184796769  0.34123819527841825  1.0000
  N   N13       1.0  0.9866874589447617  0.7785549368471847  0.5117243076534276  1.0000
  C   C337      1.0  0.9737427314938238  0.8042032679670506  0.53160737551787  1.0000
  C   C338      1.0  0.0024932196764559933  0.7829721198773218  0.4578548665584939  1.0000
  C   C339      1.0  0.9624454419996181  0.7588583508914137  0.5036330492311827  1.0000
  C   C340      1.0  0.008165760694410551  0.768159892368469  0.5536904448747516  1.0000
  H   H337      1.0  0.9614588591969084  0.8017093787431141  0.5720116717720941  1.0000
  H   H338      1.0  0.9575602312516992  0.8127511610425117  0.500734733233561  1.0000
  H   H339      1.0  0.9914521436871369  0.819473294505447  0.5384187740995248  1.0000
  H   H340      1.0  0.021371220361584342  0.7972877379385066  0.46267720350687397  1.0000
  H   H341      1.0  0.012142650625030171  0.7639400163271826  0.44115083343343797  1.0000
  H   H342      1.0  0.9871395842835943  0.7912552069698444  0.4253650486940846  1.0000
  H   H343      1.0  0.9713978963073153  0.7393128040581242  0.4881141285009517  1.0000
  H   H344      1.0  0.9456578298859148  0.766121118800116  0.4725863809526777  1.0000
  H   H345      1.0  0.9502219210331451  0.7547313056687294  0.5435594809675138  1.0000
  H   H346      1.0  0.01774547123743031  0.7485257929026327  0.5404224765610831  1.0000
  H   H347      1.0  0.9972595247858971  0.7651295612323344  0.5952770621734693  1.0000
  H   H348      1.0  0.027301735153252293  0.7821058273583641  0.5596909820809277  1.0000
  N   N14       1.0  0.5922997810694725  0.20219908282525037  0.11966647672552821  1.0000
  C   C341      1.0  0.5998598618302697  0.17728404363611058  0.08911150653268374  1.0000
  C   C342      1.0  0.6167870004785898  0.20869371006926676  0.15881480166952702  1.0000
  C   C343      1.0  0.5640725020972577  0.19847078182306538  0.15136956130365853  1.0000
  C   C344      1.0  0.5884156855600461  0.22439060959558307  0.07916684752558868  1.0000
  H   H349      1.0  0.5822993399335724  0.1722616209302463  0.05791280309455504  1.0000
  H   H350      1.0  0.6021132331625603  0.15987614599870525  0.11806601180995946  1.0000
  H   H351      1.0  0.6213245545205479  0.17922026683095185  0.06544961164649465  1.0000
  H   H352      1.0  0.6117640431353647  0.22736680014592248  0.1826417259864215  1.0000
  H   H353      1.0  0.6204246763960286  0.1922789197684145  0.18980118831435577  1.0000
  H   H354      1.0  0.638307067832791  0.21176785924942426  0.13582576339386843  1.0000
  H   H355      1.0  0.5452711057040799  0.1935051193699899  0.12278323550606098  1.0000
  H   H356      1.0  0.5573041237941811  0.21699879905766564  0.174196974510358  1.0000
  H   H357      1.0  0.5659535867442439  0.18188880789634027  0.1824625071524859  1.0000
  H   H358      1.0  0.5829856863660219  0.24362267913896524  0.10053299707101826  1.0000
  H   H359      1.0  0.5697707978431996  0.22022387224344228  0.049797088510384224  1.0000
  H   H360      1.0  0.6089301362712634  0.2274863342407089  0.053264005682588385  1.0000
  N   N15       1.0  0.7297528472949527  0.400402308202799  0.1876744348457362  1.0000
  C   C345      1.0  0.7327686001229086  0.4182176343073349  0.13832112549427644  1.0000
  C   C346      1.0  0.7598732062460253  0.3924618727075672  0.20774420410394345  1.0000
  C   C347      1.0  0.7127983391385105  0.3762779257329571  0.17158486404668793  1.0000
  C   C348      1.0  0.7135008828442924  0.41461884521237574  0.23301640496195208  1.0000
  H   H361      1.0  0.7104286385539644  0.42469071444052203  0.12229138589834232  1.0000
  H   H362      1.0  0.7447005873933794  0.40797878382494907  0.10303420634170668  1.0000
  H   H363      1.0  0.7456205189721861  0.4365706461764414  0.14874866147208188  1.0000
  H   H364      1.0  0.7584529578883704  0.3784130244207724  0.24398843886829202  1.0000
  H   H365      1.0  0.7731686380462215  0.38241984680121227  0.1741174419721947  1.0000
  H   H366      1.0  0.7729229645258531  0.4101135717857455  0.222193520547725  1.0000
  H   H367      1.0  0.6900229827832313  0.3816543540714035  0.1559170156305023  1.0000
  H   H368      1.0  0.7095003603176282  0.362603700219848  0.20810265699162378  1.0000
  H   H369      1.0  0.7244976540735726  0.36488352038796795  0.13782072330063277  1.0000
  H   H370      1.0  0.7256347975315486  0.4328714682453755  0.24670867995955748  1.0000
  H   H371      1.0  0.7106435306607665  0.4015962968033393  0.27068417534261924  1.0000
  H   H372      1.0  0.6905930159761036  0.4207887260792277  0.21950383893424696  1.0000
  N   N16       1.0  0.8475069597136836  0.13897006531095413  0.8211321502818649  1.0000
  C   C349      1.0  0.8164743757272582  0.13419665878762002  0.8022114037851364  1.0000
  C   C350      1.0  0.8576844487727238  0.11606650856890166  0.8557267258711089  1.0000
  C   C351      1.0  0.8484235950475333  0.16379569050358098  0.854823559354971  1.0000
  C   C352      1.0  0.8674700946663824  0.1417882937056525  0.7718714589369869  1.0000
  H   H373      1.0  0.8075666941313572  0.1513782424469538  0.7773381799101459  1.0000
  H   H374      1.0  0.8010889026843753  0.13125834686198376  0.8385385770947068  1.0000
  H   H375      1.0  0.8149403973604231  0.11584508468785747  0.7759748131946945  1.0000
  H   H376      1.0  0.8433402547150546  0.11365171595970026  0.8935959029222859  1.0000
  H   H377      1.0  0.8568687565660542  0.09687870272581832  0.8321509402031265  1.0000
  H   H378      1.0  0.881066154566241  0.11880462579725701  0.8706962985826914  1.0000
  H   H379      1.0  0.8330567705996478  0.16261648135176612  0.8915537858969633  1.0000
  H   H380      1.0  0.8415183757719885  0.18165036220773312  0.8298372241163802  1.0000
  H   H381      1.0  0.8713143793098975  0.16750503413947812  0.8715862236330338  1.0000
  H   H382      1.0  0.8910166653687474  0.1455532009283596  0.7850060985441011  1.0000
  H   H383      1.0  0.8603043246570209  0.1588233117905981  0.7446950556590521  1.0000
  H   H384      1.0  0.8675194528687733  0.12332950119278518  0.7457338332166138  1.0000
  N   N17       1.0  0.4498939460260208  0.29513567242783134  0.9424738049611928  1.0000
  C   C353      1.0  0.429437456129615  0.29066241304390855  0.8948186529283452  1.0000
  C   C354      1.0  0.43969208439663265  0.3187630146680981  0.9748494507686278  1.0000
  C   C355      1.0  0.4805456378820128  0.299831065860095  0.9209970159470005  1.0000
  C   C356      1.0  0.449929559980048  0.2712735795462628  0.9793428600033882  1.0000
  H   H385      1.0  0.40622309440384635  0.2865393802239079  0.9097347193722958  1.0000
  H   H386      1.0  0.428441739266717  0.30847647687806895  0.8666305172672468  1.0000
  H   H387      1.0  0.4367342168334002  0.27316973142589474  0.8691929783902275  1.0000
  H   H388      1.0  0.4167819207910099  0.3157316782460522  0.9924533182422702  1.0000
  H   H389      1.0  0.45492044035789264  0.3229164174419098  0.010666918920354096  1.0000
  H   H390      1.0  0.43906088568607987  0.3371400330845461  0.948273781221068  1.0000
  H   H391      1.0  0.48155306003646375  0.3180352965477344  0.893875772863596  1.0000
  H   H392      1.0  0.48905825896302196  0.2825294076345314  0.8960234705695357  1.0000
  H   H393      1.0  0.4965759490385472  0.30269916251184625  0.956026957024736  1.0000
  H   H394      1.0  0.46444703983961927  0.27425130085520594  0.016591459076752635  1.0000
  H   H395      1.0  0.4582853125727927  0.25316609808810114  0.956892256343323  1.0000
  H   H396      1.0  0.42703584673708167  0.2667390316933361  0.9953492364014965  1.0000
  N   N18       1.0  0.13771171841463523  0.6431679631969118  0.42549252064246096  1.0000
  C   C357      1.0  0.12056093913372891  0.6357583419915712  0.3749233851458427  1.0000
  C   C358      1.0  0.13333552040303323  0.6225932203584064  0.4694057147742067  1.0000
  C   C359      1.0  0.12722992795671542  0.6695073597289316  0.44646893492538275  1.0000
  C   C360      1.0  0.16994604373284547  0.6447046171727157  0.41125553009066623  1.0000
  H   H397      1.0  0.12864785171830773  0.6164012718070603  0.35706804480443366  1.0000
  H   H398      1.0  0.12237455434290864  0.6512772345930958  0.34153704132945584  1.0000
  H   H399      1.0  0.09633619887952197  0.6332480641417731  0.38463451243419017  1.0000
  H   H400      1.0  0.10959946351786662  0.6219144803328404  0.4840852687016753  1.0000
  H   H401      1.0  0.1394523884333511  0.6022512667170972  0.45394892857851044  1.0000
  H   H402      1.0  0.1475316886578557  0.6266042912970388  0.506562194300399  1.0000
  H   H403      1.0  0.1403009727841755  0.6759802555993526  0.48366767145120704  1.0000
  H   H404      1.0  0.10331156835638707  0.6689789961299435  0.45963921222351656  1.0000
  H   H405      1.0  0.1292198137942225  0.685400951249656  0.41387861864153114  1.0000
  H   H406      1.0  0.18348163328112227  0.6504482253647443  0.44855106356054886  1.0000
  H   H407      1.0  0.17413323259999444  0.6598314267952011  0.3778264180901326  1.0000
  H   H408      1.0  0.17869162665492877  0.6250398076904278  0.39611225314016285  1.0000
  N   N19       1.0  0.21745374868590944  0.4374014386264281  0.12405199043172765  1.0000
  C   C361      1.0  0.20818998126796043  0.4638904455932202  0.14587421134347078  1.0000
  C   C362      1.0  0.19225205912199475  0.418480267647786  0.12950008023860748  1.0000
  C   C363      1.0  0.24331575146662904  0.4272199829993684  0.1565746111848283  1.0000
  C   C364      1.0  0.22603269929789227  0.439989102390205  0.06429767636155126  1.0000
  H   H409      1.0  0.22681664614576424  0.47856858209010106  0.14373685287743787  1.0000
  H   H410      1.0  0.2011403238899473  0.4625848098100991  0.19058332370656084  1.0000
  H   H411      1.0  0.18895416792712055  0.47233235144713087  0.1218614079687872  1.0000
  H   H412      1.0  0.18511090762093246  0.4162394341850323  0.17408016874103183  1.0000
  H   H413      1.0  0.1723182061383212  0.4254480872181638  0.10535189471258288  1.0000
  H   H414      1.0  0.198647395006527  0.3982101702862151  0.11394775847968153  1.0000
  H   H415      1.0  0.2512011485225077  0.4074266563776434  0.14051160282949082  1.0000
  H   H416      1.0  0.23745340642591323  0.4246909367601391  0.20179539102918942  1.0000
  H   H417      1.0  0.2625711984361326  0.4412564076181945  0.15452487950105276  1.0000
  H   H418      1.0  0.23383214431230753  0.42049017839324265  0.04682391496625904  1.0000
  H   H419      1.0  0.244621792509293  0.45450408940991066  0.058581155739362734  1.0000
  H   H420      1.0  0.20678632835247762  0.4469346843440867  0.03828374568486437  1.0000
  N   N20       1.0  0.02729249286883051  0.9677447327670394  0.3284448848418733  1.0000
  C   C365      1.0  0.014443151739093274  0.9945844735382524  0.3171948424837385  1.0000
  C   C366      1.0  0.0051153578257274734  0.951201072284545  0.3588136315543151  1.0000
  C   C367      1.0  0.054539100172711796  0.9704725406212011  0.3630163508517541  1.0000
  C   C368      1.0  0.03511991045674123  0.9546835002798723  0.27467323419087397  1.0000
  H   H421      1.0  0.008061311151892125  0.005054882222790269  0.35666661325959303  1.0000
  H   H422      1.0  0.9941121755330787  0.9933425058955013  0.29034065025337297  1.0000
  H   H423      1.0  0.030725866809248048  0.007505871509052353  0.29433858303743055  1.0000
  H   H424      1.0  0.014245706669927749  0.9308005833433379  0.36798730257971135  1.0000
  H   H425      1.0  0.9986720051742383  0.9603976418330425  0.3996728043572999  1.0000
  H   H426      1.0  0.9843124192201806  0.9486353199898895  0.3337639842343496  1.0000
  H   H427      1.0  0.06408073652914137  0.9505432863999667  0.3741127316035704  1.0000
  H   H428      1.0  0.049742874644935986  0.9811019363532688  0.40307189136512545  1.0000
  H   H429      1.0  0.07235504794919434  0.981835560348506  0.3404398285666739  1.0000
  H   H430      1.0  0.01532654627599106  0.9533008705385314  0.24648651559727286  1.0000
  H   H431      1.0  0.04387513851500224  0.9340298030811368  0.2812956955812369  1.0000
  H   H432      1.0  0.05255353000137508  0.9661493519319392  0.2514794917468579  1.0000
  N   N21       1.0  0.030319582557969404  0.48214781183438504  0.990377060538627  1.0000
  C   C369      1.0  0.04734434691401689  0.4621654172794846  0.9572792428907775  1.0000
  C   C370      1.0  0.04308641421217274  0.48381083567518907  0.047448885969009424  1.0000
  C   C371      1.0  0.998573765377249  0.4739441588562377  0.9940254765394589  1.0000
  C   C372      1.0  0.03234710555741205  0.5085915154896259  0.9626254378323686  1.0000
  H   H433      1.0  0.038772236642357294  0.46073958437922474  0.9135332313850009  1.0000
  H   H434      1.0  0.04576406383331699  0.44182781003445526  0.9763573420874958  1.0000
  H   H435      1.0  0.07157406577037345  0.46729704312006815  0.9547111637215248  1.0000
  H   H436      1.0  0.03063202256634945  0.4984553488051176  0.07402478874907925  1.0000
  H   H437      1.0  0.04247138957464535  0.464052532489856  0.06916752332609732  1.0000
  H   H438      1.0  0.06697513918612538  0.4902294801099343  0.046308425141726284  1.0000
  H   H439      1.0  0.9848109461019542  0.4888005700438018  0.01773260438650448  1.0000
  H   H440      1.0  0.9962921044874412  0.4542658622594151  0.015642160834598684  1.0000
  H   H441      1.0  0.9884524610877633  0.47179879763963256  0.9515582464194122  1.0000
  H   H442      1.0  0.01988464200270479  0.5242463886838039  0.9866092620210141  1.0000
  H   H443      1.0  0.02285426478185615  0.5080491059505576  0.9194558080461522  1.0000
  H   H444      1.0  0.056080570108843826  0.515232078671959  0.9589260968646972  1.0000
  N   N22       1.0  0.41489964791297895  0.5462273674200955  0.5019770259802163  1.0000
  C   C373      1.0  0.4258935259083329  0.5581488855973995  0.5547105914513452  1.0000
  C   C374      1.0  0.38204210392402793  0.549988946069651  0.498549212887491  1.0000
  C   C375      1.0  0.4221738671856169  0.5173192767133917  0.501106397319691  1.0000
  C   C376      1.0  0.429537448823469  0.559426703240689  0.45365856212565836  1.0000
  H   H445      1.0  0.4506081988304108  0.5556717789135798  0.5587506539715967  1.0000
  H   H446      1.0  0.41518874469297734  0.5486441998754262  0.592074436859671  1.0000
  H   H447      1.0  0.42080106968088776  0.5800248604856486  0.5564989701314381  1.0000
  H   H448      1.0  0.3729504484234808  0.541341259424618  0.4591607452108847  1.0000
  H   H449      1.0  0.3703950539474797  0.5400859246422219  0.534463394797046  1.0000
  H   H450      1.0  0.37575880765796943  0.5716166958378236  0.4995460800664546  1.0000
  H   H451      1.0  0.41197213621858386  0.506845748341638  0.5376070020340145  1.0000
  H   H452      1.0  0.44682074286597795  0.5136478819174973  0.5023588150960404  1.0000
  H   H453      1.0  0.4138097448482378  0.5076184729703891  0.46215759620824826  1.0000
  H   H454      1.0  0.4216956699057492  0.5511113971463263  0.4129635427454107  1.0000
  H   H455      1.0  0.4543050959345354  0.5564959270840497  0.45463558810049237  1.0000
  H   H456      1.0  0.4250946288795718  0.5813478240368517  0.45352966372166786  1.0000
  N   N23       1.0  0.8739256893416839  0.6043134773292034  0.5559744360615664  1.0000
  C   C377      1.0  0.8788857564959928  0.6066499409559986  0.494778825549727  1.0000
  C   C378      1.0  0.8505608240205184  0.5841141737169766  0.5672253218647509  1.0000
  C   C379      1.0  0.8641012218527035  0.6304853763288992  0.5786527250560429  1.0000
  C   C380      1.0  0.902254420527788  0.5960374724764315  0.5831734354995795  1.0000
  H   H457      1.0  0.8966079539274983  0.6215382763706525  0.4849891452895115  1.0000
  H   H458      1.0  0.8581060531382984  0.6130876263376872  0.47254255793102384  1.0000
  H   H459      1.0  0.8862995151518475  0.587247693077201  0.47630612156573826  1.0000
  H   H460      1.0  0.8462284748506977  0.5817330369649948  0.6129660578259933  1.0000
  H   H461      1.0  0.8288640013932088  0.5898156658787275  0.5472882255297202  1.0000
  H   H462      1.0  0.8571455367478178  0.5640943757108424  0.550507985083023  1.0000
  H   H463      1.0  0.8816013327578032  0.6460277196793407  0.5723336503018174  1.0000
  H   H464      1.0  0.8594306337971487  0.6293408236486138  0.6244839596979332  1.0000
  H   H465      1.0  0.8432987449597572  0.637760725490186  0.5576783506943243  1.0000
  H   H466      1.0  0.9103871084089916  0.5764163026601808  0.5666910119794152  1.0000
  H   H467      1.0  0.8994584035321499  0.5940415960683105  0.6294192705244642  1.0000
  H   H468      1.0  0.9202980571404005  0.6109817758164707  0.5754482767585799  1.0000
  N   N24       1.0  0.7825355182271003  0.40423275932776  0.5761190179281485  1.0000
  C   C381      1.0  0.7868555219745094  0.3913960729010202  0.5207853908712653  1.0000
  C   C382      1.0  0.7954810192881926  0.4314151162598156  0.5749660257729017  1.0000
  C   C383      1.0  0.79767911822883  0.38796790461981673  0.6196162138796875  1.0000
  C   C384      1.0  0.7501587100655451  0.4061643871089522  0.5891294333005695  1.0000
  H   H469      1.0  0.7776721932112838  0.3707392993302778  0.5202271604340151  1.0000
  H   H470      1.0  0.811040088775187  0.3901326892260516  0.5090729622341489  1.0000
  H   H471      1.0  0.7753620040975425  0.4028864485085525  0.4871582999565377  1.0000
  H   H472      1.0  0.783646766494546  0.44458788485836526  0.544383170722494  1.0000
  H   H473      1.0  0.7939727291161393  0.44118335479424703  0.6169061892042581  1.0000
  H   H474      1.0  0.8195247001202504  0.4308707526989096  0.5625685290718709  1.0000
  H   H475      1.0  0.8220144778126813  0.38562325915632356  0.6102450951825985  1.0000
  H   H476      1.0  0.7880227693194481  0.36753068866363875  0.6226629695071213  1.0000
  H   H477      1.0  0.795628226871824  0.3973879869564734  0.6618554840016848  1.0000
  H   H478      1.0  0.7461744651163749  0.4157909981412436  0.6306533228197005  1.0000
  H   H479      1.0  0.7395062552837094  0.3860818926118616  0.5900925008903252  1.0000
  H   H480      1.0  0.738059663250677  0.4183853463204741  0.5571323296518939  1.0000
  N   N25       1.0  0.17328994539273054  0.2875757676314381  0.8838173084432888  1.0000
  C   C385      1.0  0.14843325963283874  0.2809252482675308  0.9225631210277767  1.0000
  C   C386      1.0  0.19296671251054762  0.2638381823525694  0.876941252413673  1.0000
  C   C387      1.0  0.1907975905109827  0.3100337560529921  0.9069540402195021  1.0000
  C   C388      1.0  0.16089251855595993  0.29543419538077637  0.8286843101845841  1.0000
  H   H481      1.0  0.13291519355997403  0.298219270194263  0.9285387272142852  1.0000
  H   H482      1.0  0.1568730728719521  0.2747098143779793  0.9645113265577696  1.0000
  H   H483      1.0  0.13474762987145433  0.26407619813393235  0.9061095941102218  1.0000
  H   H484      1.0  0.21187054844854036  0.2678956311323619  0.8475449532451516  1.0000
  H   H485      1.0  0.20274135767851278  0.25738301209448344  0.9177586941947179  1.0000
  H   H486      1.0  0.18028073196740796  0.246415934098645  0.8603437347771657  1.0000
  H   H487      1.0  0.2098185339552678  0.31547287488801834  0.8788108215928777  1.0000
  H   H488      1.0  0.20033137551707714  0.30497051021714466  0.9487696533592331  1.0000
  H   H489      1.0  0.1766895034244528  0.32835381457727164  0.912205637954944  1.0000
  H   H490      1.0  0.1460545065451524  0.31338712845977995  0.8323153572153872  1.0000
  H   H491      1.0  0.14703510551649165  0.27913035572175604  0.8105087170763754  1.0000
  H   H492      1.0  0.17895373710046267  0.30030680310890695  0.7980644090245409  1.0000
  N   N26       1.0  0.19109070457075136  0.7459246897049248  0.6487935917400255  1.0000
  C   C389      1.0  0.21215868903783422  0.7282167225821072  0.6181101199998783  1.0000
  C   C390      1.0  0.20184702013204284  0.7496075051106513  0.7068437542814989  1.0000
  C   C391      1.0  0.16100750416594528  0.733661954448828  0.6499728799465173  1.0000
  C   C392      1.0  0.18940269815755853  0.7722336111530921  0.6203131873837995  1.0000
  H   H493      1.0  0.20419843542251487  0.7241764755116697  0.5747469287435732  1.0000
  H   H494      1.0  0.21463862411570941  0.7084371302563635  0.6394258032059249  1.0000
  H   H495      1.0  0.23485069305013806  0.7372050880689587  0.6150727707806977  1.0000
  H   H496      1.0  0.18626975542470167  0.7625889286367942  0.7314413271194574  1.0000
  H   H497      1.0  0.20391684821216938  0.7300754194990322  0.7292091737893477  1.0000
  H   H498      1.0  0.22431945319461968  0.7591851690779363  0.7073823230483949  1.0000
  H   H499      1.0  0.1444305649689266  0.7465807483232804  0.6723871719640813  1.0000
  H   H500      1.0  0.16140174693189974  0.7137357307285566  0.6710672416616379  1.0000
  H   H501      1.0  0.15225797126634014  0.7305283050001619  0.6067768110561289  1.0000
  H   H502      1.0  0.18065039379188483  0.7702690294934899  0.5768132673203342  1.0000
  H   H503      1.0  0.2118073419738509  0.781922991406792  0.61800391826952  1.0000
  H   H504      1.0  0.17394487361064764  0.7861844114555397  0.6428598212753772  1.0000
  N   N27       1.0  0.38085246152007707  0.6984869930130714  0.3544777056228228  1.0000
  C   C393      1.0  0.3790011572442479  0.6753507803639395  0.316038969037988  1.0000
  C   C394      1.0  0.4085047500389344  0.6963586834743606  0.3881446450802591  1.0000
  C   C395      1.0  0.3544947939288354  0.6986910712375439  0.3923080580872579  1.0000
  C   C396      1.0  0.38155805953908944  0.7235564400749666  0.32137108684184074  1.0000
  H   H505      1.0  0.35811664151563455  0.6760061404386022  0.2907000139490116  1.0000
  H   H506      1.0  0.37927588390134964  0.6560665429175042  0.339436067762732  1.0000
  H   H507      1.0  0.3982744105274603  0.6748372446447545  0.28623102921120197  1.0000
  H   H508      1.0  0.4104545672106586  0.7133506856822038  0.4180599269446613  1.0000
  H   H509      1.0  0.40909155751194565  0.6774758414167059  0.4130590391090423  1.0000
  H   H510      1.0  0.428780925567558  0.6966036147388643  0.36074542402531445  1.0000
  H   H511      1.0  0.355043721195129  0.7160217786343204  0.42159745301768176  1.0000
  H   H512      1.0  0.3535822922896782  0.680158779579677  0.4182510376103362  1.0000
  H   H513      1.0  0.33316473027242977  0.7000102075628817  0.36837852175569885  1.0000
  H   H514      1.0  0.361083215481155  0.7258974237090041  0.2952804766998316  1.0000
  H   H515      1.0  0.4013755057512053  0.7239730357598573  0.2926664498146268  1.0000
  H   H516      1.0  0.3829955239895848  0.7414307097634198  0.3491267134286063  1.0000
  N   N28       1.0  0.7200928211877431  0.021201721207084568  0.9618397235193126  1.0000
  C   C397      1.0  0.7164608224050726  0.04970455129939221  0.977351649088315  1.0000
  C   C398      1.0  0.6951197364836523  0.013295196894648642  0.9249923786408971  1.0000
  C   C399      1.0  0.7198064262015798  0.004478313855026689  0.013106788424646743  1.0000
  C   C400      1.0  0.7488579796677381  0.017280046450829464  0.9318375471633192  1.0000
  H   H517      1.0  0.6951277938901738  0.05318917431394503  0.0008773869179665716  1.0000
  H   H518      1.0  0.7159240899515817  0.06283628915269966  0.9394897934632117  1.0000
  H   H519      1.0  0.7352275267102747  0.05662465215133067  0.0042200692054186195  1.0000
  H   H520      1.0  0.6947094640184942  0.025428236288285354  0.8857452678885273  1.0000
  H   H521      1.0  0.696979473720141  0.9918708220907096  0.9127024420493015  1.0000
  H   H522      1.0  0.67309320867419  0.016092625093793337  0.9463505269648007  1.0000
  H   H523      1.0  0.6983581947741727  0.006974276694852972  0.036779680094403355  1.0000
  H   H524      1.0  0.7384263395612267  0.009875647076899472  0.04180705440746868  1.0000
  H   H525      1.0  0.722317324316362  0.9828161813978978  0.002742070208575864  1.0000
  H   H526      1.0  0.7682200854222823  0.023799930381379907  0.9577319537695621  1.0000
  H   H527      1.0  0.7494152004914808  0.028967698975170215  0.8920539213468357  1.0000
  H   H528      1.0  0.7526007662566156  0.9958413895210881  0.9208574078515145  1.0000
  N   N29       1.0  0.4290235783094478  0.8838174692628438  0.9403452589551055  1.0000
  C   C401      1.0  0.4532057139174002  0.8645003868202851  0.9266408872945278  1.0000
  C   C402      1.0  0.42497632692221915  0.9025727303180456  0.8928818289520635  1.0000
  C   C403      1.0  0.4371962722381458  0.8989733047256698  0.9912079054332263  1.0000
  C   C404      1.0  0.40071593516145276  0.8693152639566603  0.950536088695802  1.0000
  H   H529      1.0  0.47480868008477267  0.8749403173799901  0.9183793858369468  1.0000
  H   H530      1.0  0.44769474018885996  0.8526642185066925  0.8885295842010751  1.0000
  H   H531      1.0  0.45706742758263713  0.8501463144821669  0.9617511108049581  1.0000
  H   H532      1.0  0.41901571101437207  0.8918079651014259  0.8536443376081877  1.0000
  H   H533      1.0  0.4065673163943807  0.9170987139743071  0.9015987224715905  1.0000
  H   H534      1.0  0.44570411212232164  0.9142330032976094  0.8844373742938658  1.0000
  H   H535      1.0  0.43982588094679065  0.8855826246444617  0.028274948695316215  1.0000
  H   H536      1.0  0.4197831161916225  0.9142492684855823  0.001984394744085183  1.0000
  H   H537      1.0  0.45876022088610197  0.9097474225301196  0.9852913603531368  1.0000
  H   H538      1.0  0.3932601557964777  0.8584126178516472  0.9123375326154378  1.0000
  H   H539      1.0  0.38217879737574006  0.8833576363328023  0.9620743101541781  1.0000
  H   H540      1.0  0.4029879895231031  0.8545229794814516  0.985263441664234  1.0000
  N   N30       1.0  0.587419073195927  0.6853666981998325  0.2680821828501072  1.0000
  C   C405      1.0  0.6039908639065128  0.7096356930571869  0.2511588265539222  1.0000
  C   C406      1.0  0.5630229582993056  0.6803640330672802  0.2277334635631505  1.0000
  C   C407      1.0  0.5745141199563775  0.6893907523554725  0.32467493298970196  1.0000
  C   C408      1.0  0.6080435143742741  0.6620812838938062  0.2688534161881832  1.0000
  H   H541      1.0  0.6139491297596154  0.7074473310480912  0.20851394950734872  1.0000
  H   H542      1.0  0.6224537489592177  0.7140496239014553  0.2809775454209352  1.0000
  H   H543      1.0  0.5889585044542872  0.7275422757196728  0.2501571254465509  1.0000
  H   H544      1.0  0.5497514517471926  0.6623960072647266  0.23965075948036318  1.0000
  H   H545      1.0  0.5471596227346303  0.6975512781605587  0.2260642043688037  1.0000
  H   H546      1.0  0.5718380358102926  0.6771879336889705  0.18450392182873765  1.0000
  H   H547      1.0  0.5610986505845875  0.6718198136512588  0.33815947977606586  1.0000
  H   H548      1.0  0.5594159112656271  0.7071727283075067  0.32604565335601243  1.0000
  H   H549      1.0  0.5922458144822357  0.6924158217362433  0.35670289830556906  1.0000
  H   H550      1.0  0.6265858954925284  0.66493985409988  0.2993424468124385  1.0000
  H   H551      1.0  0.6184175473544725  0.6585039140180307  0.22696934143010775  1.0000
  H   H552      1.0  0.5960961620745125  0.6434401230935163  0.281088143823839  1.0000
  N   N31       1.0  0.6814904919189251  0.8662232786506353  0.25831933632206106  1.0000
  C   C409      1.0  0.68909001158891  0.8894534413880629  0.22249230004684972  1.0000
  C   C410      1.0  0.6595916713019137  0.8746567503768781  0.30155973463595753  1.0000
  C   C411      1.0  0.7088388885713051  0.8558436711402482  0.2859501191838907  1.0000
  C   C412      1.0  0.6682556306936427  0.8449708887399208  0.22329349919932562  1.0000
  H   H553      1.0  0.7052112323821753  0.8838204237530315  0.1886887949659346  1.0000
  H   H554      1.0  0.6991483407258157  0.9059159343993183  0.2473979461127267  1.0000
  H   H555      1.0  0.6687627508063878  0.897775580258069  0.20141598031268848  1.0000
  H   H556      1.0  0.6687702854086853  0.890460270320268  0.3293533539536575  1.0000
  H   H557      1.0  0.6389619607183935  0.8828790771774306  0.2820953673753679  1.0000
  H   H558      1.0  0.6525962199699366  0.8575843535714739  0.328413396400026  1.0000
  H   H559      1.0  0.7190896659234997  0.8712044693200349  0.3136772848793463  1.0000
  H   H560      1.0  0.7260859415920108  0.8496709324748102  0.25461241135252943  1.0000
  H   H561      1.0  0.7037798484672441  0.8380948196520331  0.31272223452701375  1.0000
  H   H562      1.0  0.6616721412951337  0.8272838540115879  0.24895267874614202  1.0000
  H   H563      1.0  0.6841227730445691  0.8380675728660486  0.19013667556608094  1.0000
  H   H564      1.0  0.6477406463244293  0.8522753575560649  0.2014672305369889  1.0000
  N   N32       1.0  0.26763643990899993  0.9008060376171756  0.7246720248446852  1.0000
  C   C413      1.0  0.2526420712291477  0.9189994617550921  0.7650311089895536  1.0000
  C   C414      1.0  0.29654797848017755  0.9124913853131393  0.7069697241318761  1.0000
  C   C415      1.0  0.2482904294610646  0.8972217630017105  0.6750386603560862  1.0000
  C   C416      1.0  0.273089207320616  0.8745573696030587  0.7517792981130101  1.0000
  H   H565      1.0  0.23062878972012288  0.9108997654352263  0.7789894395188728  1.0000
  H   H566      1.0  0.24836457767120607  0.9390778591933558  0.7461100248072806  1.0000
  H   H567      1.0  0.26658281689267965  0.9220056539459277  0.8032371905207144  1.0000
  H   H568      1.0  0.30914772029565635  0.8988088849209487  0.6783247623384157  1.0000
  H   H569      1.0  0.2932455228174878  0.9318595349562347  0.6845398478331425  1.0000
  H   H570      1.0  0.3111520395415772  0.9164501340309782  0.7437429487977916  1.0000
  H   H571      1.0  0.24350936146272467  0.9166469983409744  0.6536932325625967  1.0000
  H   H572      1.0  0.22621807527996746  0.8884251520685961  0.6866497015950459  1.0000
  H   H573      1.0  0.2589265507202085  0.8837220056924748  0.643485362280593  1.0000
  H   H574      1.0  0.28491429199669577  0.8604295202573703  0.7229408567024304  1.0000
  H   H575      1.0  0.251728811200335  0.8649330984880567  0.7648286874252425  1.0000
  H   H576      1.0  0.28719308552572714  0.8766622195640742  0.7900103449618574  1.0000
  N   N33       1.0  0.42932908132203423  0.037955390175191304  0.13092539863136587  1.0000
  C   C417      1.0  0.4403239133621137  0.01608415872332346  0.16750118276833592  1.0000
  C   C418      1.0  0.4482084894743685  0.03916347690011981  0.07993506120947114  1.0000
  C   C419      1.0  0.4310776877363471  0.06374174046758083  0.16107450514528465  1.0000
  C   C420      1.0  0.3978546390628602  0.03291954204883065  0.11500785451325801  1.0000
  H   H577      1.0  0.43926454452047053  0.9963734442194566  0.1456601390258081  1.0000
  H   H578      1.0  0.42675225497568026  0.014541044679963281  0.2066163078306018  1.0000
  H   H579      1.0  0.46411578334390885  0.019367505470888054  0.17979541931623944  1.0000
  H   H580      1.0  0.44868379766396754  0.01972621267320263  0.05747720403529  1.0000
  H   H581      1.0  0.439514286631206  0.05434542852837187  0.04983520598791458  1.0000
  H   H582      1.0  0.47183373863349554  0.04420211740602394  0.09037925361971189  1.0000
  H   H583      1.0  0.41724069996619817  0.0636076762618378  0.19998861097509657  1.0000
  H   H584      1.0  0.42295474031146724  0.08060450435365225  0.13437929950668615  1.0000
  H   H585      1.0  0.4545506776139815  0.06835320981191416  0.173370955136956  1.0000
  H   H586      1.0  0.39563460360166386  0.013661505260023155  0.09209817630612238  1.0000
  H   H587      1.0  0.3890805811067306  0.04898235688869736  0.08684919774234534  1.0000
  H   H588      1.0  0.38295954745926647  0.031972690392536106  0.15246797645024923  1.0000
  N   N34       1.0  0.1943726221966647  0.8779069043865003  0.35774407299534333  1.0000
  C   C421      1.0  0.1790063494395558  0.8837114038549697  0.4114827436067739  1.0000
  C   C422      1.0  0.20443760474026915  0.8496384744197193  0.3574851296184944  1.0000
  C   C423      1.0  0.22056574661445028  0.895660626887712  0.35128583530235064  1.0000
  C   C424      1.0  0.1734397127674133  0.882648767281037  0.3107708989244055  1.0000
  H   H589      1.0  0.19261097184267567  0.8771849735639864  0.447903264869037  1.0000
  H   H590      1.0  0.15713416666391997  0.8731771985849608  0.4146908252195938  1.0000
  H   H591      1.0  0.17472863623185184  0.9055087244253355  0.4168362382984691  1.0000
  H   H592      1.0  0.21583214779237722  0.8443651571606512  0.3173461549895225  1.0000
  H   H593      1.0  0.22070920258318405  0.8456258485277189  0.3920059092491437  1.0000
  H   H594      1.0  0.18519549601943855  0.8358003707986087  0.36340570144977924  1.0000
  H   H595      1.0  0.21371525484201498  0.9171717264936816  0.3512113865444944  1.0000
  H   H596      1.0  0.23283988704360753  0.8916569540249072  0.31140528202921713  1.0000
  H   H597      1.0  0.2367397411900945  0.8928192699269788  0.3861792022797614  1.0000
  H   H598      1.0  0.16625175020983593  0.9040034457957589  0.30906591132765726  1.0000
  H   H599      1.0  0.1527949598576261  0.8703465385360547  0.31512428221313266  1.0000
  H   H600      1.0  0.1839710289760826  0.8778173115571621  0.2695843086538361  1.0000
  N   N35       1.0  0.39743019247179656  0.7083524746735476  0.6288086656658255  1.0000
  C   C425      1.0  0.4160611275619095  0.7313833641050761  0.6452260013744984  1.0000
  C   C426      1.0  0.4169575217844186  0.6848151911394312  0.6184375063012393  1.0000
  C   C427      1.0  0.38068207538820764  0.7151021163627701  0.5771558820874372  1.0000
  C   C428      1.0  0.37605328400857546  0.7020934255144857  0.6744793471572607  1.0000
  H   H601      1.0  0.42845283803917245  0.7272592792058842  0.6847964492419508  1.0000
  H   H602      1.0  0.4020996387024471  0.7496771113484403  0.6520807658185407  1.0000
  H   H603      1.0  0.43298093532191695  0.7360822501565989  0.6122091147078571  1.0000
  H   H604      1.0  0.4322841438957414  0.6881146567664952  0.582054833049303  1.0000
  H   H605      1.0  0.4309708705334851  0.6799106931202596  0.6556296256323669  1.0000
  H   H606      1.0  0.4035748753513088  0.6666805013999908  0.6089487404916402  1.0000
  H   H607      1.0  0.36602671208151644  0.6983452509507868  0.5639878301573646  1.0000
  H   H608      1.0  0.3961129269600406  0.7195999728898929  0.5415543999973806  1.0000
  H   H609      1.0  0.3659767417524337  0.7329919716269384  0.5832757864127525  1.0000
  H   H610      1.0  0.36188494252353176  0.6845695319365561  0.6635767309755655  1.0000
  H   H611      1.0  0.36065997568873814  0.7192666919237155  0.6832007172779502  1.0000
  H   H612      1.0  0.38776593711374424  0.6969836138027415  0.7142545329783142  1.0000
  N   N36       1.0  0.5241718425740731  0.45520913930327084  0.22670167576016476  1.0000
  C   C429      1.0  0.5177723893697165  0.4300359649402363  0.2571831325813716  1.0000
  C   C430      1.0  0.5021078182910969  0.47603760074669305  0.24313477170172892  1.0000
  C   C431      1.0  0.5224401058895571  0.45040222559948745  0.16559930925698074  1.0000
  C   C432      1.0  0.5545753359150728  0.4643534299227148  0.2411066882204389  1.0000
  H   H613      1.0  0.5341457322419121  0.41395913573091964  0.24574526161464738  1.0000
  H   H614      1.0  0.49490149140194584  0.4225519340153154  0.2477298190957693  1.0000
  H   H615      1.0  0.5191389384502612  0.4328535099796442  0.30343161649923256  1.0000
  H   H616      1.0  0.4787308060713382  0.4696522599174207  0.23442748429880722  1.0000
  H   H617      1.0  0.5034872494074162  0.48064262783117573  0.28874337794480565  1.0000
  H   H618      1.0  0.5061113001511768  0.4952122045390936  0.22043118581319754  1.0000
  H   H619      1.0  0.4996997851296849  0.44369350117423967  0.15303355170801125  1.0000
  H   H620      1.0  0.5386127153947906  0.43453745660026816  0.1521085584069206  1.0000
  H   H621      1.0  0.5278169413357625  0.4687897889718787  0.14117060701828477  1.0000
  H   H622      1.0  0.5601882441004009  0.48365924231446067  0.22018684054659166  1.0000
  H   H623      1.0  0.5719441604281599  0.4494257578294081  0.22896394964522515  1.0000
  H   H624      1.0  0.5567619005694001  0.4673952724845779  0.28700144026589114  1.0000
  N   N37       1.0  0.12224890186350248  0.065212998907477  0.9494046788091595  1.0000
  C   C433      1.0  0.1354695256045072  0.077561341306158  0.898662490828756  1.0000
  C   C434      1.0  0.09955359637942282  0.08354960585126547  0.9738599311416045  1.0000
  C   C435      1.0  0.14617992246564043  0.060072008023720924  0.9908706199606887  1.0000
  C   C436      1.0  0.10792582033267444  0.03964106147493274  0.9341441656385538  1.0000
  H   H625      1.0  0.1527072939004658  0.06421276841138601  0.8791993484505323  1.0000
  H   H626      1.0  0.14694930063109207  0.09665842761543786  0.9088740652519187  1.0000
  H   H627      1.0  0.11811463068912886  0.08207721498650944  0.8665138169577461  1.0000
  H   H628      1.0  0.08179286932260421  0.08889333513214104  0.9429342959263792  1.0000
  H   H629      1.0  0.08827493093608188  0.07441382972423716  0.010877800116145586  1.0000
  H   H630      1.0  0.10983485293432645  0.10258979750544661  0.9881035959253034  1.0000
  H   H631      1.0  0.13721754110976533  0.05051299997896641  0.02954480300104012  1.0000
  H   H632      1.0  0.15741605937144085  0.07896087601125301  0.003406358161670342  1.0000
  H   H633      1.0  0.16370744936630188  0.04635433026798674  0.9735128376051346  1.0000
  H   H634      1.0  0.12454527998213438  0.025226293455087534  0.9161752028228668  1.0000
  H   H635      1.0  0.08980445295394217  0.04271461461133641  0.9028087663032344  1.0000
  H   H636      1.0  0.09786672975014665  0.029658657803093513  0.9715272813397404  1.0000
  N   N38       1.0  0.8505616642996471  0.8660662521416438  0.8645479045640043  1.0000
  C   C437      1.0  0.8214548451544663  0.8801620287052949  0.8599113217858887  1.0000
  C   C438      1.0  0.8650828198680286  0.8736182715203215  0.9178528823755884  1.0000
  C   C439      1.0  0.8700296674064432  0.8737039039130099  0.8167999614379683  1.0000
  C   C440      1.0  0.8455515254158769  0.8368403251940885  0.8635906963674693  1.0000
  H   H637      1.0  0.8092872875177296  0.8743261418490543  0.8212104218171322  1.0000
  H   H638      1.0  0.8245915668593088  0.9022292716574778  0.8585755248488961  1.0000
  H   H639      1.0  0.8065761158953816  0.8758643307219263  0.8964380336755358  1.0000
  H   H640      1.0  0.8692658334751908  0.8955480035540367  0.9196254831446806  1.0000
  H   H641      1.0  0.8506149761072063  0.8688164206382964  0.954710005690947  1.0000
  H   H642      1.0  0.886970373566276  0.8631714076160165  0.9234620984661467  1.0000
  H   H643      1.0  0.8926852086631646  0.8644180047392019  0.8201956317463538  1.0000
  H   H644      1.0  0.8728492735861013  0.8958249610664388  0.8142405700505115  1.0000
  H   H645      1.0  0.860335670424723  0.8671738633046354  0.7761190082698424  1.0000
  H   H646      1.0  0.8308517902393926  0.8304510688644507  0.89898059531372  1.0000
  H   H647      1.0  0.867056215548003  0.8255149867876054  0.8668261056769047  1.0000
  H   H648      1.0  0.8345006568626474  0.8306230669180638  0.8238135561789205  1.0000
  N   N39       1.0  0.729334628523207  0.8960778963316767  0.6273771211936693  1.0000
  C   C441      1.0  0.7107872547244  0.9200930707542803  0.6389619001384649  1.0000
  C   C442      1.0  0.7590428936596064  0.9044166285261418  0.606316133366082  1.0000
  C   C443      1.0  0.7145695609660844  0.8793646101345628  0.5845342056976548  1.0000
  C   C444      1.0  0.7331018370072993  0.8804193837689371  0.6796720616290359  1.0000
  H   H649      1.0  0.6881658677198487  0.9145577953194255  0.6549605356928894  1.0000
  H   H650      1.0  0.7076563845127039  0.9324462798260129  0.600429251842799  1.0000
  H   H651      1.0  0.721378795591939  0.9330264768356626  0.6712917552633354  1.0000
  H   H652      1.0  0.7735897904665873  0.8867208686029645  0.5982321185671475  1.0000
  H   H653      1.0  0.7573113979575371  0.9157348130298223  0.5661167165400416  1.0000
  H   H654      1.0  0.7709661207734751  0.9171621958527603  0.6372660469111671  1.0000
  H   H655      1.0  0.7280906988708482  0.861084056734528  0.5748770997929294  1.0000
  H   H656      1.0  0.7118375162438765  0.8904049622733835  0.5441577501703585  1.0000
  H   H657      1.0  0.6920055523501293  0.8727165453147291  0.5986258257104484  1.0000
  H   H658      1.0  0.746800875531997  0.8620017864427241  0.6722990792222654  1.0000
  H   H659      1.0  0.711143437676303  0.8741251654771265  0.697455949949234  1.0000
  H   H660      1.0  0.7448999728441765  0.8922272137631212  0.7124269335047417  1.0000
  N   N40       1.0  0.9591259354002463  0.3161467924860493  0.861827617083533  1.0000
  C   C445      1.0  0.9892669716122142  0.3067861099416742  0.8446744610774334  1.0000
  C   C446      1.0  0.9609427084092507  0.34408315528088257  0.8820348254861013  1.0000
  C   C447      1.0  0.9476286525998769  0.29883654589281317  0.9074427418920898  1.0000
  C   C448      1.0  0.9387656380929478  0.3148496598038604  0.8131612439584424  1.0000
  H   H661      1.0  0.9890491294264468  0.2855196751017509  0.8306770575225245  1.0000
  H   H662      1.0  0.0051947527853601905  0.30801273372724786  0.8801020967343307  1.0000
  H   H663      1.0  0.9986167287713238  0.31913816370439063  0.8099022439580673  1.0000
  H   H664      1.0  0.9387745311475992  0.35158262308992994  0.8969791060784309  1.0000
  H   H665      1.0  0.9767645862787243  0.3458618675019425  0.9178147989702418  1.0000
  H   H666      1.0  0.9688093177573841  0.3578966981251468  0.8483614447396607  1.0000
  H   H667      1.0  0.9245809217875166  0.30492909984622435  0.9205476993365693  1.0000
  H   H668      1.0  0.9622416342118556  0.2996127851435325  0.9451732988785582  1.0000
  H   H669      1.0  0.9465477233307218  0.27747222449459674  0.8942806809031816  1.0000
  H   H670      1.0  0.915928049508269  0.3220898089289837  0.8243128603471389  1.0000
  H   H671      1.0  0.9363326843396312  0.2939281926508899  0.7978184210570999  1.0000
  H   H672      1.0  0.9469038158941385  0.3274162478363831  0.7776853057728402  1.0000
  N   N41       1.0  0.4584503005452686  0.8644577458766027  0.4959940563270554  1.0000
  C   C449      1.0  0.4326531970691849  0.8832029321724628  0.4956113301465014  1.0000
  C   C450      1.0  0.4865475911563802  0.87939736842682  0.4865329182801237  1.0000
  C   C451      1.0  0.4548242091179646  0.8444348706074595  0.4509435201022487  1.0000
  C   C452      1.0  0.4597965287887588  0.8507245179943368  0.5509715002366419  1.0000
  H   H673      1.0  0.4111579387766593  0.872422222164424  0.5023569140833406  1.0000
  H   H674      1.0  0.4309782615325469  0.8942011524622866  0.4550737119801638  1.0000
  H   H675      1.0  0.434306507796282  0.8982387563559855  0.5299251504184337  1.0000
  H   H676      1.0  0.4900013484793574  0.8947868676825724  0.5195650438402997  1.0000
  H   H677      1.0  0.5064334905694533  0.8657232926755963  0.4869707647628193  1.0000
  H   H678      1.0  0.4865098677344627  0.889775118809286  0.4450899338046154  1.0000
  H   H679      1.0  0.474602488829702  0.8307767100752237  0.4485415780520175  1.0000
  H   H680      1.0  0.4525350634499506  0.8541307325027031  0.40906645549253545  1.0000
  H   H681      1.0  0.4346372897334059  0.8318182901446691  0.4580418937510672  1.0000
  H   H682      1.0  0.4793794923024185  0.8368231457104842  0.5533201212240111  1.0000
  H   H683      1.0  0.43915813709866747  0.8388354570008588  0.5589899228659716  1.0000
  H   H684      1.0  0.4616701841520634  0.865282086251521  0.5860976738672775  1.0000
  N   N42       1.0  0.9280383002102092  0.07105035230712047  0.07098926009774975  1.0000
  C   C453      1.0  0.9085947591881595  0.04860536055405989  0.08821080313707275  1.0000
  C   C454      1.0  0.9585112716434084  0.06674748270050256  0.09376052630528142  1.0000
  C   C455      1.0  0.9154150135394119  0.09645025194762472  0.09288360065522117  1.0000
  C   C456      1.0  0.9294693234349559  0.07232399131218634  0.009018563622374076  1.0000
  H   H685      1.0  0.9075317437419764  0.04660080624686071  0.13467867387598176  1.0000
  H   H686      1.0  0.9168682667721516  0.029241267962899383  0.07086178511240893  1.0000
  H   H687      1.0  0.8852539334384014  0.05155734521801511  0.072922129737373  1.0000
  H   H688      1.0  0.9737063582069644  0.08352163785186757  0.08262045145649011  1.0000
  H   H689      1.0  0.9582446412436617  0.0652435171866183  0.14039005855400521  1.0000
  H   H690      1.0  0.9688760178308935  0.04798675221093799  0.07722969714637862  1.0000
  H   H691      1.0  0.9294558326819751  0.11387499193639432  0.08075200994922294  1.0000
  H   H692      1.0  0.9137980581515  0.09626035925915383  0.139479887332153  1.0000
  H   H693      1.0  0.8925723537120018  0.10042017093459685  0.07573129034845882  1.0000
  H   H694      1.0  0.9069124420110766  0.07619944979185134  0.9906943003032812  1.0000
  H   H695      1.0  0.9382170274159626  0.05329294857732645  0.990784717114441  1.0000
  H   H696      1.0  0.9441274595720501  0.08888248895367423  0.994410536455417  1.0000
  N   N43       1.0  0.7891562249774381  0.2895762476312804  0.003059188919308564  1.0000
  C   C457      1.0  0.7817313144615781  0.3011426731959297  0.9475913138389352  1.0000
  C   C458      1.0  0.8174780232450858  0.2741335065659165  0.9989367479163347  1.0000
  C   C459      1.0  0.7648525008077213  0.2715799642232385  0.021293657698121526  1.0000
  C   C460      1.0  0.7924555700227071  0.3113031460221412  0.04450947035858133  1.0000
  H   H697      1.0  0.7611405349018008  0.31386657605435264  0.949490912531875  1.0000
  H   H698      1.0  0.7780022987723048  0.28521289376001097  0.9157943985940682  1.0000
  H   H699      1.0  0.8001770517987077  0.3139890229438889  0.9315927552348586  1.0000
  H   H700      1.0  0.8151794733872303  0.2568263293148613  0.9699113442283227  1.0000
  H   H701      1.0  0.8361964047315462  0.28671549676619174  0.9829033564498599  1.0000
  H   H702      1.0  0.8241687117750875  0.2657214471808178  0.04036795863677156  1.0000
  H   H703      1.0  0.7696767244568914  0.2624402555992817  0.06302442798234331  1.0000
  H   H704      1.0  0.7623826614366888  0.2546964085769671  0.9914825848550809  1.0000
  H   H705      1.0  0.7429410782285988  0.2822857981503158  0.023897290520109582  1.0000
  H   H706      1.0  0.8101928949320154  0.3255973242611183  0.03157549842870733  1.0000
  H   H707      1.0  0.7984681920105642  0.30331202022169806  0.08663809340174944  1.0000
  H   H708      1.0  0.7713074947127138  0.32310133694951015  0.048947183845056585  1.0000
  N   N44       1.0  0.39076626537658454  0.4464459349301812  0.7795443611497817  1.0000
  C   C461      1.0  0.3634073384652514  0.4632261580633859  0.7755445837839462  1.0000
  C   C462      1.0  0.41238982311087224  0.4547263042254482  0.7357545066809484  1.0000
  C   C463      1.0  0.38289410178871985  0.41800889098241995  0.7712638294993042  1.0000
  C   C464      1.0  0.40445621416340444  0.44982309003389953  0.8355078810292567  1.0000
  H   H709      1.0  0.34666651933874826  0.4576528757500391  0.8082330165124221  1.0000
  H   H710      1.0  0.35256682511989834  0.4612111558111989  0.7337396367724986  1.0000
  H   H711      1.0  0.36860955897384134  0.4848789315664649  0.7807366281487885  1.0000
  H   H712      1.0  0.4332861424161607  0.44242228411610607  0.7373499520812006  1.0000
  H   H713      1.0  0.40277588225112665  0.45241273831559775  0.69311230896836  1.0000
  H   H714      1.0  0.41862962224849654  0.47617349510610146  0.7403046966571883  1.0000
  H   H715      1.0  0.4032075340612534  0.4049578814615347  0.771376486140323  1.0000
  H   H716      1.0  0.3716838981140099  0.41475788053636536  0.7303107297670316  1.0000
  H   H717      1.0  0.36749951612789344  0.4106372817069933  0.8047243301190976  1.0000
  H   H718      1.0  0.42576070137529426  0.4382041793537873  0.839195478462057  1.0000
  H   H719      1.0  0.38928967772422746  0.4427374297797183  0.8697077859940897  1.0000
  H   H720      1.0  0.4097724390041029  0.47116921408357726  0.8440362809165302  1.0000
  N   N45       1.0  0.5500243694032279  0.0384609066034709  0.9192789230288498  1.0000
  C   C465      1.0  0.5754169162708973  0.05722628621887127  0.9235345041996053  1.0000
  C   C466      1.0  0.5551226561474589  0.01985500428140785  0.872019381469844  1.0000
  C   C467      1.0  0.5220685800592719  0.05369104863755636  0.9092552880160816  1.0000
  C   C468      1.0  0.547287187607845  0.02318826082265657  0.9722726866023975  1.0000
  H   H721      1.0  0.5716343777890455  0.07207859953143125  0.957727244920302  1.0000
  H   H722      1.0  0.5784325028496183  0.06893354404358454  0.8841164682231369  1.0000
  H   H723      1.0  0.5968081410620601  0.046490347215122796  0.9328421945632963  1.0000
  H   H724      1.0  0.5575141559011328  0.030789062569226866  0.8315350313062267  1.0000
  H   H725      1.0  0.5757492098863642  0.007685054077682496  0.8781202550037209  1.0000
  H   H726      1.0  0.5362253697541026  0.005555624528542857  0.8676284938016179  1.0000
  H   H727      1.0  0.5023368020431336  0.0402462975704474  0.906344727576123  1.0000
  H   H728      1.0  0.5234363606691231  0.06570813537857512  0.869887079859705  1.0000
  H   H729      1.0  0.5177811714264746  0.06809794522878065  0.9437091834557448  1.0000
  H   H730      1.0  0.5283645802058369  0.00884370062581441  0.9707199241967971  1.0000
  H   H731      1.0  0.5433746856698473  0.036732424117454254  0.00870423763168171  1.0000
  H   H732      1.0  0.5680295177629183  0.011434048258593954  0.9811966908969078  1.0000
  N   N46       1.0  0.2330418149468784  0.5280006403146358  0.4484167883863585  1.0000
  C   C469      1.0  0.23534391515776223  0.5026256876205019  0.4802053495705251  1.0000
  C   C470      1.0  0.2579170027227848  0.5458416622464264  0.46441567898147396  1.0000
  C   C471      1.0  0.20407300544735363  0.5411539250816827  0.46161340586837035  1.0000
  C   C472      1.0  0.2347608990205782  0.5223159734458478  0.38761267108707465  1.0000
  H   H733      1.0  0.2571800935624824  0.49230524695270533  0.47239913696220587  1.0000
  H   H734      1.0  0.21722156491160213  0.4885319078677428  0.4683501032958775  1.0000
  H   H735      1.0  0.23330619554041535  0.50620418810493  0.5261443638122428  1.0000
  H   H736      1.0  0.2567590494219069  0.5653447173970771  0.4416517013771721  1.0000
  H   H737      1.0  0.25740996864726223  0.5503622788798741  0.5101496855737979  1.0000
  H   H738      1.0  0.2801070534199034  0.5365434000421208  0.4550424571051464  1.0000
  H   H739      1.0  0.20209360395039924  0.5457139790413712  0.5072737463254547  1.0000
  H   H740      1.0  0.18478988952776007  0.5281962542783407  0.4503564555781241  1.0000
  H   H741      1.0  0.2012970093031435  0.5602884591384866  0.43808734496893065  1.0000
  H   H742      1.0  0.23315819797789003  0.541016455808271  0.36226257709686205  1.0000
  H   H743      1.0  0.2162453235592289  0.5090071351605505  0.37409931247339645  1.0000
  H   H744      1.0  0.2561484878225612  0.5119837028315787  0.37629258451220676  1.0000
  N   N47       1.0  0.6329549429701271  0.7233190867989451  0.5459843018195938  1.0000
  C   C473      1.0  0.6511846123472004  0.7182132326326782  0.4951339925904421  1.0000
  C   C474      1.0  0.6511779727787109  0.7174066651926982  0.5962662203593045  1.0000
  C   C475      1.0  0.6061961783387025  0.7059724264065727  0.5457450941755562  1.0000
  C   C476      1.0  0.6233801530252854  0.7517207933866394  0.546731369329734  1.0000
  H   H745      1.0  0.6593533131026819  0.6971413451231613  0.49366092012669727  1.0000
  H   H746      1.0  0.6714793627413247  0.7310788522954559  0.4939820820716623  1.0000
  H   H747      1.0  0.6382853390908437  0.7223372345213556  0.4561422677436269  1.0000
  H   H748      1.0  0.6586245241093831  0.696042519426811  0.5969519458826746  1.0000
  H   H749      1.0  0.6719383826217589  0.7296897284173759  0.596954291081822  1.0000
  H   H750      1.0  0.638435399585365  0.7213339881636487  0.6356279970632079  1.0000
  H   H751      1.0  0.5925545687076944  0.709042202136362  0.5071222983643346  1.0000
  H   H752      1.0  0.5913482848258941  0.710045414451818  0.582398113534732  1.0000
  H   H753      1.0  0.6124956422464417  0.6843595313705204  0.5474556797530608  1.0000
  H   H754      1.0  0.6097726618475586  0.756820937377146  0.5090383463369481  1.0000
  H   H755      1.0  0.6430464646964258  0.7653599240417308  0.5465623273383755  1.0000
  H   H756      1.0  0.6095269148445647  0.7564258091548015  0.5844006650470086  1.0000
  N   N48       1.0  0.6542886273916654  0.2719077364643458  0.8483783548900345  1.0000
  C   C477      1.0  0.6317430241236444  0.28595665208489085  0.8136619350742339  1.0000
  C   C478      1.0  0.6845298998939207  0.28203798424051235  0.8345779436090626  1.0000
  C   C479      1.0  0.653021607441067  0.24286297067673185  0.8369244246805085  1.0000
  C   C480      1.0  0.6477415299058105  0.27677816188768817  0.9083884731542045  1.0000
  H   H757      1.0  0.6085881875541397  0.27932857850601334  0.8243335459282227  1.0000
  H   H758      1.0  0.6355821594069286  0.28229688198962455  0.7681590497685594  1.0000
  H   H759      1.0  0.6326120788177245  0.3079923038839267  0.8202633347681323  1.0000
  H   H760      1.0  0.6861579795049464  0.3040008084546962  0.8423135555728182  1.0000
  H   H761      1.0  0.7021086118868145  0.2718750771134215  0.8600870429789075  1.0000
  H   H762      1.0  0.6903735399397045  0.278448116257849  0.7897165616998426  1.0000
  H   H763      1.0  0.6579391345665987  0.2383536722822364  0.7920888661994947  1.0000
  H   H764      1.0  0.6305762020308782  0.23451112225274426  0.8475377289744285  1.0000
  H   H765      1.0  0.6697055318290646  0.23168941108757327  0.8624610648368419  1.0000
  H   H766      1.0  0.6250610394384707  0.2693279052116542  0.9201779879193326  1.0000
  H   H767      1.0  0.6484444116483931  0.2985592591089303  0.9183775794506523  1.0000
  H   H768      1.0  0.6641096383667419  0.26619614970812827  0.9358784545542129  1.0000
