data_image0
_chemical_formula_structural       FeS2FeS2FeSFeS3FeS2FeS2FeSFeS3FeS2FeS2FeSFeS3FeS2FeS2FeSFeS3FeS2FeS2FeSFeS3FeS2FeS2FeSFeS3FeS2FeS2FeSFeS3FeS2FeS2FeSFeS3C6H4C6H4C6H4C6H4C6H4C6H4C6H4C6H4C6H4C6H4C6H4C6H4C6H4C6H4C6H4C6H4FeS2FeS2FeSFeS3FeS2FeS2FeSFeS3FeS2FeS2FeSFeS3FeS2FeS2FeSFeS3FeS2FeS2FeSFeS3FeS2FeS2FeSFeS3FeS2FeS2FeSFeS3FeS2FeS2FeSFeS3C6H4C6H4C6H4C6H4C6H4C6H4C6H4C6H4C6H4C6H4C6H4C6H4C6H4C6H4C6H4C6H4FeS2FeS2FeSFeS3FeS2FeS2FeSFeS3FeS2FeS2FeSFeS3FeS2FeS2FeSFeS3FeS2FeS2FeSFeS3FeS2FeS2FeSFeS3FeS2FeS2FeSFeS3FeS2FeS2FeSFeS3C6H4C6H4C6H4C6H4C6H4C6H4C6H4C6H4C6H4C6H4C6H4C6H4C6H4C6H4C6H4C6H4FeS2FeS2FeSFeS3FeS2FeS2FeSFeS3FeS2FeS2FeSFeS3FeS2FeS2FeSFeS3FeS2FeS2FeSFeS3FeS2FeS2FeSFeS3FeS2FeS2FeSFeS3FeS2FeS2FeSFeS3C6H4C6H4C6H4C6H4C6H4C6H4C6H4C6H4C6H4C6H4C6H4C6H4C6H4C6H4C6H4C6H4NC4H12NC4H12NC4H12NC4H12NC4H12NC4H12NC4H12NC4H12NC4H12NC4H12NC4H12NC4H12NC4H12NC4H12NC4H12NC4H12NC4H12NC4H12NC4H12NC4H12NC4H12NC4H12NC4H12NC4H12NC4H12NC4H12NC4H12NC4H12NC4H12NC4H12NC4H12NC4H12NC4H12NC4H12NC4H12NC4H12NC4H12NC4H12NC4H12NC4H12NC4H12NC4H12NC4H12NC4H12NC4H12NC4H12NC4H12NC4H12NC4H12NC4H12NC4H12NC4H12NC4H12NC4H12NC4H12NC4H12NC4H12NC4H12NC4H12NC4H12NC4H12NC4H12NC4H12NC4H12
_chemical_formula_sum              "Fe128 S256 C640 H1024 N64"
_cell_length_a       41.8623309423458
_cell_length_b       41.252353663536
_cell_length_c       43.13946837068486
_cell_angle_alpha    90.07365531692095
_cell_angle_beta     89.84335475689451
_cell_angle_gamma    89.94650379017675

_space_group_name_H-M_alt    "P 1"
_space_group_IT_number       1

loop_
  _space_group_symop_operation_xyz
  'x, y, z'

loop_
  _atom_site_type_symbol
  _atom_site_label
  _atom_site_symmetry_multiplicity
  _atom_site_fract_x
  _atom_site_fract_y
  _atom_site_fract_z
  _atom_site_occupancy
  Fe  Fe1       1.0  0.2410262983136174  0.3663681287324431  0.3356322737314331  1.0000
  S   S1        1.0  0.20919545049213978  0.3434707217960661  0.30042694669279324  1.0000
  S   S2        1.0  0.2306967398820191  0.3557886842050167  0.3857061577695738  1.0000
  Fe  Fe2       1.0  0.28422609659751263  0.3961640561502476  0.2869639990222744  1.0000
  S   S3        1.0  0.2561247738398687  0.37510217143959645  0.2474633438207332  1.0000
  S   S4        1.0  0.3283908914348759  0.4249027179568526  0.27493776827587174  1.0000
  Fe  Fe3       1.0  0.21330364853832284  0.39058859933727913  0.2751273663857692  1.0000
  S   S5        1.0  0.16970629944215185  0.41662465271324567  0.25739749960809266  1.0000
  Fe  Fe4       1.0  0.25465296002632287  0.3298426297977302  0.27615092547222303  1.0000
  S   S6        1.0  0.25735605733924366  0.2792377110582825  0.25663957744099236  1.0000
  S   S7        1.0  0.24141456892616184  0.41509848559228074  0.3126689980419966  1.0000
  S   S8        1.0  0.2865442349297592  0.34922058769008024  0.3134685588787095  1.0000
  Fe  Fe5       1.0  0.4008061813886189  0.16945441982232756  0.23874970699235462  1.0000
  S   S9        1.0  0.3936517712469053  0.14517102778529975  0.2845666133255867  1.0000
  S   S10       1.0  0.39686335322892613  0.22388933463281685  0.2385836574265305  1.0000
  Fe  Fe6       1.0  0.41486307586260857  0.6309594907653308  0.22432567821277308  1.0000
  S   S11       1.0  0.4155854302844424  0.5885878047932191  0.25703897304705003  1.0000
  S   S12       1.0  0.4324544003139107  0.6327560427661711  0.17499928421504507  1.0000
  Fe  Fe7       1.0  0.36797885042918155  0.607840144464377  0.2728784794453815  1.0000
  S   S13       1.0  0.3240528567676363  0.5781338642721214  0.2837466317678647  1.0000
  Fe  Fe8       1.0  0.43954471621794605  0.11980553512747946  0.2733421763673639  1.0000
  S   S14       1.0  0.47361283735703735  0.1145270590901774  0.3131366543311245  1.0000
  S   S15       1.0  0.3656365253256082  0.6477769796014148  0.23736168772299734  1.0000
  S   S16       1.0  0.4484688346669512  0.1464601085839218  0.22889082754355716  1.0000
  Fe  Fe9       1.0  0.28637298973119085  0.040706165717673985  0.981072778298118  1.0000
  S   S17       1.0  0.29246248345010606  0.9883814906594252  0.9681927002498737  1.0000
  S   S18       1.0  0.24774056745136297  0.05893837117312774  0.012980240645273986  1.0000
  Fe  Fe10      1.0  0.3485378867137232  0.06126050095938339  0.9494827785592375  1.0000
  S   S19       1.0  0.3596779906979267  0.010669195488031406  0.9341920650871524  1.0000
  S   S20       1.0  0.3859558735057074  0.09924545293658248  0.940226893358554  1.0000
  Fe  Fe11      1.0  0.3076127024788958  0.008223447089710829  0.9217295001938565  1.0000
  S   S21       1.0  0.2934075766082846  0.9936603329806687  0.8731138475494105  1.0000
  Fe  Fe12      1.0  0.3438491028498091  0.9960157562534153  0.9818940752996854  1.0000
  S   S22       1.0  0.37077399069580913  0.9658364217811164  0.01677196739818839  1.0000
  S   S23       1.0  0.2975732299847508  0.06030537282698015  0.933730620380884  1.0000
  S   S24       1.0  0.3364921451199213  0.04694155093784349  0.9980308220791927  1.0000
  Fe  Fe13      1.0  0.11784542761788105  0.46206907437128314  0.09527178201537258  1.0000
  S   S25       1.0  0.13133451213902603  0.5143599041594159  0.0912201428929159  1.0000
  S   S26       1.0  0.15480920393004302  0.42648981650044476  0.111887381280481  1.0000
  Fe  Fe14      1.0  0.053561020731765926  0.47230896479890355  0.06357084264819785  1.0000
  S   S27       1.0  0.06214862899034499  0.5253898830182994  0.056472372386227356  1.0000
  S   S28       1.0  0.5504158670161966  0.5139092243817599  0.9918244770538204  1.0000
  Fe  Fe15      1.0  0.11192766617382933  0.5105373562381423  0.04297794021794684  1.0000
  S   S29       1.0  0.13676647047273202  0.5253058645357626  0.9987571963696213  1.0000
  Fe  Fe16      1.0  0.08044527365896981  0.5240598977166867  0.1053143690472336  1.0000
  S   S30       1.0  0.06754235932647455  0.5638160164678715  0.1389740724161679  1.0000
  S   S31       1.0  0.10173304247330776  0.4574119771402233  0.04597197815809188  1.0000
  S   S32       1.0  0.06851654148526186  0.47171848474509204  0.11362047930403614  1.0000
  Fe  Fe17      1.0  0.06160871572800171  0.31356374590846575  0.4230859487531092  1.0000
  S   S33       1.0  0.0923428680931891  0.27030051581076187  0.41408280482660736  1.0000
  S   S34       1.0  0.0820643885608596  0.36250152929812607  0.4116973878545912  1.0000
  Fe  Fe18      1.0  0.5036430718337087  0.2840074204355149  0.4250703262065152  1.0000
  S   S35       1.0  0.5334100668913162  0.238785580098626  0.4256905909379892  1.0000
  S   S36       1.0  0.45056302017180366  0.27644625318911753  0.43062215592509817  1.0000
  Fe  Fe19      1.0  0.07229852715958675  0.2526764960136034  0.4592936650513655  1.0000
  S   S37       1.0  0.10254650395162858  0.23335199468805712  0.498350566140358  1.0000
  Fe  Fe20      1.0  0.5558993217269304  0.2585020817751221  0.3823870960647649  1.0000
  S   S38       1.0  0.5636762419132857  0.23521040597700527  0.3357612007672016  1.0000
  S   S39       1.0  0.04361343836486264  0.29755689443299604  0.4696533113692728  1.0000
  S   S40       1.0  0.5236508219155233  0.30160911300221993  0.38005784138925214  1.0000
  Fe  Fe21      1.0  0.33276459183115153  0.32242112213127777  0.5592785580979459  1.0000
  S   S41       1.0  0.3198979448973851  0.26995029644209473  0.5544445498396158  1.0000
  S   S42       1.0  0.37948057131663815  0.3438421941834709  0.5431722174220985  1.0000
  Fe  Fe22      1.0  0.2690255723975572  0.3396558571122954  0.5906341687867596  1.0000
  S   S43       1.0  0.25103401452509866  0.28865290958872114  0.587974935629792  1.0000
  S   S44       1.0  0.23973835190168086  0.3811446369281371  0.6095509008339908  1.0000
  Fe  Fe23      1.0  0.3008305490102485  0.27528952179560184  0.6028992559749875  1.0000
  S   S45       1.0  0.30868464198660933  0.2403395249639412  0.6421144782259599  1.0000
  Fe  Fe24      1.0  0.2717184613760599  0.2886470114738006  0.539972077080204  1.0000
  S   S46       1.0  0.2480749174997316  0.27482431444875727  0.4950593743705115  1.0000
  S   S47       1.0  0.31732261656198074  0.32653112444888466  0.6090105956895245  1.0000
  S   S48       1.0  0.28607501460879003  0.340939836362308  0.5414149526440754  1.0000
  Fe  Fe25      1.0  0.14611959755197637  0.8975515021803627  0.8238601578198272  1.0000
  S   S49       1.0  0.14791639565067513  0.932823040342224  0.7844689850508639  1.0000
  S   S50       1.0  0.18644504981113166  0.8865981221020464  0.8567569052993714  1.0000
  Fe  Fe26      1.0  0.07609106053598165  0.8804065790926414  0.8127002580652005  1.0000
  S   S51       1.0  0.07168661643370314  0.9146362147948675  0.7726153666717784  1.0000
  S   S52       1.0  0.02887982106065402  0.3689879633400266  0.7996553927994955  1.0000
  Fe  Fe27      1.0  0.11989295591575301  0.8950090520194599  0.7585395708998078  1.0000
  S   S53       1.0  0.16507394418247634  0.3514439787389879  0.7338701176357665  1.0000
  Fe  Fe28      1.0  0.09987014842275208  0.94923525666387  0.8021217159249688  1.0000
  S   S54       1.0  0.091164788542783  0.001853056324979649  0.8138114299958629  1.0000
  S   S55       1.0  0.12350291742783459  0.37448980211032196  0.8082891738516755  1.0000
  S   S56       1.0  0.10029316626643982  0.9165119379983366  0.8434970768353532  1.0000
  Fe  Fe29      1.0  0.4390904669379192  0.15343704376094722  0.7780426780050608  1.0000
  S   S57       1.0  0.4585675075812368  0.14134888873992157  0.7306325243850874  1.0000
  S   S58       1.0  0.39426919169905444  0.13033024215668232  0.7970861362753838  1.0000
  Fe  Fe30      1.0  0.48812928738977396  0.20608436118450912  0.7896640238196252  1.0000
  S   S59       1.0  0.5117416151795869  0.19847551023610913  0.7437503233401461  1.0000
  S   S60       1.0  0.5018518166868613  0.24591628743989877  0.8227502129313203  1.0000
  Fe  Fe31      1.0  0.4621580067903243  0.1954206358316678  0.724681866958366  1.0000
  S   S61       1.0  0.4533967759220942  0.22551638393120868  0.6818985060731553  1.0000
  Fe  Fe32      1.0  0.5063703321331301  0.14540996343040938  0.7539437530465797  1.0000
  S   S62       1.0  0.5497395345995014  0.11371845928891847  0.7477322617931462  1.0000
  S   S63       1.0  0.4386973670640445  0.2071939057094237  0.7700172689722596  1.0000
  S   S64       1.0  0.48670200798231195  0.1533197902303333  0.801789314454781  1.0000
  C   C1        1.0  0.03167403960707881  0.3266857875514487  0.8020627992302128  1.0000
  C   C2        1.0  0.008328059766018692  0.3076561157879787  0.7877569654798114  1.0000
  C   C3        1.0  0.5612289035524525  0.2450605176977642  0.7955769760646546  1.0000
  C   C4        1.0  0.5394010552104826  0.2624654316717966  0.8136745141569511  1.0000
  C   C5        1.0  0.05842056332816389  0.27774554459999456  0.8194315500835264  1.0000
  C   C6        1.0  0.05684387326847876  0.3117264801905839  0.8178185886603757  1.0000
  H   H1        1.0  0.9888726041742313  0.3191579666130622  0.775453450595967  1.0000
  H   H2        1.0  0.556440572272525  0.22011505444808832  0.7895248322478389  1.0000
  H   H3        1.0  0.07760323643738178  0.26621019644010324  0.8320874036904907  1.0000
  H   H4        1.0  0.07473138874603201  0.32630780320274383  0.8292700034711991  1.0000
  C   C7        1.0  0.059986918320401705  0.02209991174107171  0.794577228978344  1.0000
  C   C8        1.0  0.03978437869733928  0.005712523061452049  0.7741292251916314  1.0000
  C   C9        1.0  0.014655254536528162  0.02234781723890047  0.7596185240187214  1.0000
  C   C10       1.0  0.009655364541319322  0.055407957018606915  0.7654613015679326  1.0000
  C   C11       1.0  0.5151444949677431  0.05690136949565682  0.745771512414908  1.0000
  C   C12       1.0  0.05505648687133406  0.05519903013176667  0.8003266526183019  1.0000
  H   H5        1.0  0.04346213210737383  0.9802546928742653  0.7694698181816045  1.0000
  H   H6        1.0  0.9989701370502123  0.009529600267963588  0.743929061421119  1.0000
  H   H7        1.0  0.4948093824363944  0.0715001763432707  0.7391163723661692  1.0000
  H   H8        1.0  0.07071533518236434  0.06804233090483755  0.8160053873769899  1.0000
  C   C13       1.0  0.3489638143285802  0.23606686550900455  0.6528422014661521  1.0000
  C   C14       1.0  0.35699799883819405  0.21633862659276376  0.6780902966044154  1.0000
  C   C15       1.0  0.389017546114206  0.2130549774056678  0.6872718635336851  1.0000
  C   C16       1.0  0.4130917766305874  0.22945174258097262  0.6711346803376833  1.0000
  C   C17       1.0  0.405016702141667  0.24940157662800547  0.6460490894334465  1.0000
  C   C18       1.0  0.37300062600101597  0.25277786671176206  0.636949302711588  1.0000
  H   H9        1.0  0.3384749542538507  0.2033225858244489  0.6903991665892165  1.0000
  H   H10       1.0  0.39509774722563  0.1975015305180187  0.7065567600822934  1.0000
  H   H11       1.0  0.4235499434743004  0.262148222992866  0.6335270630766108  1.0000
  H   H12       1.0  0.3669824756267679  0.2680622023100792  0.6174596841953278  1.0000
  C   C19       1.0  0.21694188593948335  0.37305392045654084  0.6429834449331441  1.0000
  C   C20       1.0  0.21019281812757526  0.3411828237035311  0.6517401007486973  1.0000
  C   C21       1.0  0.19321189549933007  0.335054936991381  0.6791734664279023  1.0000
  C   C22       1.0  0.1832365732268568  0.36067703855791716  0.6982230500017648  1.0000
  C   C23       1.0  0.18909718560515493  0.39262642454677626  0.6891098803057819  1.0000
  C   C24       1.0  0.20586397358372424  0.39878502924177356  0.661424298902713  1.0000
  H   H13       1.0  0.2181268016886531  0.3212246063471849  0.6374906747337125  1.0000
  H   H14       1.0  0.1555181475378324  0.8373647210233672  0.6617158296703877  1.0000
  H   H15       1.0  0.18130640201823436  0.412544083506404  0.7036489146915818  1.0000
  H   H16       1.0  0.21085645661648902  0.4235257196258563  0.6546493806468383  1.0000
  C   C25       1.0  0.143444778579073  0.24319927185835916  0.49710136728342397  1.0000
  C   C26       1.0  0.16122815882911096  0.24347275612473127  0.5246139795860036  1.0000
  C   C27       1.0  0.1935852044222864  0.25256056536515753  0.5242655350724744  1.0000
  C   C28       1.0  0.20831660816372224  0.2611607595701101  0.49632127826123085  1.0000
  C   C29       1.0  0.19081733643656448  0.2599792034582096  0.46874168677150146  1.0000
  C   C30       1.0  0.15845155502016603  0.25120758080696165  0.4691444087897102  1.0000
  H   H17       1.0  0.14986655424281367  0.23684135712116156  0.5462535588777876  1.0000
  H   H18       1.0  0.20709030003249612  0.2526924617634038  0.5455681517994612  1.0000
  H   H19       1.0  0.20225898254611355  0.2659463487116176  0.44697975582353494  1.0000
  H   H20       1.0  0.14535015408961793  0.25006127206376366  0.4477310440287061  1.0000
  C   C31       1.0  0.4312904300972185  0.29539266638913325  0.4619887877199664  1.0000
  C   C32       1.0  0.4019219190669359  0.28317379033197865  0.4723223233348847  1.0000
  C   C33       1.0  0.38598179294304164  0.29773351970669504  0.4973953243546627  1.0000
  C   C34       1.0  0.3991917046365018  0.3248012915505542  0.5120474698363892  1.0000
  C   C35       1.0  0.42857074693202346  0.3370532084735787  0.5016617760158854  1.0000
  C   C36       1.0  0.4446576298528676  0.32233067436490115  0.4767082202333032  1.0000
  H   H21       1.0  0.3916776947839693  0.2621181874881059  0.4611597669515596  1.0000
  H   H22       1.0  0.3635178790448607  0.28799962701240395  0.5053730979775767  1.0000
  H   H23       1.0  0.4387833356717732  0.35814468679062095  0.5128115424557844  1.0000
  H   H24       1.0  0.4670768491269228  0.33219798269414197  0.4685361966081003  1.0000
  C   C37       1.0  0.3882435119506235  0.10866600106695314  0.9006860727291388  1.0000
  C   C38       1.0  0.41800416918228617  0.11466202072389224  0.8869392454567278  1.0000
  C   C39       1.0  0.4201481518359209  0.12134571875657418  0.855090557395242  1.0000
  C   C40       1.0  0.3924609669265296  0.12278190380422914  0.8370846278869805  1.0000
  C   C41       1.0  0.362653286481599  0.11751830889245878  0.8510403799901002  1.0000
  C   C42       1.0  0.360564147432793  0.11008133565363606  0.8826946418911025  1.0000
  H   H25       1.0  0.43948777810943773  0.1132956351602558  0.9007790042879518  1.0000
  H   H26       1.0  0.4432407448853514  0.12483047178281517  0.8444758079990152  1.0000
  H   H27       1.0  0.34109053776655857  0.11903014908015593  0.8373246714077975  1.0000
  H   H28       1.0  0.3374875989622393  0.10579659694540723  0.8932558555144812  1.0000
  C   C43       1.0  0.2639397120046143  0.9636176933159696  0.8689614857663832  1.0000
  C   C44       1.0  0.25509357556169554  0.9437853563590243  0.8937841284866663  1.0000
  C   C45       1.0  0.2314516324054267  0.9200037330014463  0.8897416403334285  1.0000
  C   C46       1.0  0.21596067886787154  0.9165617437847373  0.8611572845041232  1.0000
  C   C47       1.0  0.22453908387548507  0.9366706076956517  0.8364361300046962  1.0000
  C   C48       1.0  0.24880650266083473  0.9598203223528199  0.8402285655220801  1.0000
  H   H29       1.0  0.26680743939267587  0.946371213223935  0.9159520690540731  1.0000
  H   H30       1.0  0.22499249178292288  0.9043942385456472  0.9089047683299816  1.0000
  H   H31       1.0  0.21292462992045025  0.9340378767941115  0.8142353219179778  1.0000
  H   H32       1.0  0.2556260672434941  0.9750667769917005  0.8209231473422127  1.0000
  C   C49       1.0  0.5139341459541216  0.4934721826410268  0.9876492205566262  1.0000
  C   C50       1.0  0.4658281234203058  0.9602848422434314  0.034337527879061414  1.0000
  C   C51       1.0  0.43238133792220046  0.9600627877123749  0.03777199409558385  1.0000
  C   C52       1.0  0.412549241782086  0.9658379924254322  0.012157229975540884  1.0000
  C   C53       1.0  0.46076408294195415  0.49052854458650585  0.9652038313184249  1.0000
  C   C54       1.0  0.49077972934733743  0.5055669712958014  0.9673040709131715  1.0000
  H   H33       1.0  0.4810612308889234  0.9556469303924569  0.05406955245852907  1.0000
  H   H34       1.0  0.4218640572526587  0.9553428522371272  0.060245464851769404  1.0000
  H   H35       1.0  0.44258343375251896  0.500505048611001  0.9501867838584553  1.0000
  H   H36       1.0  0.4956600729003032  0.5271639179427617  0.9538923638532729  1.0000
  C   C55       1.0  0.2094283715905946  0.0423006830846137  0.008766163678764245  1.0000
  C   C56       1.0  0.1856014134567357  0.05047497679467992  0.030287882451313586  1.0000
  C   C57       1.0  0.1548598427824778  0.03723183898695087  0.02776141091987879  1.0000
  C   C58       1.0  0.14772227793778767  0.01607329737396379  0.00343971241431972  1.0000
  C   C59       1.0  0.17158908329423225  0.007663870922220746  0.9820145845450399  1.0000
  C   C60       1.0  0.20249676498989402  0.020628060067846826  0.9847482390585683  1.0000
  H   H37       1.0  0.19091202697078385  0.06723270760587631  0.048899073003023014  1.0000
  H   H38       1.0  0.13649971652080659  0.04400596053303549  0.0442294431345725  1.0000
  H   H39       1.0  0.1662436202805296  0.9907291069103011  0.9635961942110054  1.0000
  H   H40       1.0  0.22095590171808446  0.013919950360645349  0.9683603570261115  1.0000
  C   C61       1.0  0.4998192038344262  0.14721065740584538  0.31887447786013706  1.0000
  C   C62       1.0  0.5104800015063209  0.16603100779151225  0.29395825267306425  1.0000
  C   C63       1.0  0.5310453978509087  0.19234831805933333  0.29919636029695484  1.0000
  C   C64       1.0  0.5402716803458162  0.2004702709240403  0.32942892370692173  1.0000
  C   C65       1.0  0.5294079615588905  0.18181838818549734  0.35434019298295605  1.0000
  C   C66       1.0  0.509619422007548  0.1549497809654401  0.3490150943248137  1.0000
  H   H41       1.0  0.5033663038738985  0.1599388012394494  0.27060962320521853  1.0000
  H   H42       1.0  0.5394193355386128  0.2066674876834037  0.27982464559484455  1.0000
  H   H43       1.0  0.536695137225402  0.1876891701990448  0.3776776586889971  1.0000
  H   H44       1.0  0.501535625429129  0.14035334956233375  0.3683287275443004  1.0000
  C   C67       1.0  0.45611481317165703  0.5991218153642498  0.1652558360805848  1.0000
  C   C68       1.0  0.4812034847039997  0.6023878747457346  0.14388338170992296  1.0000
  C   C69       1.0  0.5012850360971549  0.5759199807240019  0.13727534617057527  1.0000
  C   C70       1.0  0.49594719763666634  0.5461203781130756  0.15178209658493272  1.0000
  C   C71       1.0  0.4702959564360297  0.5426763560564332  0.17240557801175377  1.0000
  C   C72       1.0  0.45046300074719203  0.5691138147839677  0.1791785660903411  1.0000
  H   H45       1.0  0.4856282044834399  0.625607792754753  0.13304435324352903  1.0000
  H   H46       1.0  0.017197390779192023  0.5163129759649048  0.1326769779868477  1.0000
  H   H47       1.0  0.5362471883452974  0.05396012813192817  0.19732510772765696  1.0000
  H   H48       1.0  0.4828868642701792  0.07967352612214466  0.20252055347845987  1.0000
  C   C73       1.0  0.3280994462685689  0.46735521413601216  0.2794778782864391  1.0000
  C   C74       1.0  0.3037157216914851  0.48305980224568  0.2958589334429321  1.0000
  C   C75       1.0  0.3031594750254485  0.5170783292635154  0.297674634437167  1.0000
  C   C76       1.0  0.3271052698542018  0.5355654851603029  0.28333771687588416  1.0000
  C   C77       1.0  0.3518368817919986  0.5198350227094405  0.26746849804183864  1.0000
  C   C78       1.0  0.352320657738023  0.4858182066732272  0.26557534168704855  1.0000
  H   H49       1.0  0.285339074162123  0.4690584591369098  0.3071877918139293  1.0000
  H   H50       1.0  0.28409249463007125  0.5291464670177451  0.3101541316717999  1.0000
  H   H51       1.0  0.3702055586965097  0.5338375061557298  0.2560912227632992  1.0000
  H   H52       1.0  0.37129270800450254  0.47377777938967175  0.2529376689908699  1.0000
  C   C79       1.0  0.2962795173153701  0.2654500843911879  0.24888760527915837  1.0000
  C   C80       1.0  0.3006376816128118  0.2344589233968564  0.23629367510608695  1.0000
  C   C81       1.0  0.33147132973790394  0.22147415769771278  0.2328355599360737  1.0000
  C   C82       1.0  0.3580842280273546  0.24002461109267606  0.24100191146691954  1.0000
  C   C83       1.0  0.35377069076311995  0.27181526831117164  0.25178796072008747  1.0000
  C   C84       1.0  0.32290418783746627  0.2843609626826371  0.25616104998015005  1.0000
  H   H53       1.0  0.28003210727730043  0.22064690638166035  0.22916766408530556  1.0000
  H   H54       1.0  0.3346918258755955  0.19731700135087332  0.22356772728216204  1.0000
  H   H55       1.0  0.37426947324333415  0.28671942943941703  0.25708827580917853  1.0000
  H   H56       1.0  0.31975645446824724  0.30865935119515947  0.26507298294516457  1.0000
  C   C85       1.0  0.18948916851295747  0.3580055900213172  0.39306664530156343  1.0000
  C   C86       1.0  0.17032324480443964  0.3802059096947962  0.37714856253165707  1.0000
  C   C87       1.0  0.13747666419356605  0.38212239151629307  0.3836467874894358  1.0000
  C   C88       1.0  0.12352582203582192  0.3610958297343809  0.4052676931931538  1.0000
  C   C89       1.0  0.14267363867037464  0.3386171075332654  0.4208768281343192  1.0000
  C   C90       1.0  0.17564853455768561  0.33733348415636555  0.41501560035725926  1.0000
  H   H57       1.0  0.1809050975425354  0.39629704477854594  0.36019605111221886  1.0000
  H   H58       1.0  0.12278552971940007  0.3995944689243015  0.3715615603132373  1.0000
  H   H59       1.0  0.13214405080040154  0.3223921724954065  0.4376839593325793  1.0000
  H   H60       1.0  0.19035407065257176  0.31995076558821456  0.4271210676556922  1.0000
  C   C91       1.0  0.15818861943114995  0.4233987935606695  0.15233761105806232  1.0000
  C   C92       1.0  0.1811616704170453  0.40258317279536066  0.1649979876543504  1.0000
  C   C93       1.0  0.18448173464172424  0.39991112738778956  0.19725297037690953  1.0000
  C   C94       1.0  0.16487901767350277  0.4181157713649253  0.21697135495756312  1.0000
  C   C95       1.0  0.14173369461075963  0.4387676455209243  0.20431522388702905  1.0000
  C   C96       1.0  0.13850550981899465  0.4415653947025044  0.1720296036795604  1.0000
  H   H61       1.0  0.19626151045705087  0.388288238257007  0.1498491716798867  1.0000
  H   H62       1.0  0.2019670561644926  0.3834847953070715  0.20677797938632353  1.0000
  H   H63       1.0  0.12648247809123236  0.4528817648899101  0.21947872369843227  1.0000
  H   H64       1.0  0.12075091590234385  0.4577024804946665  0.16239794167229524  1.0000
  Fe  Fe33      1.0  0.22769303288965106  0.8768160359405828  0.32857911566702147  1.0000
  S   S65       1.0  0.20302637566088771  0.8648058151955975  0.28399241689984506  1.0000
  S   S66       1.0  0.20729469601662778  0.8683534606513904  0.37624207337818316  1.0000
  Fe  Fe34      1.0  0.2840835458720061  0.9083925741098277  0.29553053310041083  1.0000
  S   S67       1.0  0.2642073769792707  0.898873959660885  0.2481605001413267  1.0000
  S   S68       1.0  0.3312927498567037  0.93343548752819  0.3017436637846232  1.0000
  Fe  Fe35      1.0  0.2175514779581231  0.9147561423170667  0.2691052602132384  1.0000
  S   S69       1.0  0.18398984357215276  0.9522355491310808  0.24960923104780305  1.0000
  Fe  Fe36      1.0  0.2519905812232828  0.8499040308348841  0.2677287086984007  1.0000
  S   S70       1.0  0.25882723569580585  0.8024866096811616  0.24263895903922764  1.0000
  S   S71       1.0  0.23848528960013482  0.9280039318881947  0.3151312408274553  1.0000
  S   S72       1.0  0.27558653991670456  0.8581735732384025  0.3137021267668752  1.0000
  Fe  Fe37      1.0  0.39046653606519277  0.6779466755215077  0.27320619925984363  1.0000
  S   S73       1.0  0.38855057171619894  0.639890256932608  0.31003893857997816  1.0000
  S   S74       1.0  0.385609974681889  0.731164885671563  0.28338504635316625  1.0000
  Fe  Fe38      1.0  0.4198952828970028  0.10645772860588565  0.20677386703980738  1.0000
  S   S75       1.0  0.415480107044722  0.0774638061617241  0.25049830522264593  1.0000
  S   S76       1.0  0.4281719319599849  0.08008762717578488  0.16147587969351196  1.0000
  Fe  Fe39      1.0  0.3703110680273442  0.1054245570398169  0.25769976521392346  1.0000
  S   S77       1.0  0.32334479148054324  0.08291272997792376  0.27105159393827777  1.0000
  Fe  Fe40      1.0  0.43592494419230493  0.6240269640185944  0.29124346452483024  1.0000
  S   S78       1.0  0.4754375560905754  0.6117875399823659  0.32438747174241783  1.0000
  S   S79       1.0  0.3728613978672987  0.1320995877631117  0.21252430417216947  1.0000
  S   S80       1.0  0.439562494230276  0.6644857259242475  0.2571976346794602  1.0000
  Fe  Fe41      1.0  0.3175384747915294  0.5112810389710309  0.9726604630455002  1.0000
  S   S81       1.0  0.3277373237009106  0.459610305185781  0.9598338830959405  1.0000
  S   S82       1.0  0.2867925911575885  0.5229769775121613  0.014018546122578999  1.0000
  Fe  Fe42      1.0  0.3642907518687617  0.5380428695581935  0.9251065597249227  1.0000
  S   S83       1.0  0.3790540119022622  0.4887136356228448  0.9087175778843102  1.0000
  S   S84       1.0  0.385050217248223  0.5838889578451459  0.9053669904208201  1.0000
  Fe  Fe43      1.0  0.32657613283690623  0.47778400230592893  0.9108802825271947  1.0000
  S   S85       1.0  0.30555529637539913  0.45149740933947063  0.8701180924666937  1.0000
  Fe  Fe44      1.0  0.37902249283604916  0.4753978439830635  0.9590116960265699  1.0000
  S   S86       1.0  0.41624932801903536  0.4451093220691745  0.9826909484305599  1.0000
  S   S87       1.0  0.3116125851761566  0.5283523656622962  0.9236435267276781  1.0000
  S   S88       1.0  0.36907472329343327  0.5257973357379586  0.9755444490635697  1.0000
  Fe  Fe45      1.0  0.08336479535178555  0.9535986634860855  0.10354386352269077  1.0000
  S   S89       1.0  0.10243354291263655  0.002971656085250629  0.09231760260996784  1.0000
  S   S90       1.0  0.1129541318220445  0.9145133011101079  0.12584770134824338  1.0000
  Fe  Fe46      1.0  0.020496369825760086  0.9659666675841507  0.07043418778209039  1.0000
  S   S91       1.0  0.034257317800573416  0.01623289193207733  0.0559801808415148  1.0000
  S   S92       1.0  0.5208592454562965  0.9645966048082534  0.9990775961723328  1.0000
  Fe  Fe47      1.0  0.08217043313052638  0.9942676710845727  0.04491702825206763  1.0000
  S   S93       1.0  0.10942231029421774  0.9991406816505649  0.9999078615655449  1.0000
  Fe  Fe48      1.0  0.05290948426891967  0.020187295656475035  0.10457263383301436  1.0000
  S   S94       1.0  0.04370019032931788  0.06462134188607571  0.133643379226188  1.0000
  S   S95       1.0  0.06653532276645899  0.9435164088121281  0.05527638412322536  1.0000
  S   S96       1.0  0.03565473975394137  0.9713458459609633  0.1200372237882424  1.0000
  Fe  Fe49      1.0  0.0512636298444067  0.7848039627757796  0.4196611264517348  1.0000
  S   S97       1.0  0.060196067799271835  0.7362044769816621  0.44160782342169186  1.0000
  S   S98       1.0  0.07489508528137803  0.7963697980009135  0.37403932423968134  1.0000
  Fe  Fe50      1.0  0.5131739210002471  0.776871168833667  0.4469961106877266  1.0000
  S   S99       1.0  0.5346949191183595  0.727157886080901  0.44304533677257074  1.0000
  S   S100      1.0  0.4592530318471653  0.7777757327269526  0.4501947398018317  1.0000
  Fe  Fe51      1.0  0.0602061922957396  0.7646934150947672  0.486167071876761  1.0000
  S   S101      1.0  0.09201685316004643  0.759293791398759  0.5281179931558341  1.0000
  Fe  Fe52      1.0  0.5623895784066303  0.7478792842102171  0.40312608151881263  1.0000
  S   S102      1.0  0.5688734854119102  0.7277637142521463  0.3550059484164827  1.0000
  S   S103      1.0  0.05489591326204935  0.8134713594723999  0.46380157395576405  1.0000
  S   S104      1.0  0.5380680186070359  0.7961575706162997  0.4046666216564623  1.0000
  Fe  Fe53      1.0  0.3370354785586566  0.8078174429825764  0.5812802495291689  1.0000
  S   S105      1.0  0.3098662099557632  0.7688432647160293  0.5566191618799433  1.0000
  S   S106      1.0  0.38966285646594295  0.8186049799578174  0.5750263658040289  1.0000
  Fe  Fe54      1.0  0.2821349838740862  0.8213185324052308  0.6267518842802915  1.0000
  S   S107      1.0  0.2508440099506591  0.7825011352561108  0.606609949367833  1.0000
  S   S108      1.0  0.27182187757118476  0.8514480809754665  0.6694107577962202  1.0000
  Fe  Fe55      1.0  0.2955618951963111  0.7527670750652083  0.6041654092862785  1.0000
  S   S109      1.0  0.29912009247739907  0.7008901697180313  0.6188735651962867  1.0000
  Fe  Fe56      1.0  0.2673878597425086  0.8020633005448133  0.5606865955544397  1.0000
  S   S110      1.0  0.23561972188567426  0.8071282173063353  0.5185605812256208  1.0000
  S   S111      1.0  0.3253244268178877  0.7893446439245541  0.6287363002595817  1.0000
  S   S112      1.0  0.29604418017787043  0.8432032123430723  0.5809081465809866  1.0000
  Fe  Fe57      1.0  0.13496923895978719  0.4253210584705114  0.8230121181367263  1.0000
  S   S113      1.0  0.15512568346759142  0.4401814758036417  0.7767846361612503  1.0000
  S   S114      1.0  0.15529179687296368  0.43834660738355086  0.8697511851613375  1.0000
  Fe  Fe58      1.0  0.07600237729034644  0.3944273295062338  0.7944372664872148  1.0000
  S   S115      1.0  0.09091233789182879  0.4070687867716096  0.7460857441496276  1.0000
  S   S116      1.0  0.03542577967421984  0.8510624134747294  0.8323089892508303  1.0000
  Fe  Fe59      1.0  0.1395395485487401  0.39060791865268485  0.760984196346872  1.0000
  S   S117      1.0  0.12844704803680565  0.8765749833512968  0.70990999566941  1.0000
  Fe  Fe60      1.0  0.1045048250174153  0.4552572625567623  0.7662605867533949  1.0000
  S   S118      1.0  0.09270924933218803  0.5026030507061456  0.7425154133734873  1.0000
  S   S119      1.0  0.12200265551133535  0.8581848013286255  0.7967221815793334  1.0000
  S   S120      1.0  0.08564326996033891  0.443874594687315  0.8136754332813915  1.0000
  Fe  Fe61      1.0  0.43767328982107884  0.6215564901099319  0.7407511556506693  1.0000
  S   S121      1.0  0.4666616302017343  0.6058319117863229  0.6994083386736539  1.0000
  S   S122      1.0  0.4039898762203091  0.5841255378270288  0.7600527340280505  1.0000
  Fe  Fe62      1.0  0.468659321760711  0.6880860568075369  0.7430388945162758  1.0000
  S   S123      1.0  0.5005989180238802  0.6771732399386784  0.7028018129479464  1.0000
  S   S124      1.0  0.4680900857685173  0.738958674940829  0.7618582789858456  1.0000
  Fe  Fe63      1.0  0.4569116462634732  0.6557608954862184  0.6813481617406212  1.0000
  S   S125      1.0  0.44670768155812285  0.6716640932703006  0.632600513502781  1.0000
  Fe  Fe64      1.0  0.507304825310498  0.6285626253098463  0.7251167534130134  1.0000
  S   S126      1.0  0.55649152395698  0.6071032879580714  0.7303928292362661  1.0000
  S   S127      1.0  0.42412305560553654  0.6696229166422761  0.7202391186885432  1.0000
  S   S128      1.0  0.4791365751781644  0.6413014339832227  0.7677077363931502  1.0000
  C   C97       1.0  0.023792558592306667  0.818424271479857  0.8085262673566611  1.0000
  C   C98       1.0  0.0014339460731753741  0.7958353490764568  0.8194965372081356  1.0000
  C   C99       1.0  0.5331449698586648  0.7410740246109572  0.7530748623835162  1.0000
  C   C100      1.0  0.5053459772429701  0.7586045211833162  0.7597519954219005  1.0000
  C   C101      1.0  0.026863695035735487  0.7887919420197297  0.7599268447118642  1.0000
  C   C102      1.0  0.036502758634818576  0.8148417836535031  0.7786988728295893  1.0000
  H   H65       1.0  0.9915469088070625  0.7984768718270993  0.8425489446106291  1.0000
  H   H66       1.0  0.5320667808303062  0.7150829611742208  0.7503340776839365  1.0000
  H   H67       1.0  0.03677708825562237  0.7861600486073818  0.7368767537041372  1.0000
  H   H68       1.0  0.05367181699269803  0.8322093161575491  0.7700114039072267  1.0000
  C   C103      1.0  0.05957149808772668  0.5229330489375122  0.7585921924762441  1.0000
  C   C104      1.0  0.038063933629210074  0.5063647267471457  0.7776312321347308  1.0000
  C   C105      1.0  0.012319783818872441  0.5227878443474425  0.7912525408478945  1.0000
  C   C106      1.0  0.0074067909916535335  0.5557757465092295  0.785386455273621  1.0000
  C   C107      1.0  0.5317752566743401  0.5453886576178981  0.7260703090303173  1.0000
  C   C108      1.0  0.05434598805050321  0.5558890863560929  0.7521864905514891  1.0000
  H   H69       1.0  0.041006028723675515  0.48074070402879954  0.7816040971454055  1.0000
  H   H70       1.0  0.9960351173699659  0.509725871283691  0.8062179838046415  1.0000
  H   H71       1.0  0.5098986317281995  0.556479937336217  0.7182892198177074  1.0000
  H   H72       1.0  0.07081800958275322  0.5687736629994703  0.7372733289263613  1.0000
  C   C109      1.0  0.33997501635876176  0.6915942924326041  0.6219460134062116  1.0000
  C   C110      1.0  0.35037873664263286  0.6669572773730655  0.6418206601908596  1.0000
  C   C111      1.0  0.38319749840697  0.6606816346909271  0.6452118428208181  1.0000
  C   C112      1.0  0.4055648207751269  0.6784442708355757  0.6280743455291683  1.0000
  C   C113      1.0  0.3950967934044381  0.7027082481131482  0.6078838499634758  1.0000
  C   C114      1.0  0.36245168718217213  0.7095673396439532  0.6051517082552631  1.0000
  H   H73       1.0  0.33313158970714796  0.6530976136341996  0.655005074588792  1.0000
  H   H74       1.0  0.39112377439002355  0.6418185612563225  0.6608239036181238  1.0000
  H   H75       1.0  0.41215210625067955  0.7168615087235946  0.5949462910450164  1.0000
  H   H76       1.0  0.3547431016323685  0.728739260181932  0.589903855214284  1.0000
  C   C115      1.0  0.2317120447565682  0.8600966582406662  0.6786149971017699  1.0000
  C   C116      1.0  0.2065653262463373  0.8441989530893932  0.6637245560938921  1.0000
  C   C117      1.0  0.17488274234438883  0.8499358506930154  0.6731116431877905  1.0000
  C   C118      1.0  0.16821697294381602  0.8713399924961083  0.6975834178631972  1.0000
  C   C119      1.0  0.1933027079522661  0.8877408952815238  0.71206355744854  1.0000
  C   C120      1.0  0.22496366112127142  0.882264416218206  0.7024287474379898  1.0000
  H   H77       1.0  0.2115030861843131  0.8272657351712119  0.6452124742359692  1.0000
  H   H78       1.0  0.1881094374672244  0.3103292767092796  0.6858645844614397  1.0000
  H   H79       1.0  0.18827622386449736  0.904818098787433  0.730466293997456  1.0000
  H   H80       1.0  0.2443389076798961  0.8951402360982945  0.7134962022189937  1.0000
  C   C121      1.0  0.13123361305915465  0.7743560427511789  0.5250924858262683  1.0000
  C   C122      1.0  0.1497334007336362  0.7771950354425724  0.5519993882936485  1.0000
  C   C123      1.0  0.18141336811181322  0.7882119685369519  0.5502827685387753  1.0000
  C   C124      1.0  0.19506610191743645  0.7958182265014843  0.5215928106036577  1.0000
  C   C125      1.0  0.17636901221125345  0.7935228275412146  0.49471475793790837  1.0000
  C   C126      1.0  0.1444577674531785  0.782959077854634  0.4964561513346066  1.0000
  H   H81       1.0  0.13954075670247454  0.7708564937514893  0.5742531613214144  1.0000
  H   H82       1.0  0.19516664431660752  0.7909582804778246  0.5711898484036343  1.0000
  H   H83       1.0  0.18660335256498356  0.7995952712656759  0.47240394052638734  1.0000
  H   H84       1.0  0.13032375220857648  0.7809382219472364  0.47555695551383187  1.0000
  C   C127      1.0  0.4402428778051699  0.7900358361473632  0.48477047541739227  1.0000
  C   C128      1.0  0.407296322423788  0.7848577274830341  0.48812260768361765  1.0000
  C   C129      1.0  0.39150918943686486  0.7935387323216572  0.5157018161475366  1.0000
  C   C130      1.0  0.40858884337001006  0.8076436054730989  0.5400243384194081  1.0000
  C   C131      1.0  0.4415537609724718  0.812831953151659  0.5366635760135011  1.0000
  C   C132      1.0  0.45739994378554155  0.8039258112468413  0.5091548063344754  1.0000
  H   H85       1.0  0.3939231840288405  0.7740309810416031  0.46935517778127894  1.0000
  H   H86       1.0  0.3661133950268427  0.7895566770186969  0.5180365543587757  1.0000
  H   H87       1.0  0.45483000285410435  0.8239611125083739  0.555341604731692  1.0000
  H   H88       1.0  0.48275095721077943  0.8082214341932156  0.5066969107345417  1.0000
  C   C133      1.0  0.3897821237836704  0.5841030361088074  0.864942648673268  1.0000
  C   C134      1.0  0.401893514513606  0.6117737915083254  0.8502015289981544  1.0000
  C   C135      1.0  0.406282956295697  0.6121224421045524  0.8179067024293454  1.0000
  C   C136      1.0  0.39839141999725386  0.5848113356707332  0.8003282461390536  1.0000
  C   C137      1.0  0.38626631170561904  0.5571843818656287  0.8150518881211339  1.0000
  C   C138      1.0  0.38203746531486077  0.5567829096545912  0.8473028055365363  1.0000
  H   H89       1.0  0.4079085851157555  0.6329689976692787  0.8638029610101617  1.0000
  H   H90       1.0  0.4155123779877507  0.6335956794348819  0.806642036718488  1.0000
  H   H91       1.0  0.3806980391197969  0.5358584868235386  0.8015039532635099  1.0000
  H   H92       1.0  0.3729076570922842  0.5353217113196952  0.8585244738159907  1.0000
  C   C139      1.0  0.2639183236567341  0.44711287270120487  0.8709071722592737  1.0000
  C   C140      1.0  0.24593294889778322  0.45766792588280414  0.8963807110623937  1.0000
  C   C141      1.0  0.21250153395823637  0.4548160265562071  0.8959726783052884  1.0000
  C   C142      1.0  0.19707880462076127  0.44162454405822876  0.8700364149247413  1.0000
  C   C143      1.0  0.2151158397005793  0.43119461362263295  0.8446001117520879  1.0000
  C   C144      1.0  0.2484909194356856  0.4338989013939273  0.8450643024038338  1.0000
  H   H93       1.0  0.25776666939707915  0.46799280853999986  0.9163468305027893  1.0000
  H   H94       1.0  0.19860242090155233  0.46298671300720334  0.915668216738279  1.0000
  H   H95       1.0  0.2033801484774572  0.4206806885115782  0.8246964293067796  1.0000
  H   H96       1.0  0.26236093909729946  0.4257259588661569  0.8253472647038645  1.0000
  C   C145      1.0  0.47937306676860975  0.9655127412398986  0.005085064996924692  1.0000
  C   C146      1.0  0.5076194220083421  0.4654085555438396  0.0047041255146411665  1.0000
  C   C147      1.0  0.4778706461092355  0.4500912758582801  0.002244332090450163  1.0000
  C   C148      1.0  0.45423295238524625  0.4629222633093511  0.9829169742789536  1.0000
  C   C149      1.0  0.4262441111618103  0.9718495664974821  0.9831825030970394  1.0000
  C   C150      1.0  0.4595211624020102  0.9712933088250963  0.9795876643297092  1.0000
  H   H97       1.0  0.5255938220336861  0.45535613588624035  0.019750463773821725  1.0000
  H   H98       1.0  0.4729299417677649  0.4285765146342691  0.015769470052284795  1.0000
  H   H99       1.0  0.41119191372058334  0.9758602760820431  0.9632906918283783  1.0000
  H   H100      1.0  0.4698757796369599  0.9751669268168583  0.9568979077855806  1.0000
  C   C151      1.0  0.2453935036380152  0.5261457857942435  0.008295375158855933  1.0000
  C   C152      1.0  0.22591742410123  0.5332808038013218  0.03382457780197116  1.0000
  C   C153      1.0  0.19262529789151434  0.5337424077354727  0.030757002422747814  1.0000
  C   C154      1.0  0.17855591214630018  0.5270550629977394  0.002145122069296363  1.0000
  C   C155      1.0  0.19801184382341605  0.5203994547699463  0.9763621011684145  1.0000
  C   C156      1.0  0.2314544549439556  0.5197484909017975  0.9794657143457436  1.0000
  H   H101      1.0  0.23661138735671983  0.5383966780687651  0.056108164966026546  1.0000
  H   H102      1.0  0.17789626611065798  0.5397741426198281  0.050488928804249045  1.0000
  H   H103      1.0  0.18724250725953423  0.5152417755857389  0.9541280263976735  1.0000
  H   H104      1.0  0.2463860228431317  0.5140496061270934  0.9596991029758667  1.0000
  C   C157      1.0  0.501519200368336  0.6439831924222066  0.33264797201489676  1.0000
  C   C158      1.0  0.5137312502999632  0.6474733741172869  0.3626654950154161  1.0000
  C   C159      1.0  0.5344376425294222  0.6731823848092191  0.3697380801327738  1.0000
  C   C160      1.0  0.5437672277573488  0.6948723106440717  0.3465398051897315  1.0000
  C   C161      1.0  0.5323326712899191  0.6908051771843456  0.3163057919610719  1.0000
  C   C162      1.0  0.5108752800672458  0.665693542600414  0.30945856110786935  1.0000
  H   H105      1.0  0.506876053514346  0.630470151992483  0.3805735928186992  1.0000
  H   H106      1.0  0.5436017159182692  0.6758620792805756  0.3930073523869401  1.0000
  H   H107      1.0  0.5396736644118231  0.7074237365789083  0.29825946065613024  1.0000
  H   H108      1.0  0.5021525010888712  0.6628189015408744  0.28610332779585707  1.0000
  C   C163      1.0  0.46568371818232907  0.06117738756045066  0.15891951380087302  1.0000
  C   C164      1.0  0.4729346268430687  0.042046564636972095  0.13297167406028518  1.0000
  C   C165      1.0  0.503291450713231  0.027966211585296552  0.12972806791478766  1.0000
  C   C166      1.0  0.5262332368529787  0.03240408613942991  0.15285604866446867  1.0000
  C   C167      1.0  0.5185884872645026  0.05057934303346823  0.17933730116869676  1.0000
  C   C168      1.0  0.48838479293054254  0.06511092377187278  0.1823115883436823  1.0000
  H   H109      1.0  0.45509446783776  0.038088790335174094  0.11541108328516629  1.0000
  H   H110      1.0  0.9878899070350359  0.024270787602193256  0.12399059625365473  1.0000
  H   H111      1.0  0.4659139661519874  0.5195203852208337  0.18340930501816333  1.0000
  H   H112      1.0  0.4306472385950759  0.5661845522467595  0.19502039229980728  1.0000
  C   C169      1.0  0.32861120886692463  0.9752535007320737  0.2948219985896466  1.0000
  C   C170      1.0  0.30000903852986577  0.989011139881079  0.28449548730778845  1.0000
  C   C171      1.0  0.29839268997860885  0.022283027553947843  0.27804329126942695  1.0000
  C   C172      1.0  0.3254762501242797  0.041825284539417584  0.28143683528058816  1.0000
  C   C173      1.0  0.3541221452903705  0.028111553685475688  0.29170610297211985  1.0000
  C   C174      1.0  0.35566174380540827  0.9948600820551263  0.29845323709171856  1.0000
  H   H113      1.0  0.2791692421551997  0.9739882529949325  0.2811452354578209  1.0000
  H   H114      1.0  0.27623163070573803  0.03270622932401568  0.26988288218795936  1.0000
  H   H115      1.0  0.3749736569942491  0.04314853237779248  0.2949265820014815  1.0000
  H   H116      1.0  0.3778117243756644  0.9843084080631526  0.30651024088307444  1.0000
  C   C175      1.0  0.29365045589743055  0.7824042472062216  0.25470163910385873  1.0000
  C   C176      1.0  0.295805922021227  0.7485503711291824  0.25243524400694695  1.0000
  C   C177      1.0  0.32373408503199547  0.7323992597734653  0.26183891499194695  1.0000
  C   C178      1.0  0.3496795438231683  0.75018999115276  0.2730344629437419  1.0000
  C   C179      1.0  0.34754040556996996  0.7839847949858446  0.2751981591319878  1.0000
  C   C180      1.0  0.31957780620531795  0.8000586491255411  0.26610996338699516  1.0000
  H   H117      1.0  0.27567717346252885  0.7348249324922185  0.24380855093894008  1.0000
  H   H118      1.0  0.3250789131902958  0.706255331919656  0.2605415121084501  1.0000
  H   H119      1.0  0.3675777802650405  0.7978706047978724  0.2837698927285991  1.0000
  H   H120      1.0  0.3182672858820203  0.8262071780394321  0.26747925247366267  1.0000
  C   C181      1.0  0.1727745765213893  0.8443214095216879  0.3774664378148056  1.0000
  C   C182      1.0  0.1644156420521373  0.8247244233187111  0.35232704093125483  1.0000
  C   C183      1.0  0.13491847053567016  0.8086447341250771  0.3521902696297062  1.0000
  C   C184      1.0  0.11371334774979219  0.8121106249986263  0.37714621890375877  1.0000
  C   C185      1.0  0.12284080179395215  0.8302881378770177  0.40302897669138865  1.0000
  C   C186      1.0  0.15239560065211466  0.8463358437151628  0.403207125947489  1.0000
  H   H121      1.0  0.1805142879314284  0.8221611663414116  0.3328636108245114  1.0000
  H   H122      1.0  0.12826864165999996  0.7939240560287029  0.33245707451550355  1.0000
  H   H123      1.0  0.10666889077388689  0.8330637439249403  0.42238176474201033  1.0000
  H   H124      1.0  0.15888639792112333  0.8612920495090809  0.4228241322311516  1.0000
  C   C187      1.0  0.13230498358146917  0.9251725636525218  0.1603691728107318  1.0000
  C   C188      1.0  0.15276824728173954  0.9027662701319822  0.17453593497574615  1.0000
  C   C189      1.0  0.16901676476562907  0.9109944074092  0.20183864717253144  1.0000
  C   C190      1.0  0.16473264851522312  0.9416586158801332  0.2150168422284008  1.0000
  C   C191      1.0  0.1442077279831642  0.9640458815873758  0.2008920539336512  1.0000
  C   C192      1.0  0.1280538282686487  0.9558615553541296  0.17351866325078227  1.0000
  H   H125      1.0  0.15607717493344128  0.8789907143899881  0.16437472342317333  1.0000
  H   H126      1.0  0.184820194715554  0.8936187378137679  0.21267519405831892  1.0000
  H   H127      1.0  0.1409100950669596  0.9877960077863401  0.21107895674690824  1.0000
  H   H128      1.0  0.11230443722029113  0.9732399358744409  0.1626286954660512  1.0000
  Fe  Fe65      1.0  0.7279624161475055  0.3785680168154751  0.30846495705079624  1.0000
  S   S129      1.0  0.6991369132240021  0.3427840317522473  0.281383540281174  1.0000
  S   S130      1.0  0.7241379395170694  0.3737999324845655  0.36015523558195156  1.0000
  Fe  Fe66      1.0  0.7565256669522408  0.40926243384566596  0.25114641294650125  1.0000
  S   S131      1.0  0.7300181044189856  0.37595314957891773  0.21934924759202865  1.0000
  S   S132      1.0  0.7894685384863276  0.4432792180653433  0.22565949051242168  1.0000
  Fe  Fe67      1.0  0.6882415090545853  0.3848192747040415  0.25051616704783186  1.0000
  S   S133      1.0  0.6383496677378866  0.39409576766695065  0.2336470575817453  1.0000
  Fe  Fe68      1.0  0.7433533551217772  0.3367812780089837  0.2527514127885597  1.0000
  S   S134      1.0  0.7562334407653943  0.28788781428987464  0.23316924010932397  1.0000
  S   S135      1.0  0.7134111557669947  0.4216683824929158  0.27990651243235976  1.0000
  S   S136      1.0  0.7735756074526361  0.36917742229364525  0.28227554030541663  1.0000
  Fe  Fe69      1.0  0.8877981189173348  0.16849358535272188  0.26173217047240144  1.0000
  S   S137      1.0  0.8830910755782201  0.14109855407813024  0.30619543023085943  1.0000
  S   S138      1.0  0.887109085050053  0.22250418724395632  0.2695321523759371  1.0000
  Fe  Fe70      1.0  0.907957733891716  0.6000787121944279  0.21465758633945903  1.0000
  S   S139      1.0  0.9128268489167853  0.5805824407969468  0.26287138986876024  1.0000
  S   S140      1.0  0.9211737056402152  0.5671690782900775  0.17486919561165934  1.0000
  Fe  Fe71      1.0  0.8641966148104253  0.6021834293314151  0.2700706207747306  1.0000
  S   S141      1.0  0.8263916720748878  0.5734767335513112  0.29493938048840346  1.0000
  Fe  Fe72      1.0  0.9248940855097602  0.11270303063264996  0.28846762949767174  1.0000
  S   S142      1.0  0.965898627899098  0.10269216688302668  0.3207183900903942  1.0000
  S   S143      1.0  0.8578779550787222  0.618569751261643  0.22086203772241517  1.0000
  S   S144      1.0  0.9315941795050114  0.14200552150819953  0.24530351520335586  1.0000
  Fe  Fe73      1.0  0.8098014377892484  0.9982255770217628  0.9626259765431036  1.0000
  S   S145      1.0  0.833963294153169  0.9502022670874254  0.9559711942101389  1.0000
  S   S146      1.0  0.7936836946384248  0.009238025059325045  0.011293854326503405  1.0000
  Fe  Fe74      1.0  0.8155217558095782  0.015944179169309285  0.8947162996362961  1.0000
  S   S147      1.0  0.8402148361846676  0.9695467227453357  0.8826351580145277  1.0000
  S   S148      1.0  0.8047994478204441  0.047160987119632014  0.8536104750111406  1.0000
  Fe  Fe75      1.0  0.8035951543372497  0.9465296665263713  0.9134538241466613  1.0000
  S   S149      1.0  0.7788385806161483  0.9010941185856363  0.8979062668972921  1.0000
  Fe  Fe76      1.0  0.8681901994744669  0.9780288981817028  0.9259527320307672  1.0000
  S   S150      1.0  0.9219119356669999  0.9752503938840879  0.9251970583515069  1.0000
  S   S151      1.0  0.7766350934995723  0.9923766551609821  0.922240822173344  1.0000
  S   S152      1.0  0.8464188278928226  0.02660561878391437  0.9359247777641564  1.0000
  Fe  Fe77      1.0  0.6107780599508655  0.4701821358209998  0.0837291219792375  1.0000
  S   S153      1.0  0.6109420793817455  0.5083269739999516  0.1205499835013189  1.0000
  S   S154      1.0  0.6379675865028226  0.4240581912357341  0.09027807481381367  1.0000
  Fe  Fe78      1.0  0.5714653504782277  0.5107995678025882  0.03965907923950689  1.0000
  S   S155      1.0  0.5683614043665572  0.5528628946421673  0.07271459949727661  1.0000
  S   S156      1.0  0.008675951341453159  0.44685053892205434  0.04814782078405504  1.0000
  Fe  Fe79      1.0  0.6204213682029143  0.5423906700216505  0.08129346101612821  1.0000
  S   S157      1.0  0.6591924466819996  0.5793142811005371  0.08802967451026357  1.0000
  Fe  Fe80      1.0  0.5592003106426423  0.514674237904872  0.10869736686727029  1.0000
  S   S158      1.0  0.5212962412265605  0.5128539926070551  0.14580951209255272  1.0000
  S   S159      1.0  0.6241992551633424  0.50370808187257  0.045180704849836696  1.0000
  S   S160      1.0  0.558295066053529  0.47327876554116594  0.0749093938457387  1.0000
  Fe  Fe81      1.0  0.5609901154786503  0.3264298963512345  0.40845309036861815  1.0000
  S   S161      1.0  0.5949355656643279  0.2845240247686462  0.40763689941982584  1.0000
  S   S162      1.0  0.5772652096082903  0.3758415826310401  0.39335362731655443  1.0000
  Fe  Fe82      1.0  0.0043222532316746776  0.2725499002901923  0.44336234397392255  1.0000
  S   S163      1.0  0.031461296259549965  0.22598970669049662  0.4368732351856725  1.0000
  S   S164      1.0  0.9509576598566819  0.2677283946142337  0.4505029670537415  1.0000
  Fe  Fe83      1.0  0.5693288018471278  0.26941264553761385  0.4511023789211951  1.0000
  S   S165      1.0  0.5911256106666325  0.2549752287571349  0.49689882371175603  1.0000
  Fe  Fe84      1.0  0.04886667574679637  0.24831355290771087  0.3925690523005898  1.0000
  S   S166      1.0  0.049778787884320996  0.22800350680521592  0.34404418683069066  1.0000
  S   S167      1.0  0.5376733975119681  0.313397728704649  0.45367404252813537  1.0000
  S   S168      1.0  0.019567464176231564  0.2933177719879111  0.39759665126800225  1.0000
  Fe  Fe85      1.0  0.8259168987268717  0.31281873288669293  0.5739049526282679  1.0000
  S   S169      1.0  0.8082797577048226  0.2615452833339067  0.5726386514750978  1.0000
  S   S170      1.0  0.8783727650455144  0.3242519281526062  0.5679087324890961  1.0000
  Fe  Fe86      1.0  0.7604707362204631  0.3396207631483796  0.5926284245570677  1.0000
  S   S171      1.0  0.7381223899504076  0.2903526288105893  0.5938595678544853  1.0000
  S   S172      1.0  0.7266722483386935  0.3811238128437169  0.6012305206710126  1.0000
  Fe  Fe87      1.0  0.7834941177167108  0.27473248663149374  0.6171130830915996  1.0000
  S   S173      1.0  0.7846315552223971  0.24168659108452115  0.6586742772993845  1.0000
  Fe  Fe88      1.0  0.7646848237052187  0.2822689269978455  0.5493992554338822  1.0000
  S   S174      1.0  0.7422816974273135  0.2636208742547042  0.5052931056510667  1.0000
  S   S175      1.0  0.8034692778320461  0.3249765912503096  0.6199553248255102  1.0000
  S   S176      1.0  0.784716381612898  0.3326460893712083  0.5466786682761351  1.0000
  Fe  Fe89      1.0  0.622188057640365  0.9095346367216204  0.8177899546532333  1.0000
  S   S177      1.0  0.6243653707228706  0.9518261720391413  0.7854555271006539  1.0000
  S   S178      1.0  0.6327499426008978  0.921376333585293  0.8677477527796251  1.0000
  Fe  Fe90      1.0  0.6049084251327821  0.8624111570707989  0.7660444078034729  1.0000
  S   S179      1.0  0.6054468459301555  0.9010896645697649  0.7294996377133941  1.0000
  S   S180      1.0  0.6284441139988629  0.31179146447737194  0.7749741155034988  1.0000
  Fe  Fe91      1.0  0.6499379493170384  0.9181959039285328  0.7531024202189972  1.0000
  S   S181      1.0  0.725509669032903  0.4262730758708502  0.7414823582794422  1.0000
  Fe  Fe92      1.0  0.5795498253615204  0.9312636198379185  0.7651519800836909  1.0000
  S   S182      1.0  0.5363086572452543  0.9612342190483207  0.7524985578983727  1.0000
  S   S183      1.0  0.6761122777586034  0.38614092062080035  0.8052381459188038  1.0000
  S   S184      1.0  0.5752319009491325  0.89096179302138  0.7999930159269165  1.0000
  Fe  Fe93      1.0  0.9280073718035743  0.16708859388841377  0.8061877601431473  1.0000
  S   S185      1.0  0.9180732762538723  0.1459715085444225  0.7591577331739  1.0000
  S   S186      1.0  0.8992223760446464  0.16592786528488992  0.8501651062771307  1.0000
  Fe  Fe94      1.0  0.9940925435019029  0.19047911540971105  0.7881990597418316  1.0000
  S   S187      1.0  0.9908077242749691  0.1704996597596807  0.7400077503721211  1.0000
  S   S188      1.0  0.037033643861400733  0.21633976851742617  0.8075483980278938  1.0000
  Fe  Fe95      1.0  0.941135251841245  0.19122705510015614  0.7407364412452309  1.0000
  S   S189      1.0  0.9278920132913666  0.22327689814249269  0.7005656232893874  1.0000
  Fe  Fe96      1.0  0.9683454559618955  0.12700857914367591  0.7624080340341511  1.0000
  S   S190      1.0  0.9764492925738975  0.07487515018186575  0.7489539702419951  1.0000
  S   S191      1.0  0.9460321174328747  0.21421097993588825  0.7875654170249273  1.0000
  S   S192      1.0  0.9764884524661447  0.14488766711918522  0.8107165925333069  1.0000
  C   C193      1.0  0.5956339626276559  0.2923950410552599  0.7924205366348616  1.0000
  C   C194      1.0  0.5893242886679733  0.25997249067972766  0.785030499317631  1.0000
  C   C195      1.0  0.010725213909013043  0.2737767816013246  0.7881736138707685  1.0000
  C   C196      1.0  0.03533339801562119  0.2587204433861599  0.8045855163226994  1.0000
  C   C197      1.0  0.5466088154662009  0.29427719486503745  0.8226425832288699  1.0000
  C   C198      1.0  0.5746282411231948  0.30928819535247404  0.8118804555270981  1.0000
  H   H129      1.0  0.6057482891301493  0.24657152790396158  0.7704255682567436  1.0000
  H   H130      1.0  0.9934755091429239  0.259420240583883  0.7757443142829193  1.0000
  H   H131      1.0  0.5299842336686674  0.3077409457410666  0.836962670515993  1.0000
  H   H132      1.0  0.5796221941989627  0.3340635528147439  0.8182199911152308  1.0000
  C   C199      1.0  0.5391543293394514  0.0038120060494632856  0.7544528382624419  1.0000
  C   C200      1.0  0.5679911401244819  0.01890632126001959  0.761940554304791  1.0000
  C   C201      1.0  0.570675955313256  0.05273995729209089  0.7605796565916978  1.0000
  C   C202      1.0  0.544397936912586  0.07178531453404534  0.7522108796899353  1.0000
  C   C203      1.0  0.030028385652792755  0.07187243557261694  0.7857033158090991  1.0000
  C   C204      1.0  0.5126242871689661  0.02291040302658722  0.7466538230047517  1.0000
  H   H133      1.0  0.588455094801781  0.004630854820718043  0.7681764480634449  1.0000
  H   H134      1.0  0.5932534602802161  0.06425605644022857  0.76579022352517  1.0000
  H   H135      1.0  0.0265316622067453  0.09742637409162883  0.7901081822656253  1.0000
  H   H136      1.0  0.4902454175142383  0.011389755286069291  0.7407340894138872  1.0000
  C   C205      1.0  0.8237590638024288  0.2377698362983376  0.6730527954624395  1.0000
  C   C206      1.0  0.8317731336862141  0.21230319523326582  0.693126472948141  1.0000
  C   C207      1.0  0.8635805552770351  0.20817220737816425  0.7029628608987137  1.0000
  C   C208      1.0  0.8871996682882309  0.22982110626877492  0.6930078545025778  1.0000
  C   C209      1.0  0.8787852926646732  0.2560216154545597  0.6741950948171863  1.0000
  C   C210      1.0  0.8473505359878015  0.25970005818770775  0.6638820831499445  1.0000
  H   H137      1.0  0.8136099973374387  0.19524684122966504  0.7003421124315956  1.0000
  H   H138      1.0  0.8699315461762642  0.18781721513216357  0.717476162432654  1.0000
  H   H139      1.0  0.8967524096669438  0.2733526038268601  0.6671860086128254  1.0000
  H   H140      1.0  0.8415990887468447  0.2794278246959532  0.6485931268425462  1.0000
  C   C211      1.0  0.7269184887674476  0.395043979113684  0.639782295168584  1.0000
  C   C212      1.0  0.7544430705948291  0.39249369651279165  0.6579250787070521  1.0000
  C   C213      1.0  0.7540716853359699  0.4029205699867115  0.6889198246370373  1.0000
  C   C214      1.0  0.7260109520908284  0.4154111714472308  0.7020582249658294  1.0000
  C   C215      1.0  0.698566705303264  0.4183570841782286  0.683844280511656  1.0000
  C   C216      1.0  0.6991288003251935  0.4084904854852342  0.6526586706010297  1.0000
  H   H141      1.0  0.7761867159934208  0.382928454203339  0.6479470050102237  1.0000
  H   H142      1.0  0.6568148722709674  0.9055521837242209  0.683450215370356  1.0000
  H   H143      1.0  0.6770174421326488  0.4286585677384298  0.6936049349305629  1.0000
  H   H144      1.0  0.6778781987679067  0.4108771084024616  0.6386183092276634  1.0000
  C   C217      1.0  0.6331732065654467  0.25700814545999356  0.4990651231528503  1.0000
  C   C218      1.0  0.648070627723667  0.2575942909178409  0.5281520655554359  1.0000
  C   C219      1.0  0.6815391615117281  0.25942721811921604  0.5303920368328517  1.0000
  C   C220      1.0  0.7003237862981875  0.2602757096160325  0.5035254771278721  1.0000
  C   C221      1.0  0.6854289791848805  0.2591018347005108  0.4744741207772698  1.0000
  C   C222      1.0  0.6519787612698  0.25780256728031964  0.4722343492182652  1.0000
  H   H145      1.0  0.6337168628692406  0.25666486028541696  0.5490141188832083  1.0000
  H   H146      1.0  0.6927538985566458  0.25968560918482986  0.5528803432700029  1.0000
  H   H147      1.0  0.6998083202357743  0.259363148735719  0.45359216934786406  1.0000
  H   H148      1.0  0.6408553839133895  0.2566375743219465  0.44972764288948464  1.0000
  C   C223      1.0  0.9312801164395809  0.28435883963097003  0.48300757475455813  1.0000
  C   C224      1.0  0.8980123037653012  0.28087286105950554  0.48551674078558127  1.0000
  C   C225      1.0  0.8814613477624255  0.2935015969177917  0.5112204669684316  1.0000
  C   C226      1.0  0.8981591464288248  0.30962408692319654  0.5346294410065502  1.0000
  C   C227      1.0  0.9314265887173695  0.3131381372050302  0.532137983362878  1.0000
  C   C228      1.0  0.9479937005066471  0.3005034366682664  0.506400769286063  1.0000
  H   H149      1.0  0.8849491411108944  0.2684178293737686  0.467484128753271  1.0000
  H   H150      1.0  0.8558137882701121  0.2907122204931064  0.512951630427856  1.0000
  H   H151      1.0  0.9444196714927953  0.32566510418660877  0.5501786201996548  1.0000
  H   H152      1.0  0.9736191997334823  0.3033313038595812  0.5046150883494667  1.0000
  C   C229      1.0  0.828494708569532  0.08211180179832234  0.8528709066207508  1.0000
  C   C230      1.0  0.8390114579305465  0.09637048030955525  0.8804391283090623  1.0000
  C   C231      1.0  0.8598951083153628  0.12293458619013282  0.8794464208194275  1.0000
  C   C232      1.0  0.8707272821738412  0.13483833811640364  0.850912114301524  1.0000
  C   C233      1.0  0.8596307630537618  0.12101120848970771  0.8233785926412988  1.0000
  C   C234      1.0  0.838203875234995  0.09492888944118871  0.8243567608120604  1.0000
  H   H153      1.0  0.8309595426314348  0.08705119793561379  0.9025105304183061  1.0000
  H   H154      1.0  0.8681824947926198  0.13379238664506796  0.9007997728520073  1.0000
  H   H155      1.0  0.8672605309856759  0.13059625476559708  0.8013095849611425  1.0000
  H   H156      1.0  0.8297883782348654  0.08421238680952253  0.8029832571843749  1.0000
  C   C235      1.0  0.7377236652637585  0.9054504845707111  0.8913062072575523  1.0000
  C   C236      1.0  0.7199239770169896  0.9291447246866935  0.9068613734237931  1.0000
  C   C237      1.0  0.6874043615370867  0.9332968098948123  0.9002277857351201  1.0000
  C   C238      1.0  0.6726598710386958  0.91393742603701  0.8777699640243942  1.0000
  C   C239      1.0  0.6902283707503757  0.8896246883246048  0.8628722787386416  1.0000
  C   C240      1.0  0.722681968544136  0.8852979993817035  0.8697203780445759  1.0000
  H   H157      1.0  0.7310351101854762  0.9439630599598997  0.9243291496005769  1.0000
  H   H158      1.0  0.6738744944054704  0.9518768372986489  0.912135288912974  1.0000
  H   H159      1.0  0.6787164483577137  0.8737568698143022  0.8464714964502441  1.0000
  H   H160      1.0  0.7362232842451508  0.8665102003430342  0.8580650519141833  1.0000
  C   C241      1.0  0.9840806166716438  0.4684278432368567  0.02248217959051162  1.0000
  C   C242      1.0  0.9784140940456834  0.9699197454341185  0.0009086190999512134  1.0000
  C   C243      1.0  0.9666841939430226  0.9772328978871128  0.9712844289707341  1.0000
  C   C244      1.0  0.9367880886065753  0.9656111938127901  0.9619978331779406  1.0000
  C   C245      1.0  0.9319990073709886  0.47613892127819885  0.9985474192964736  1.0000
  C   C246      1.0  0.9524932312264632  0.4582881761070232  0.017821149060418692  1.0000
  H   H161      1.0  0.0013925235399787628  0.9791340129940453  0.008076310574447687  1.0000
  H   H162      1.0  0.9805446108858028  0.992422240364892  0.9558834815131132  1.0000
  H   H163      1.0  0.9076534068965051  0.46824680637555083  0.9951666916076998  1.0000
  H   H164      1.0  0.9437392784210803  0.43685329717557475  0.02951521168909216  1.0000
  C   C247      1.0  0.7529931802101647  0.019786290151884926  0.012227756185259748  1.0000
  C   C248      1.0  0.7347913308763514  0.014053256379816607  0.03898081376551924  1.0000
  C   C249      1.0  0.7017455980570199  0.020181862196726574  0.03900402648739645  1.0000
  C   C250      1.0  0.686998291402523  0.0324641687846954  0.0124150464024683  1.0000
  C   C251      1.0  0.7054211044565895  0.039153372296890414  0.9860783244368566  1.0000
  C   C252      1.0  0.7383001223824432  0.03268737004998385  0.985936500970628  1.0000
  H   H165      1.0  0.7460956299846324  0.00438375366474878  0.05951329069304194  1.0000
  H   H166      1.0  0.687725721237725  0.015577684198145984  0.05961085046944244  1.0000
  H   H167      1.0  0.6942160669133589  0.04921345176422773  0.9656591753438609  1.0000
  H   H168      1.0  0.752353672159076  0.038356643756394276  0.9656386279132004  1.0000
  C   C253      1.0  0.9895349183864001  0.13728005904812446  0.3272452816867404  1.0000
  C   C254      1.0  0.0011377880498177895  0.14391619585110094  0.3570182420564261  1.0000
  C   C255      1.0  0.019570443908835333  0.1718103324613069  0.36249651800073335  1.0000
  C   C256      1.0  0.027268433219096222  0.1925916569380043  0.33799532144314615  1.0000
  C   C257      1.0  0.01656100553052453  0.18533582084689298  0.30804396800180006  1.0000
  C   C258      1.0  0.9974029005093374  0.15800127988084575  0.3027499797565213  1.0000
  H   H169      1.0  0.9954748916047916  0.12773746729184007  0.375986286868571  1.0000
  H   H170      1.0  0.028202814512230168  0.17691836046307638  0.3855839618376015  1.0000
  H   H171      1.0  0.02260273233296828  0.20122652480751474  0.2889743762961798  1.0000
  H   H172      1.0  0.9892011422850675  0.15275788265718662  0.2795974447119851  1.0000
  C   C259      1.0  0.9618160164520472  0.56678346182093  0.16490371686642305  1.0000
  C   C260      1.0  0.9749617631168476  0.5388091051911321  0.15161386091982876  1.0000
  C   C261      1.0  0.007180809404201183  0.538111083528776  0.14264910935487743  1.0000
  C   C262      1.0  0.026500246272499695  0.5652867218825813  0.14737517758417762  1.0000
  C   C263      1.0  0.013297629484336326  0.5933644016724762  0.16053024888810155  1.0000
  C   C264      1.0  0.9809566825514958  0.5941608472175756  0.1691916930442533  1.0000
  H   H173      1.0  0.9603229569697247  0.5174375597393852  0.14870008023644615  1.0000
  H   H174      1.0  0.5211741241767176  0.5787731111458408  0.12146745065202183  1.0000
  H   H175      1.0  0.01075974946478886  0.11676634311079147  0.16395292106881876  1.0000
  H   H176      1.0  0.954658205073251  0.1227161135922576  0.18194087528757957  1.0000
  C   C265      1.0  0.799603484653235  0.4792191916069282  0.24534354110700948  1.0000
  C   C266      1.0  0.7862835703381417  0.48663091308043593  0.27426102938785973  1.0000
  C   C267      1.0  0.794535594241477  0.515662615195286  0.2893450809866162  1.0000
  C   C268      1.0  0.8162810731096605  0.5372386444729667  0.2756970846825137  1.0000
  C   C269      1.0  0.8296936676620101  0.5296744600113271  0.24682161290902585  1.0000
  C   C270      1.0  0.8212598269266977  0.5007997824262118  0.23163205065512626  1.0000
  H   H177      1.0  0.7696342770650506  0.4700969016284376  0.28507256026451355  1.0000
  H   H178      1.0  0.7841675405992881  0.5213889375619992  0.31169803289424736  1.0000
  H   H179      1.0  0.8465430643605182  0.5461195029681768  0.23616015105444077  1.0000
  H   H180      1.0  0.8316754838229871  0.49522422351524575  0.20928180025165719  1.0000
  C   C271      1.0  0.7930316004942946  0.2706640689586426  0.2432155456939025  1.0000
  C   C272      1.0  0.8025376075838501  0.24188265024625305  0.2286499571136801  1.0000
  C   C273      1.0  0.8314152446570103  0.2269649613607298  0.23669883990260657  1.0000
  C   C274      1.0  0.8510263604633576  0.24096699727103896  0.259148896729131  1.0000
  C   C275      1.0  0.8417095155960567  0.26994007840612455  0.2735829366811623  1.0000
  C   C276      1.0  0.8125377261371387  0.2846182647893669  0.2658496472569027  1.0000
  H   H181      1.0  0.787532998893808  0.23111404985398656  0.2110230656093978  1.0000
  H   H182      1.0  0.8387639999086188  0.20496059703196862  0.2250733122672193  1.0000
  H   H183      1.0  0.8567766888036497  0.2807145209030725  0.29113382897608997  1.0000
  H   H184      1.0  0.8049772166941247  0.30639208332860846  0.27768883775270314  1.0000
  C   C277      1.0  0.6838598700073547  0.37619724786494496  0.37116108185341085  1.0000
  C   C278      1.0  0.6632070105332999  0.39766368684510367  0.3561205675443027  1.0000
  C   C279      1.0  0.6308087198434862  0.39884984337037604  0.3644236496464363  1.0000
  C   C280      1.0  0.618677036776229  0.37754785144609754  0.3867599293397663  1.0000
  C   C281      1.0  0.6394623887581997  0.35652251345999825  0.40221970531053136  1.0000
  C   C282      1.0  0.672081227102423  0.35604379973922246  0.3946297091762904  1.0000
  H   H185      1.0  0.6722905230993081  0.41362751563589484  0.33830299154829974  1.0000
  H   H186      1.0  0.614998836496091  0.41568806910346934  0.3528830925456395  1.0000
  H   H187      1.0  0.6304420768888073  0.3407181117251805  0.4201162583629351  1.0000
  H   H188      1.0  0.687989178864069  0.3393476382227772  0.4062207415678137  1.0000
  C   C283      1.0  0.6360960917932831  0.4131427864874769  0.1295374107669354  1.0000
  C   C284      1.0  0.613307322358293  0.4272917624683618  0.14911777541605198  1.0000
  C   C285      1.0  0.6135168778375488  0.4205705887318201  0.18097240271363513  1.0000
  C   C286      1.0  0.6366493021323057  0.3998514506908841  0.1933766299294953  1.0000
  C   C287      1.0  0.6586825765370532  0.38474974301049353  0.1736200526203011  1.0000
  C   C288      1.0  0.6583692312050117  0.39133383641976094  0.14171199659851813  1.0000
  H   H189      1.0  0.59532198830382  0.4432871724397133  0.13974493409523547  1.0000
  H   H190      1.0  0.5961008429634637  0.4319363877624172  0.19605828010347082  1.0000
  H   H191      1.0  0.6755892791448203  0.36753779862510083  0.18278012951281597  1.0000
  H   H192      1.0  0.675607565477071  0.3798171794166698  0.12654037497103313  1.0000
  Fe  Fe97      1.0  0.6947809657649723  0.8910459170015422  0.2835741177266768  1.0000
  S   S193      1.0  0.7073076042874918  0.8596140034944012  0.24295816018966576  1.0000
  S   S194      1.0  0.6423990722441905  0.8926363777348069  0.29519777598069186  1.0000
  Fe  Fe98      1.0  0.7638406727693069  0.9107670321386274  0.29445399931049976  1.0000
  S   S195      1.0  0.7821699797559667  0.8797562676241307  0.25554202382553903  1.0000
  S   S196      1.0  0.8014007954164324  0.9389122139663433  0.3202803663023429  1.0000
  Fe  Fe99      1.0  0.7404148219720652  0.8999150326785521  0.22939970015676797  1.0000
  S   S197      1.0  0.7473013516715447  0.9251458126066253  0.18373501777297455  1.0000
  Fe  Fe100     1.0  0.7475626452758564  0.8423196455435924  0.2730098422650784  1.0000
  S   S198      1.0  0.753076420300693  0.7888721694657721  0.28248898670764616  1.0000
  S   S199      1.0  0.7240360956320218  0.9332011708006782  0.2672371235530457  1.0000
  S   S200      1.0  0.7330117377582817  0.8714959687922454  0.3145980504935515  1.0000
  Fe  Fe101     1.0  0.8808324777860324  0.6647119175610663  0.23727595726952144  1.0000
  S   S201      1.0  0.8827609329293206  0.6502215316316144  0.28734628484926433  1.0000
  S   S202      1.0  0.8709045200915777  0.7159043516032919  0.22185905449055496  1.0000
  Fe  Fe102     1.0  0.8972691453564058  0.10655422424705208  0.22387141866371305  1.0000
  S   S203      1.0  0.8943013416242236  0.07472346711345534  0.2658830761356192  1.0000
  S   S204      1.0  0.9007989726523714  0.07894388773267025  0.17881174379766615  1.0000
  Fe  Fe103     1.0  0.8530102780955274  0.10644087317141371  0.27918048277392593  1.0000
  S   S205      1.0  0.8043325347004432  0.08948821035480403  0.293989032907106  1.0000
  Fe  Fe104     1.0  0.9309798984256791  0.6300493694022345  0.2753683633767891  1.0000
  S   S206      1.0  0.9772778961824202  0.6415836823594031  0.2995564468272163  1.0000
  S   S207      1.0  0.8539084037006082  0.13617979146086245  0.2358112266048586  1.0000
  S   S208      1.0  0.9304339658323448  0.6476288213012726  0.22631433453398445  1.0000
  Fe  Fe105     1.0  0.8098196433912448  0.5274486396989063  0.0072571179149265586  1.0000
  S   S209      1.0  0.8382894995803105  0.4842493040224864  0.9918096966434783  1.0000
  S   S210      1.0  0.8012890679025708  0.5384379853039077  0.05761172729329877  1.0000
  Fe  Fe106     1.0  0.8049178688876605  0.5549019115733264  0.9421551305964337  1.0000
  S   S211      1.0  0.8335455065796045  0.5146359225342839  0.9213008478304683  1.0000
  S   S212      1.0  0.7839405555852366  0.5924564610247268  0.9106977490127062  1.0000
  Fe  Fe107     1.0  0.8036390125022181  0.48279967834417437  0.951883909624062  1.0000
  S   S213      1.0  0.7838169778794978  0.4366790017959776  0.9315294206193744  1.0000
  Fe  Fe108     1.0  0.8652540370432337  0.5201058065948647  0.9628492073054372  1.0000
  S   S214      1.0  0.9184656314333972  0.5270161349543554  0.9593849156340836  1.0000
  S   S215      1.0  0.7727528628759511  0.5229984215760852  0.9702073933682612  1.0000
  S   S216      1.0  0.8391363375377154  0.5636143986402741  0.9809157909819983  1.0000
  Fe  Fe109     1.0  0.6122688720450689  0.9418599534177651  0.07318799679315287  1.0000
  S   S217      1.0  0.6278254161081055  0.9901544344781056  0.09119694025575768  1.0000
  S   S218      1.0  0.6402712785689261  0.8968228701201122  0.08445398329183028  1.0000
  Fe  Fe110     1.0  0.5549320407382444  0.9706537821762266  0.038936309691398656  1.0000
  S   S219      1.0  0.5657164024177537  0.021059336992582223  0.05529119466843179  1.0000
  S   S220      1.0  0.9728332065791173  0.9439237451907817  0.05931683436296812  1.0000
  Fe  Fe111     1.0  0.6165093819116306  0.008555522492079248  0.04370718656971781  1.0000
  S   S221      1.0  0.6455986706244304  0.039128833704240806  0.01118993864297277  1.0000
  Fe  Fe112     1.0  0.5756751252833753  0.9971934006931636  0.10114126473382334  1.0000
  S   S222      1.0  0.564457355192807  0.015270906417249375  0.14912495041098223  1.0000
  S   S223      1.0  0.6052935897014543  0.9595155816257919  0.024791170919179664  1.0000
  S   S224      1.0  0.5604649954755646  0.9474853549709039  0.08584987673994697  1.0000
  Fe  Fe113     1.0  0.5775265820900969  0.810237805837912  0.43698852343245775  1.0000
  S   S225      1.0  0.6037277661426204  0.7632793018126649  0.4324794067141828  1.0000
  S   S226      1.0  0.6104617754509144  0.8531537857390032  0.4337587409885106  1.0000
  Fe  Fe114     1.0  0.0022408179065007694  0.8045122336726361  0.46868379820153955  1.0000
  S   S227      1.0  0.007588421235448006  0.7577582077480696  0.49403498104667265  1.0000
  S   S228      1.0  0.9658385472781286  0.8410349913119178  0.4850117609077906  1.0000
  Fe  Fe115     1.0  0.5738452376204906  0.74745470710279  0.47286875428203645  1.0000
  S   S229      1.0  0.5928175452241027  0.7239279612327291  0.5162149033575826  1.0000
  Fe  Fe116     1.0  0.0067385063285771984  0.7346617405562209  0.4469742390288895  1.0000
  S   S230      1.0  0.9712786336758843  0.6947685815087733  0.43724542440744213  1.0000
  S   S231      1.0  0.5503291158765277  0.7957916229211418  0.4798384799952354  1.0000
  S   S232      1.0  0.9978299297730887  0.7811751678478167  0.4219717954255663  1.0000
  Fe  Fe117     1.0  0.8245829215920792  0.7931725660833739  0.5931210057880363  1.0000
  S   S233      1.0  0.8004735290521297  0.7447427569964828  0.5958082545181287  1.0000
  S   S234      1.0  0.878491003368412  0.789180738559352  0.594185155290827  1.0000
  Fe  Fe118     1.0  0.7613593910223464  0.8295224224957353  0.6006362359474242  1.0000
  S   S235      1.0  0.7328594400950081  0.783981424891476  0.6051750642987883  1.0000
  S   S236      1.0  0.7303435057340126  0.8740193275011172  0.6003648606610386  1.0000
  Fe  Fe119     1.0  0.7729629681694477  0.7667049908604278  0.6351754523987797  1.0000
  S   S237      1.0  0.7660431446292209  0.7442315474013236  0.6821593197536417  1.0000
  Fe  Fe120     1.0  0.7627801530019946  0.7665775811898652  0.5654194000257247  1.0000
  S   S238      1.0  0.742732805036616  0.7431954047903633  0.5224535066316459  1.0000
  S   S239      1.0  0.7989705094740699  0.8140708788276592  0.6345070250317749  1.0000
  S   S240      1.0  0.7893552692165179  0.8133193136946952  0.5588204706955678  1.0000
  Fe  Fe121     1.0  0.6429601239368311  0.4230987975309257  0.8258423317218011  1.0000
  S   S241      1.0  0.6483331169669603  0.45826380879052536  0.7865187836820428  1.0000
  S   S242      1.0  0.6450273094132629  0.4430842119889212  0.8744630863515598  1.0000
  Fe  Fe122     1.0  0.6322012963887033  0.36559296859560964  0.7830217415080503  1.0000
  S   S243      1.0  0.635938836870704  0.3958641619053632  0.7401492714148837  1.0000
  S   S244      1.0  0.601922914852062  0.8097761450971765  0.7522131290781477  1.0000
  Fe  Fe123     1.0  0.6774770970628493  0.41906672845741183  0.7639626276945084  1.0000
  S   S245      1.0  0.6967096515599667  0.9330215267369855  0.7317611124918841  1.0000
  Fe  Fe124     1.0  0.6061875494546876  0.4322128873686309  0.7661758159907058  1.0000
  S   S246      1.0  0.5621824018703903  0.45440756196538395  0.7448047445822668  1.0000
  S   S247      1.0  0.6516269229447551  0.8775045331499965  0.7870306301500917  1.0000
  S   S248      1.0  0.5985728812602372  0.3997293481005257  0.8072194616476888  1.0000
  Fe  Fe125     1.0  0.9134598508870911  0.6747909423402273  0.8168444453552097  1.0000
  S   S249      1.0  0.9042593687225724  0.6273645431609502  0.7933794228644446  1.0000
  S   S250      1.0  0.8926415242094925  0.6866686814981225  0.8636674975031509  1.0000
  Fe  Fe126     1.0  0.9621639127227105  0.6955334006001487  0.7688692350860235  1.0000
  S   S251      1.0  0.9579941984645594  0.6489381662640293  0.7422590806392289  1.0000
  S   S252      1.0  0.9930340941192684  0.7337555993551361  0.7467961601128742  1.0000
  Fe  Fe127     1.0  0.9055190554364323  0.6556186058270982  0.7493851155622944  1.0000
  S   S253      1.0  0.8760176903782493  0.6429097603315168  0.7078722899669392  1.0000
  Fe  Fe128     1.0  0.9574705552734707  0.6244711378576244  0.7885105327248745  1.0000
  S   S254      1.0  0.9741126632792895  0.5746361551683489  0.8024908687497078  1.0000
  S   S255      1.0  0.9094109987362637  0.7039676656668485  0.7730164490756598  1.0000
  S   S256      1.0  0.9669221564787286  0.6703882501670121  0.8148483116210646  1.0000
  C   C289      1.0  0.5645239554639728  0.7906607487398439  0.755528625298109  1.0000
  C   C290      1.0  0.5626206332564105  0.757091514783014  0.7508865304164474  1.0000
  C   C291      1.0  0.9920018745004803  0.769593368270628  0.8008046563083175  1.0000
  C   C292      1.0  0.004724118804385613  0.7660493032724675  0.7709648718466009  1.0000
  C   C293      1.0  0.5072331253623908  0.7921857897115206  0.7645382481486617  1.0000
  C   C294      1.0  0.5367927240080695  0.8082289541321214  0.7624179166078972  1.0000
  H   H193      1.0  0.5841066878567257  0.7434088712130414  0.7461388729007169  1.0000
  H   H194      1.0  0.9748634184686681  0.7521813155754348  0.8094632725575575  1.0000
  H   H195      1.0  0.48584407785553246  0.8058193990812806  0.7699519760574561  1.0000
  H   H196      1.0  0.53809031914576  0.8341340078023775  0.7660787093918222  1.0000
  C   C295      1.0  0.5615892758928878  0.4967195914081481  0.7395888943483642  1.0000
  C   C296      1.0  0.588260340759051  0.5158824238281413  0.7462469073157031  1.0000
  C   C297      1.0  0.5866857935056573  0.5497185082817155  0.7427888484758368  1.0000
  C   C298      1.0  0.5583525104376496  0.5645654099403846  0.7329478668848345  1.0000
  C   C299      1.0  0.028214215686034105  0.5723475743398067  0.7655425956024114  1.0000
  C   C300      1.0  0.5334835755698947  0.5115530851526624  0.7291657527969722  1.0000
  H   H197      1.0  0.6101338647855791  0.5046872169895802  0.7539243355726096  1.0000
  H   H198      1.0  0.6073632215458336  0.5643970870557732  0.7481128366196688  1.0000
  H   H199      1.0  0.024498021727539676  0.5978327698711104  0.7608500950120396  1.0000
  H   H200      1.0  0.5128800196421539  0.49682222407253673  0.7236595818857811  1.0000
  C   C301      1.0  0.7956045194644263  0.7150992054259299  0.6897279265779992  1.0000
  C   C302      1.0  0.8081926225007444  0.7120547987717095  0.7196531151824753  1.0000
  C   C303      1.0  0.8329502066807672  0.6898756825633721  0.7254581670921231  1.0000
  C   C304      1.0  0.8445502783488632  0.6701813447288285  0.7014931245859939  1.0000
  C   C305      1.0  0.8314576486800854  0.6727449505647123  0.6718022972518696  1.0000
  C   C306      1.0  0.807188106990565  0.6953112823534736  0.6658869558407877  1.0000
  H   H201      1.0  0.7991911831136471  0.7271677314404641  0.73823601761506  1.0000
  H   H202      1.0  0.8427238702504103  0.6877108836846859  0.7485443726564068  1.0000
  H   H203      1.0  0.8402032756242366  0.6573862553010099  0.6532725747722364  1.0000
  H   H204      1.0  0.7969264942049451  0.6967936070745503  0.6430085899198716  1.0000
  C   C307      1.0  0.7211394052777077  0.8886948048319268  0.6375295187224765  1.0000
  C   C308      1.0  0.6891644804343469  0.891155727756767  0.6469968235558992  1.0000
  C   C309      1.0  0.6814908989768025  0.9038626525575972  0.6763081726688693  1.0000
  C   C310      1.0  0.7057111780396393  0.9152799989745866  0.6957199035591982  1.0000
  C   C311      1.0  0.7376639250421594  0.9128262876629263  0.6862512092235987  1.0000
  C   C312      1.0  0.7454099775011657  0.8990856716914699  0.6574010135374954  1.0000
  H   H205      1.0  0.6703519481159065  0.8831335852546467  0.6316472458059441  1.0000
  H   H206      1.0  0.7754594236615834  0.4008722479856474  0.7028053858811681  1.0000
  H   H207      1.0  0.7565041967285514  0.9216410824362893  0.7011613877755083  1.0000
  H   H208      1.0  0.7701124400002015  0.8974769617724769  0.6500594460485997  1.0000
  C   C313      1.0  0.6347070056857755  0.7267729829135289  0.51837771511291  1.0000
  C   C314      1.0  0.6495643063845943  0.731493750570841  0.5471216162268805  1.0000
  C   C315      1.0  0.6828057712793113  0.7361190548599088  0.5487445307759417  1.0000
  C   C316      1.0  0.7013459387053187  0.7355159300489513  0.5216823394577931  1.0000
  C   C317      1.0  0.686564616490633  0.7296366949714393  0.4931419368601476  1.0000
  C   C318      1.0  0.6533455020843062  0.7255291713036494  0.4914589861154693  1.0000
  H   H209      1.0  0.6353013946000509  0.7322774627834603  0.5680416761334949  1.0000
  H   H210      1.0  0.6940681090178201  0.739816653798603  0.5709212449183311  1.0000
  H   H211      1.0  0.7008107404101275  0.7285918611232103  0.47219101378575207  1.0000
  H   H212      1.0  0.642257215763936  0.720801593776525  0.4693448500398593  1.0000
  C   C319      1.0  0.9417724025934968  0.8280057273702741  0.5160717600866243  1.0000
  C   C320      1.0  0.9093078320515194  0.8364430987340797  0.517076894742882  1.0000
  C   C321      1.0  0.8894594932123954  0.8246459677470981  0.5409016346057892  1.0000
  C   C322      1.0  0.9022706792744646  0.8049817955296413  0.5641426012772655  1.0000
  C   C323      1.0  0.9348968259360392  0.7972627144118463  0.5635450293595984  1.0000
  C   C324      1.0  0.9545651299769733  0.8086378778145188  0.5395419442792075  1.0000
  H   H213      1.0  0.8993918982662898  0.8517197530524319  0.4991227475262573  1.0000
  H   H214      1.0  0.864373539946959  0.8309773675018263  0.5413999731527601  1.0000
  H   H215      1.0  0.9449327385059498  0.7820994210521003  0.5814851520897005  1.0000
  H   H216      1.0  0.9795884781210888  0.8023465278305772  0.5391395454053576  1.0000
  C   C325      1.0  0.8135468576542959  0.6192157059518697  0.8974541655646566  1.0000
  C   C326      1.0  0.8330359509256778  0.6354619691207628  0.9186481900217331  1.0000
  C   C327      1.0  0.8561890177985534  0.6573785555260104  0.9080225116104099  1.0000
  C   C328      1.0  0.8609469152303263  0.662007297640037  0.8761782220184846  1.0000
  C   C329      1.0  0.8415913345280709  0.6455807673595039  0.8549435309860147  1.0000
  C   C330      1.0  0.8175398263143474  0.6246073228344032  0.8656167623058453  1.0000
  H   H217      1.0  0.8299016836560544  0.6316141250938522  0.9432547045456838  1.0000
  H   H218      1.0  0.870965630331025  0.6702568353102071  0.924485677135287  1.0000
  H   H219      1.0  0.84492631635733  0.6493265653883287  0.8303375474415587  1.0000
  H   H220      1.0  0.8023485899867575  0.6122347472672667  0.8491728289162398  1.0000
  C   C331      1.0  0.7446057231448152  0.4381940954377687  0.9170383761367774  1.0000
  C   C332      1.0  0.7264195035091471  0.4665706598563124  0.9190091680970517  1.0000
  C   C333      1.0  0.6955991538398028  0.4676668647052071  0.9064494235979559  1.0000
  C   C334      1.0  0.6830374347583424  0.4405809946949711  0.8912455764896247  1.0000
  C   C335      1.0  0.7010628046139702  0.41209665667651857  0.8892477734448258  1.0000
  C   C336      1.0  0.7317104739978412  0.41084015074848723  0.9023877566999764  1.0000
  H   H221      1.0  0.7361645486060778  0.48785514181844675  0.9297971626813761  1.0000
  H   H222      1.0  0.6818551137790628  0.4898551800427711  0.9077713384387084  1.0000
  H   H223      1.0  0.6913679723417862  0.39099462576168054  0.8777046141290051  1.0000
  H   H224      1.0  0.7456411835258697  0.3887721354573216  0.9008354668680375  1.0000
  C   C337      1.0  0.9602055932414824  0.951036075445029  0.021251250640851725  1.0000
  C   C338      1.0  0.9954125096711224  0.49585332348622513  0.006981622137058441  1.0000
  C   C339      1.0  0.9751273459098754  0.5133760923478021  0.987337007447387  1.0000
  C   C340      1.0  0.9433167304775367  0.5037641681150407  0.9833624267091415  1.0000
  C   C341      1.0  0.9190485606856184  0.9460380473850156  0.9820478373816084  1.0000
  C   C342      1.0  0.9306910585287343  0.9388202143039338  0.011640532174827503  1.0000
  H   H225      1.0  0.019821610611372664  0.5035108589435812  0.009998515760786475  1.0000
  H   H226      1.0  0.9840263835855898  0.5346686252875938  0.9755312778061911  1.0000
  H   H227      1.0  0.8965533608231002  0.9360001312443149  0.9746679084448225  1.0000
  H   H228      1.0  0.9167593170672785  0.9238196948282226  0.02717684237633427  1.0000
  C   C343      1.0  0.7613727164071001  0.547063315023253  0.06718544101140568  1.0000
  C   C344      1.0  0.7548697805535541  0.5680213285782404  0.09192169042503083  1.0000
  C   C345      1.0  0.7233498662008856  0.5772652390582712  0.09854090061754978  1.0000
  C   C346      1.0  0.6980497713688296  0.5649114103806453  0.08101910395497577  1.0000
  C   C347      1.0  0.7044422264868457  0.5430766349301506  0.056881463119989185  1.0000
  C   C348      1.0  0.7361074940155737  0.5343224528287277  0.04983548404102435  1.0000
  H   H229      1.0  0.7743113169854919  0.5779568626796882  0.10542863499619907  1.0000
  H   H230      1.0  0.7185959910346976  0.5943199166171983  0.11709507887313504  1.0000
  H   H231      1.0  0.6851601052246851  0.5338396379273156  0.04290372870801229  1.0000
  H   H232      1.0  0.7409325957663353  0.517652926105219  0.031050949750258017  1.0000
  C   C349      1.0  0.9750675227329322  0.6561045423089364  0.33784525520129816  1.0000
  C   C350      1.0  0.9485644150578965  0.6496677127310898  0.35666296166092754  1.0000
  C   C351      1.0  0.9476494451369762  0.6613790787823046  0.38729184450961796  1.0000
  C   C352      1.0  0.9729268754903639  0.6800396065511142  0.39896532998408013  1.0000
  C   C353      1.0  0.9991379250931177  0.6869150132820692  0.37992821499825247  1.0000
  C   C354      1.0  0.00038048408199009565  0.6746066902116749  0.34958174441033246  1.0000
  H   H233      1.0  0.9290496234330472  0.6351853344142523  0.34782447648875603  1.0000
  H   H234      1.0  0.9273782236568133  0.6558614958593146  0.4019603335791829  1.0000
  H   H235      1.0  0.018735593249201044  0.7012847915310321  0.38874771384376516  1.0000
  H   H236      1.0  0.020956271749738686  0.6796518417804945  0.335138807303029  1.0000
  C   C355      1.0  0.9397885120485523  0.07648601254984766  0.1639117615055403  1.0000
  C   C356      1.0  0.9490606681444094  0.04910419885965189  0.1468866537999364  1.0000
  C   C357      1.0  0.9807342587656013  0.0457703294418248  0.13656445257444974  1.0000
  C   C358      1.0  0.0031992131287901238  0.06987047885003839  0.14323687031669569  1.0000
  C   C359      1.0  0.9935926008636413  0.0978028937963129  0.15925856303453928  1.0000
  C   C360      1.0  0.961917225841993  0.10112770803415061  0.16955846160217053  1.0000
  H   H237      1.0  0.9320206971210182  0.029976913666997618  0.1425600499554986  1.0000
  H   H238      1.0  0.5089356426975535  0.01352224441070038  0.10948842799996424  1.0000
  H   H239      1.0  0.02807696654137115  0.6145917041429196  0.1638366397706134  1.0000
  H   H240      1.0  0.9707824070322503  0.6160743449594126  0.17878169932230736  1.0000
  C   C361      1.0  0.8010852973025072  0.9812264292104824  0.3155646832046828  1.0000
  C   C362      1.0  0.7733860780939358  0.9976009038090319  0.3064966515567983  1.0000
  C   C363      1.0  0.7742715372122378  0.031131878359392573  0.3009870733179039  1.0000
  C   C364      1.0  0.8030189987968808  0.04822313047577209  0.3038411073404441  1.0000
  C   C365      1.0  0.8305285714620297  0.032041464420340615  0.3136838290860097  1.0000
  C   C366      1.0  0.829437727106936  0.9986640505561369  0.31993080258022333  1.0000
  H   H241      1.0  0.7512070959676085  0.9845342769828827  0.30407071293543986  1.0000
  H   H242      1.0  0.752808917221447  0.043666814432432366  0.29385109023380906  1.0000
  H   H243      1.0  0.8526161257310181  0.04523776180746375  0.3166592168680662  1.0000
  H   H244      1.0  0.8508006937073967  0.9861736037323685  0.32743778287434583  1.0000
  C   C367      1.0  0.7857849449480109  0.7688032911577805  0.2653324379925892  1.0000
  C   C368      1.0  0.7914568349012122  0.7361206061914993  0.2724465354612903  1.0000
  C   C369      1.0  0.8173595996266606  0.7195290812826647  0.25899709235832385  1.0000
  C   C370      1.0  0.8375704900329902  0.7355677657969887  0.23823244507704802  1.0000
  C   C371      1.0  0.8319595902702199  0.7682545826420886  0.23118449263155347  1.0000
  C   C372      1.0  0.8061424531325714  0.7848733242758326  0.2447248443207288  1.0000
  H   H245      1.0  0.7757407787347548  0.7235558768605241  0.2883317302084856  1.0000
  H   H246      1.0  0.8215340787883372  0.6943033404889474  0.26453469691967585  1.0000
  H   H247      1.0  0.8475771062496097  0.78073904134225  0.21514499595521577  1.0000
  H   H248      1.0  0.8018497003075232  0.8099981659956393  0.2390106786055677  1.0000
  C   C373      1.0  0.6336118048274548  0.8823445623263565  0.3338895437952367  1.0000
  C   C374      1.0  0.6035501393705656  0.8695675515761118  0.3412807151365777  1.0000
  C   C375      1.0  0.5963796415136985  0.8603838105047116  0.37186165417305606  1.0000
  C   C376      1.0  0.6190085751872239  0.864583018348078  0.3953247977799491  1.0000
  C   C377      1.0  0.6489197010911487  0.8778039404898607  0.38802341891554387  1.0000
  C   C378      1.0  0.6563410703480625  0.8863264043480961  0.3573067872014595  1.0000
  H   H249      1.0  0.5857949002498514  0.8666499000628763  0.32331752843886924  1.0000
  H   H250      1.0  0.5730669417765647  0.8507729548669936  0.37737198696324165  1.0000
  H   H251      1.0  0.6664408378076209  0.8813828525667867  0.4060855173137366  1.0000
  H   H252      1.0  0.6793596667593578  0.8967787706129289  0.35193512041266517  1.0000
  C   C379      1.0  0.6707785331402254  0.9041135769874621  0.11142148352301792  1.0000
  C   C380      1.0  0.6877393325898831  0.9332825634298767  0.11089951848157256  1.0000
  C   C381      1.0  0.7117541147073333  0.9391630480345983  0.1327293422713785  1.0000
  C   C382      1.0  0.71843299245372  0.9161983334658996  0.15565254769281905  1.0000
  C   C383      1.0  0.701798542366608  0.8868093758738392  0.1560357182267222  1.0000
  C   C384      1.0  0.6782528364871742  0.8806137542962547  0.1336601688563968  1.0000
  H   H253      1.0  0.6826352410396844  0.951278364457919  0.09354504948440837  1.0000
  H   H254      1.0  0.7247281773415603  0.9618384033244819  0.13221786090747292  1.0000
  H   H255      1.0  0.7073065883737912  0.8687077533813969  0.1733240143973437  1.0000
  H   H256      1.0  0.6654523751929698  0.857829210003335  0.13392876678308802  1.0000
  N   N1        1.0  0.4275754409837129  0.06773775226833023  0.04274466372078756  1.0000
  C   C385      1.0  0.45722332374040525  0.04878521413348924  0.03818505653089721  1.0000
  C   C386      1.0  0.4338012909948858  0.09518195918693739  0.06397639040608771  1.0000
  C   C387      1.0  0.40256554903172487  0.04670237644661568  0.056189788484898306  1.0000
  C   C388      1.0  0.41660332861390237  0.08020951087194406  0.01246490470939099  1.0000
  H   H257      1.0  0.47684914391837685  0.06402605734196798  0.028682722158184237  1.0000
  H   H258      1.0  0.4534072918612503  0.028465208085537874  0.021631154840761724  1.0000
  H   H259      1.0  0.46585425183384116  0.038035929189287554  0.06027202965985912  1.0000
  H   H260      1.0  0.4526811144548796  0.11149503304092434  0.054679801941145634  1.0000
  H   H261      1.0  0.4119069157458648  0.11002147410465768  0.06780493749467364  1.0000
  H   H262      1.0  0.44188126873650835  0.08667710674554296  0.08717260969504159  1.0000
  H   H263      1.0  0.3970216316831345  0.02597212512973801  0.04059533265980031  1.0000
  H   H264      1.0  0.3798586888397297  0.06023407433940142  0.05996063809798802  1.0000
  H   H265      1.0  0.4100590417623363  0.03645328503400225  0.07886506541301652  1.0000
  H   H266      1.0  0.394158520204879  0.09454050784962886  0.014750516637678235  1.0000
  H   H267      1.0  0.41162094681187905  0.06007971426348013  0.9958938149664813  1.0000
  H   H268      1.0  0.4347666573337734  0.09614361839914087  0.0014015554424884336  1.0000
  N   N2        1.0  0.032341592630274585  0.5707663903119969  0.2545147798502933  1.0000
  C   C389      1.0  0.044030120574733767  0.5947295999649158  0.27733328188178336  1.0000
  C   C390      1.0  0.05298567932140141  0.5713565303909747  0.22666508365975876  1.0000
  C   C391      1.0  0.9991959776021069  0.5789255227557142  0.24575205175113166  1.0000
  C   C392      1.0  0.03302074837699154  0.538021889513251  0.2683686222913952  1.0000
  H   H269      1.0  0.06922690470152681  0.5899190396794668  0.2840243068345356  1.0000
  H   H270      1.0  0.029298998262843767  0.5944429553563022  0.29889694229522834  1.0000
  H   H271      1.0  0.04269873563996063  0.6198645243032688  0.2679811315539295  1.0000
  H   H272      1.0  0.07823444597943041  0.5654740708603819  0.23232546129565626  1.0000
  H   H273      1.0  0.04491950972058323  0.5534267147849279  0.20902255530254912  1.0000
  H   H274      1.0  0.052797977384899664  0.5956176559929883  0.21538823191825693  1.0000
  H   H275      1.0  0.9894219573244787  0.5614540408653385  0.2285183241465818  1.0000
  H   H276      1.0  0.9976154996588084  0.6036144976088325  0.23544832149839928  1.0000
  H   H277      1.0  0.9831017006669014  0.5787256397554066  0.26631903620444114  1.0000
  H   H278      1.0  0.05765799718614972  0.5310375693993672  0.27535492024920977  1.0000
  H   H279      1.0  0.02426497161910568  0.5194250595223272  0.25168536931307656  1.0000
  H   H280      1.0  0.017531106006437147  0.5367468842731284  0.28938027471711664  1.0000
  N   N3        1.0  0.92852839563947  0.7435596926581609  0.30378533533602287  1.0000
  C   C393      1.0  0.9461600865828794  0.7744767836230394  0.3061644131425938  1.0000
  C   C394      1.0  0.8958928481727239  0.7498150351825131  0.2922412847519862  1.0000
  C   C395      1.0  0.9266506854522205  0.7282139912731455  0.33466641016996057  1.0000
  C   C396      1.0  0.9454134351669813  0.7216833789919818  0.28204713236881745  1.0000
  H   H281      1.0  0.9708909374501797  0.7705255909596527  0.314914228575623  1.0000
  H   H282      1.0  0.9340505875891844  0.791600793935262  0.32234630483959054  1.0000
  H   H283      1.0  0.9480324734477359  0.786597603006249  0.28318144846844995  1.0000
  H   H284      1.0  0.8963245513099329  0.7611396721053966  0.2688117669587344  1.0000
  H   H285      1.0  0.8819977752843589  0.7269047079296517  0.2901110345703398  1.0000
  H   H286      1.0  0.8822526528685368  0.7662516783564151  0.3078859531019908  1.0000
  H   H287      1.0  0.913983655423949  0.7045057347116548  0.33353822921110576  1.0000
  H   H288      1.0  0.9136634458178995  0.7437918513107333  0.3515719805370604  1.0000
  H   H289      1.0  0.9508705244346987  0.7235445192188593  0.34426389162878945  1.0000
  H   H290      1.0  0.9330130094119956  0.6979969469178662  0.27999591848828775  1.0000
  H   H291      1.0  0.9702040378139818  0.7164011308362304  0.2899061478664619  1.0000
  H   H292      1.0  0.9466261216973366  0.7320916150207637  0.2582646608452641  1.0000
  N   N4        1.0  0.07914409203183478  0.30585176494633126  0.7125158976205863  1.0000
  C   C397      1.0  0.04684363590510461  0.320009395536345  0.7157061619750245  1.0000
  C   C398      1.0  0.09440094024766348  0.30404788157492385  0.7433259924453532  1.0000
  C   C399      1.0  0.09865342521328373  0.3264190630255615  0.6918025612153179  1.0000
  C   C400      1.0  0.07667584970292585  0.2728568869712054  0.6992979396813922  1.0000
  H   H293      1.0  0.030901256136041104  0.3038882122719535  0.7293616028268525  1.0000
  H   H294      1.0  0.03534901393893088  0.32369466407916214  0.6927612514575167  1.0000
  H   H295      1.0  0.0475114697196197  0.3439060739603479  0.7278202485231966  1.0000
  H   H296      1.0  0.09570169954897689  0.328334540436084  0.7545709198504165  1.0000
  H   H297      1.0  0.08092455006948585  0.2877710480158287  0.7591466907071455  1.0000
  H   H298      1.0  0.11930607309430036  0.2946863332055681  0.7417193948455011  1.0000
  H   H299      1.0  0.12320297640261715  0.3164461824214478  0.6889300965795292  1.0000
  H   H300      1.0  0.10130942848386898  0.3513586676856658  0.7013563591695118  1.0000
  H   H301      1.0  0.08787033420289511  0.3285204684685895  0.6683622611951432  1.0000
  H   H302      1.0  0.10066153800455156  0.2614989410989799  0.6965573280956903  1.0000
  H   H303      1.0  0.06504043003333322  0.27318699938355806  0.6761304544114547  1.0000
  H   H304      1.0  0.06225418437256604  0.2566461273632926  0.7145603661547721  1.0000
  N   N5        1.0  0.594309828383066  0.3313146121502601  0.2981278881734814  1.0000
  C   C401      1.0  0.5962370543731987  0.36705565595572925  0.29942181157347686  1.0000
  C   C402      1.0  0.6085795269282487  0.31962658076460887  0.2687947395862673  1.0000
  C   C403      1.0  0.5604770705362824  0.3212725625517371  0.2996664899543689  1.0000
  C   C404      1.0  0.6118187973303376  0.31735439769242946  0.3246817582391809  1.0000
  H   H305      1.0  0.5846460327557955  0.37671775273212116  0.3207830689903681  1.0000
  H   H306      1.0  0.5843827582646515  0.37845997805998105  0.2790992735695727  1.0000
  H   H307      1.0  0.6215261629264788  0.37547509921375855  0.29931875250913353  1.0000
  H   H308      1.0  0.596088643934282  0.3299577786121725  0.24828529498876797  1.0000
  H   H309      1.0  0.6339875199484428  0.3270817777697286  0.2667407650751635  1.0000
  H   H310      1.0  0.6076173035511743  0.29271665023587456  0.267079580498909  1.0000
  H   H311      1.0  0.5489902087469584  0.3300875962290685  0.3214007020471568  1.0000
  H   H312      1.0  0.558196335225244  0.2943749596094458  0.2992310226550845  1.0000
  H   H313      1.0  0.54664438277549  0.33115786517636076  0.2798181918938403  1.0000
  H   H314      1.0  0.6111859768745491  0.2903573070212968  0.3243326937060368  1.0000
  H   H315      1.0  0.6011818474335278  0.325295603272102  0.3470999357358698  1.0000
  H   H316      1.0  0.6373138152724649  0.3250793163780647  0.3247654982832511  1.0000
  N   N6        1.0  0.44418929752216013  0.24649012866383288  0.3242326154513971  1.0000
  C   C405      1.0  0.4262932779600446  0.266692289846875  0.3019895739705124  1.0000
  C   C406      1.0  0.43095784400087145  0.25114667069581464  0.35572191218459753  1.0000
  C   C407      1.0  0.4781529599113862  0.25607735314225627  0.32393830888284075  1.0000
  C   C408      1.0  0.4413476955424006  0.21202577187600558  0.31531005555674974  1.0000
  H   H317      1.0  0.4361177571157313  0.26413821080557115  0.27806949779051443  1.0000
  H   H318      1.0  0.42717895858455257  0.292827809882425  0.3083010727629775  1.0000
  H   H319      1.0  0.400733908245455  0.2593765130344424  0.30098318061369694  1.0000
  H   H320      1.0  0.40525027377721917  0.24448739338438485  0.35680810414524405  1.0000
  H   H321      1.0  0.4437847959026797  0.235936758323563  0.37304754847999916  1.0000
  H   H322      1.0  0.43325318854779865  0.2767964860466926  0.3634912386395239  1.0000
  H   H323      1.0  0.491809618789022  0.2428985363090512  0.3420789453508048  1.0000
  H   H324      1.0  0.4809979935459432  0.2824287620273638  0.32851193605536005  1.0000
  H   H325      1.0  0.48964505983889217  0.2506161834232162  0.3012124490771132  1.0000
  H   H326      1.0  0.4545485454063209  0.1959984449706912  0.3315974935097343  1.0000
  H   H327      1.0  0.45102778657279635  0.20753252389543073  0.29158506476602003  1.0000
  H   H328      1.0  0.41599247377141757  0.2041037826254262  0.31520782787231666  1.0000
  N   N7        1.0  0.11033899863279995  0.31213849546565525  0.3150966400041734  1.0000
  C   C409      1.0  0.08158856344695511  0.3191593903671502  0.33388983718728615  1.0000
  C   C410      1.0  0.13610183816964974  0.30025459439584506  0.3355384300264459  1.0000
  C   C411      1.0  0.12087360012929418  0.3420656516577164  0.29920814131064805  1.0000
  C   C412      1.0  0.10270093763740618  0.2869677470765648  0.29186022080297175  1.0000
  H   H329      1.0  0.06130080977425719  0.3273400005872832  0.3192677052456131  1.0000
  H   H330      1.0  0.08628440407711187  0.3386204007094808  0.35111216152616653  1.0000
  H   H331      1.0  0.07351750080898047  0.29735496441949916  0.3469194175450811  1.0000
  H   H332      1.0  0.1582248353720174  0.29468442870024386  0.32219855787640034  1.0000
  H   H333      1.0  0.14245853486115062  0.31858357885526245  0.35340483894249103  1.0000
  H   H334      1.0  0.1287939932909786  0.27782797415098426  0.3480457335537652  1.0000
  H   H335      1.0  0.14163119929235732  0.3374533910151877  0.2836482478826795  1.0000
  H   H336      1.0  0.12825403828001675  0.36108185412837546  0.3161138610387737  1.0000
  H   H337      1.0  0.10154661454366547  0.35255453238893986  0.28466906241298773  1.0000
  H   H338      1.0  0.12394454419810332  0.2808527438840163  0.27739992381483075  1.0000
  H   H339      1.0  0.08336693504992815  0.2950943827457386  0.2760093311622961  1.0000
  H   H340      1.0  0.09441785546420607  0.26418658274595724  0.30321002136486574  1.0000
  N   N8        1.0  0.5209106420708335  0.3106938359572333  0.7210960434727051  1.0000
  C   C413      1.0  0.49248883384075365  0.2942072047702928  0.7083252738555001  1.0000
  C   C414      1.0  0.5141357435521601  0.3212125182374229  0.753203244822855  1.0000
  C   C415      1.0  0.5288402384675185  0.33930721378519707  0.7019674361684176  1.0000
  C   C416      1.0  0.5482189301749879  0.28796090038706595  0.7210297005320974  1.0000
  H   H341      1.0  0.49676471181282045  0.28529241723271553  0.6842891299903122  1.0000
  H   H342      1.0  0.4713404822896645  0.3105300060435225  0.7077147055430042  1.0000
  H   H343      1.0  0.4858186368181491  0.27264389151911517  0.7224900656617251  1.0000
  H   H344      1.0  0.5352776883089336  0.33328411875199737  0.7637610882458323  1.0000
  H   H345      1.0  0.49391214389271754  0.3386973866917136  0.7541514635171677  1.0000
  H   H346      1.0  0.5077039180016018  0.30022503618641044  0.768188415568099  1.0000
  H   H347      1.0  0.5501679017176787  0.35228378684200456  0.7112035866425552  1.0000
  H   H348      1.0  0.508774777415309  0.3570399736328444  0.7015326452414863  1.0000
  H   H349      1.0  0.5341868522511038  0.332276482094262  0.6775833846303777  1.0000
  H   H350      1.0  0.5538783066516481  0.2792501615705392  0.6972245639371181  1.0000
  H   H351      1.0  0.5430476703999655  0.2661851285304989  0.7353969772079111  1.0000
  H   H352      1.0  0.5701493963183581  0.29951721248902136  0.7305679570386572  1.0000
  N   N9        1.0  0.8898242964965027  0.02547440684925336  0.05205301564001632  1.0000
  C   C417      1.0  0.9123824340558617  0.002917776139419558  0.06713649589923935  1.0000
  C   C418      1.0  0.8873724589783614  0.017455269616032262  0.018717717577376437  1.0000
  C   C419      1.0  0.9015996695544897  0.059038009511711696  0.05572288082341952  1.0000
  C   C420      1.0  0.8579741513984661  0.022500830609103066  0.06666219782708153  1.0000
  H   H353      1.0  0.9049019692683837  0.9771994897758081  0.06423616062420473  1.0000
  H   H354      1.0  0.9144327343222011  0.007738833600935272  0.09240885476345279  1.0000
  H   H355      1.0  0.9368492769907064  0.005138898675750593  0.0571394772775223  1.0000
  H   H356      1.0  0.9110502800551066  0.018828403085578437  0.00694026944191898  1.0000
  H   H357      1.0  0.8780693959964596  0.992435782791755  0.015206614842460497  1.0000
  H   H358      1.0  0.8706837752464945  0.03416524229821587  0.006553337228826109  1.0000
  H   H359      1.0  0.8851098378526663  0.07681302851717306  0.04475590660830605  1.0000
  H   H360      1.0  0.9255831302345334  0.06210057520683309  0.04486079327407111  1.0000
  H   H361      1.0  0.9039351181919818  0.0657337814983956  0.0806730824613245  1.0000
  H   H362      1.0  0.8403585187748349  0.039199510048746035  0.05571543813549216  1.0000
  H   H363      1.0  0.8588293214032208  0.02832716818755712  0.09184416080891543  1.0000
  H   H364      1.0  0.8482540487212067  0.9975174966177037  0.06404589532325575  1.0000
  N   N10       1.0  0.5231765387868976  0.5628148021507646  0.25440876307462756  1.0000
  C   C421      1.0  0.5414626221540888  0.5451938036330795  0.23032031878428658  1.0000
  C   C422      1.0  0.5126794315083693  0.5945102608953746  0.2421000998169542  1.0000
  C   C423      1.0  0.5436900542157355  0.567987888516296  0.2818253028954499  1.0000
  C   C424      1.0  0.4948521637073681  0.5435729838262195  0.26341679746561397  1.0000
  H   H365      1.0  0.5500602041430416  0.5212873391147728  0.23887277540017174  1.0000
  H   H366      1.0  0.5626499343097654  0.5592663248652826  0.22245282654811546  1.0000
  H   H367      1.0  0.5266068010623998  0.5403611255753172  0.20951220860182987  1.0000
  H   H368      1.0  0.5333675520235651  0.6100075350282635  0.23560000994597322  1.0000
  H   H369      1.0  0.4976218160189749  0.5915570529171102  0.22107524420388386  1.0000
  H   H370      1.0  0.49822848058311325  0.6080635105595298  0.25952332961644126  1.0000
  H   H371      1.0  0.530700835342951  0.5812830448861707  0.3004719085039156  1.0000
  H   H372      1.0  0.5652651382922378  0.5824814409261424  0.27591097577962803  1.0000
  H   H373      1.0  0.5518406402101093  0.5445720066506091  0.29187969077435943  1.0000
  H   H374      1.0  0.5017596635867203  0.5193251520863542  0.27248207959291537  1.0000
  H   H375      1.0  0.4785758690224988  0.5396918089810107  0.24337678745028232  1.0000
  H   H376      1.0  0.4807713616318935  0.5559819915814181  0.28192868602228216  1.0000
  N   N11       1.0  0.0005530662530823793  0.9049117873075561  0.9054482895026595  1.0000
  C   C425      1.0  0.009801415435246152  0.9391298741609986  0.9101854905793093  1.0000
  C   C426      1.0  0.9775179569930521  0.8951155328558164  0.9297303442690297  1.0000
  C   C427      1.0  0.029285538522304977  0.8841263987708028  0.907173710797126  1.0000
  C   C428      1.0  0.9855806433233347  0.9013161092390849  0.8746336549428231  1.0000
  H   H377      1.0  0.9886999093410342  0.9554747436430406  0.9085394844320555  1.0000
  H   H378      1.0  0.02751491223090241  0.9471386585646906  0.892470217053278  1.0000
  H   H379      1.0  0.020694480276649108  0.9428963817433826  0.9334509810770554  1.0000
  H   H380      1.0  0.9874764375513944  0.8987541924826878  0.9534115960174611  1.0000
  H   H381      1.0  0.9550818036092718  0.9095421938169181  0.9283251040910182  1.0000
  H   H382      1.0  0.9708431182820383  0.8691122286176681  0.9274019785736061  1.0000
  H   H383      1.0  0.02331321685430021  0.8581699277326289  0.902965176983083  1.0000
  H   H384      1.0  0.04103726883987813  0.8859348757497202  0.9302188474361631  1.0000
  H   H385      1.0  0.04721240286876238  0.8909631420833798  0.8892143909958045  1.0000
  H   H386      1.0  0.9635307921287485  0.9162683803074979  0.8726791495575971  1.0000
  H   H387      1.0  0.9789823503542707  0.8756103827327709  0.8699198545676199  1.0000
  H   H388      1.0  0.002214467064478809  0.9088110812574517  0.8557506603788351  1.0000
  N   N12       1.0  0.30930450031938855  0.32935826570583354  0.43946480314016034  1.0000
  C   C429      1.0  0.3143339601497561  0.29515844150593495  0.44840534808652327  1.0000
  C   C430      1.0  0.3340565460184252  0.3497990707656871  0.45412553446607923  1.0000
  C   C431      1.0  0.2773346911432098  0.33997034944237386  0.44997170740845094  1.0000
  C   C432      1.0  0.31134423038034104  0.3324362757699434  0.40536854082908386  1.0000
  H   H389      1.0  0.2955609573657994  0.2791306561015598  0.43845018746477954  1.0000
  H   H390      1.0  0.3131938145301131  0.2921088012448836  0.4740366802783727  1.0000
  H   H391      1.0  0.3380067406130491  0.286090898279485  0.44046206506177293  1.0000
  H   H392      1.0  0.3585287137396138  0.34234518465407326  0.44679668068336464  1.0000
  H   H393      1.0  0.33097952236591466  0.3758004234228382  0.44795319025384334  1.0000
  H   H394      1.0  0.3332029676221603  0.3479890100043229  0.4799082723453783  1.0000
  H   H395      1.0  0.25820879245112155  0.32433127068943535  0.44004784963781596  1.0000
  H   H396      1.0  0.2721888568906096  0.36534218207999647  0.44276408707963893  1.0000
  H   H397      1.0  0.27504821625372805  0.3385215275337472  0.47554954543982153  1.0000
  H   H398      1.0  0.29287578002550513  0.3173231170414075  0.3936882133654621  1.0000
  H   H399      1.0  0.3351734919555912  0.32485220963470557  0.3964711035575153  1.0000
  H   H400      1.0  0.3071134136309664  0.3578992636382987  0.3977975203706964  1.0000
  N   N13       1.0  0.21851820708004271  0.8264925841333259  0.7843902211952648  1.0000
  C   C433      1.0  0.20380264274504367  0.8144207701560696  0.8133554735677739  1.0000
  C   C434      1.0  0.19830790680739582  0.81748616416468  0.7576521485920651  1.0000
  C   C435      1.0  0.25057929973813975  0.8119748440200164  0.7805055618632736  1.0000
  C   C436      1.0  0.22152352520602525  0.8621439649845865  0.786091606464666  1.0000
  H   H401      1.0  0.2181942021404685  0.8212648157854281  0.8340470742506689  1.0000
  H   H402      1.0  0.20122460915375803  0.7875924002643819  0.813157487140268  1.0000
  H   H403      1.0  0.17962428853683868  0.8249900722092901  0.8170020490557204  1.0000
  H   H404      1.0  0.20965131496036868  0.8245429288459042  0.7353045933069998  1.0000
  H   H405      1.0  0.19399260565308118  0.7909093961947365  0.7566843057410816  1.0000
  H   H406      1.0  0.17457353266594328  0.8296832677561516  0.7585899912299168  1.0000
  H   H407      1.0  0.24925300500690603  0.7850659505748029  0.7791418344205147  1.0000
  H   H408      1.0  0.26649853987784955  0.8183931107469744  0.8002169685529241  1.0000
  H   H409      1.0  0.2622887139803333  0.8206673486252951  0.7587886617814016  1.0000
  H   H410      1.0  0.23380231753487196  0.8720600123293195  0.7653349564008951  1.0000
  H   H411      1.0  0.2354501861851347  0.869800748359285  0.8068019994532595  1.0000
  H   H412      1.0  0.1976989216466888  0.8740285430159725  0.7877912635864829  1.0000
  N   N14       1.0  0.9110506512279362  0.22312517048261776  0.5897817130128017  1.0000
  C   C437      1.0  0.8982434831980385  0.22818530419221042  0.5582692869956359  1.0000
  C   C438      1.0  0.9189313416896568  0.25483892136110164  0.6037658155360393  1.0000
  C   C439      1.0  0.9402363653975955  0.2030069702505411  0.5880515760673412  1.0000
  C   C440      1.0  0.8868303623474193  0.20655334356153024  0.6090824476698772  1.0000
  H   H413      1.0  0.8911252124747787  0.20493387109707656  0.5472082631097691  1.0000
  H   H414      1.0  0.9161891452746058  0.239977943219059  0.5428685447066504  1.0000
  H   H415      1.0  0.8768372029096662  0.2442202307388169  0.5587755949425303  1.0000
  H   H416      1.0  0.8971577975453219  0.2700938912038086  0.6067908637276921  1.0000
  H   H417      1.0  0.9300916799185142  0.2518720931604986  0.6269975942612837  1.0000
  H   H418      1.0  0.9357515704314219  0.26887567033674864  0.5889405920349465  1.0000
  H   H419      1.0  0.9503147244526764  0.19858338114900342  0.6115726459399954  1.0000
  H   H420      1.0  0.9591036982130005  0.21501087520499582  0.5738872947883438  1.0000
  H   H421      1.0  0.9352457628740619  0.17897016809554672  0.5773774478067085  1.0000
  H   H422      1.0  0.8957531436297592  0.2023575909420551  0.6330557258203137  1.0000
  H   H423      1.0  0.8801772550998638  0.1825753823357708  0.5992350827290747  1.0000
  H   H424      1.0  0.8645188460541325  0.2211802388455092  0.6110242114787974  1.0000
  N   N15       1.0  0.27301816840033116  0.1628653748197948  0.2981347302056288  1.0000
  C   C441      1.0  0.26558024123040197  0.15245656789983042  0.26614151459491686  1.0000
  C   C442      1.0  0.26287794766965866  0.1373039197314041  0.3200479960466534  1.0000
  C   C443      1.0  0.2558737619831464  0.19339450049411355  0.30511862546007784  1.0000
  C   C444      1.0  0.3077799503798077  0.16821405228993536  0.30123670163775723  1.0000
  H   H425      1.0  0.2747148959715904  0.169979289000032  0.24878430251034075  1.0000
  H   H426      1.0  0.2394128486367129  0.14981510420853583  0.2625386926488159  1.0000
  H   H427      1.0  0.2767419272287887  0.1286994765762599  0.2605584418562904  1.0000
  H   H428      1.0  0.26793017496858734  0.14426978182161898  0.34447771138758476  1.0000
  H   H429      1.0  0.23684894648561175  0.1322611912297771  0.31812759766267973  1.0000
  H   H430      1.0  0.2757511404987645  0.11406633625026363  0.3154144559403115  1.0000
  H   H431      1.0  0.26289875720745626  0.21309774421002348  0.2888007735180264  1.0000
  H   H432      1.0  0.2611048974388206  0.2021500944087078  0.3289768869102053  1.0000
  H   H433      1.0  0.2295521825430761  0.19034332223177497  0.30314200343983394  1.0000
  H   H434      1.0  0.31429634177877763  0.17544078007248065  0.325240752936014  1.0000
  H   H435      1.0  0.3163318679450583  0.18759470216918994  0.2853967236500524  1.0000
  H   H436      1.0  0.3214869624946335  0.1458768650530975  0.2955693583615056  1.0000
  N   N16       1.0  0.7534866361857078  0.47927909380273287  0.8200822819161666  1.0000
  C   C445      1.0  0.7591413131916039  0.49689640696698084  0.8494501097684091  1.0000
  C   C446      1.0  0.7336879484123067  0.49938899768466316  0.7992579611862384  1.0000
  C   C447      1.0  0.7366596712910524  0.4486088746480279  0.8267043816897914  1.0000
  C   C448      1.0  0.7843588088129544  0.47200679205382384  0.8048903968868264  1.0000
  H   H437      1.0  0.7720655716770655  0.5201130238862178  0.8455173856379079  1.0000
  H   H438      1.0  0.7736228624850617  0.48215780824149745  0.8659224340892963  1.0000
  H   H439      1.0  0.736239880516179  0.5028231931997709  0.8613569285249932  1.0000
  H   H440      1.0  0.7289030584425008  0.4866524250617541  0.7769369506400378  1.0000
  H   H441      1.0  0.7100738603230226  0.5050603806048872  0.8099361203205505  1.0000
  H   H442      1.0  0.7456123869015349  0.5227644305835125  0.7936785223870263  1.0000
  H   H443      1.0  0.7334898973441838  0.43383712273164105  0.8053971941429299  1.0000
  H   H444      1.0  0.7124398520105916  0.4531681568600482  0.836382706343087  1.0000
  H   H445      1.0  0.7501043498255817  0.4334574758027742  0.8435491778322726  1.0000
  H   H446      1.0  0.799687525748973  0.4565714582719579  0.819936798240774  1.0000
  H   H447      1.0  0.7978179205108267  0.4945767119974772  0.7995738426242496  1.0000
  H   H448      1.0  0.7807374175612523  0.45871420884269  0.7826214097925793  1.0000
  N   N17       1.0  0.4963099063676934  0.2555266461771839  0.5336487106149289  1.0000
  C   C449      1.0  0.5149986653913601  0.23577754201341303  0.5557027406852273  1.0000
  C   C450      1.0  0.462636001489042  0.25732554038268723  0.5440020792299124  1.0000
  C   C451      1.0  0.4978648535409586  0.24044201221609207  0.5025955169882811  1.0000
  C   C452      1.0  0.5099055365608218  0.2885532400026864  0.5321629034925026  1.0000
  H   H449      1.0  0.5405819455047204  0.23417502715281463  0.5484529399723829  1.0000
  H   H450      1.0  0.5056273638849065  0.21057381135655978  0.5571577541434094  1.0000
  H   H451      1.0  0.5142910102596204  0.24629269975297086  0.5794636019286019  1.0000
  H   H452      1.0  0.4516237669327021  0.2328199737542963  0.5455015290384516  1.0000
  H   H453      1.0  0.4604487769991703  0.268867026463429  0.5672562384953962  1.0000
  H   H454      1.0  0.4479075660605498  0.2718626345182124  0.5276525460550924  1.0000
  H   H455      1.0  0.5230237269956981  0.23810855969499206  0.494435978098095  1.0000
  H   H456      1.0  0.4847712946593178  0.2551007257482284  0.4851273581835968  1.0000
  H   H457      1.0  0.4872283130264102  0.21573729381630347  0.5025473682995434  1.0000
  H   H458      1.0  0.5091617274638183  0.3007346471421279  0.5551646982015263  1.0000
  H   H459      1.0  0.4965072308428652  0.3040742379737906  0.5156007189881597  1.0000
  H   H460      1.0  0.535296944580027  0.28803979453254813  0.52430257498095  1.0000
  N   N18       1.0  0.9104574384414809  0.7512668065945368  0.6797225763144813  1.0000
  C   C453      1.0  0.9309501125536955  0.7627552501205911  0.6540608710240045  1.0000
  C   C454      1.0  0.9182829470850008  0.7171304816845538  0.6867492251256335  1.0000
  C   C455      1.0  0.8765222468759948  0.7537597685356685  0.6705542290708436  1.0000
  C   C456      1.0  0.9161416238587596  0.7713666448742199  0.7075726980953747  1.0000
  H   H461      1.0  0.9255762471608923  0.7884521983392043  0.6480879064832333  1.0000
  H   H462      1.0  0.9269903398998085  0.7482272648033069  0.6326352892053712  1.0000
  H   H463      1.0  0.956721931239599  0.7610923147940643  0.6601984089525352  1.0000
  H   H464      1.0  0.9030289715163132  0.7077304927255165  0.7058016817953975  1.0000
  H   H465      1.0  0.9142757533612904  0.7010849141536779  0.6663661980929121  1.0000
  H   H466      1.0  0.9436191057286194  0.7143658217974651  0.6942115197328548  1.0000
  H   H467      1.0  0.8603460243498536  0.7457327500901113  0.689528115688119  1.0000
  H   H468      1.0  0.8712566691109228  0.7384572454207378  0.6498905331939125  1.0000
  H   H469      1.0  0.8699169989096472  0.7791013035583937  0.6644145726574892  1.0000
  H   H470      1.0  0.9105921942260458  0.7973289694300957  0.7031553272867074  1.0000
  H   H471      1.0  0.9415306434045084  0.7698665688560151  0.7152260107439159  1.0000
  H   H472      1.0  0.901126650186944  0.7632407293824045  0.7274335305469679  1.0000
  N   N19       1.0  0.1667699080163591  0.016759446857028727  0.8739031083502027  1.0000
  C   C457      1.0  0.1765695769047252  0.018164926872816473  0.8409820733279559  1.0000
  C   C458      1.0  0.1532579776531866  0.9844479284939462  0.88077888857634  1.0000
  C   C459      1.0  0.14229533588211332  0.041842548085758886  0.8800383047853486  1.0000
  C   C460      1.0  0.19488988417908773  0.0225798881597799  0.8938056972133704  1.0000
  H   H473      1.0  0.18673815714429046  0.042243117362547655  0.8349163060782191  1.0000
  H   H474      1.0  0.15601145042745726  0.013748112751871868  0.8252426688645198  1.0000
  H   H475      1.0  0.19490018943450974  0.9995154831528575  0.8355493699350203  1.0000
  H   H476      1.0  0.14566567913876852  0.9824824924081833  0.9054623398871915  1.0000
  H   H477      1.0  0.13196722019328233  0.9794018759082728  0.8661324938579279  1.0000
  H   H478      1.0  0.17090408143662764  0.9648115755346205  0.8762661692906202  1.0000
  H   H479      1.0  0.13415526533313682  0.041258817531517646  0.9046517874037993  1.0000
  H   H480      1.0  0.12083363059949448  0.038192910610460186  0.8651830885747922  1.0000
  H   H481      1.0  0.15162072374693455  0.06658286104686283  0.8752284686100389  1.0000
  H   H482      1.0  0.18819798968811297  0.022707276787095155  0.9187422909974859  1.0000
  H   H483      1.0  0.20630718841598816  0.04632751651818116  0.8886428857756199  1.0000
  H   H484      1.0  0.2134040151769042  0.0034939726645202038  0.8905013167140402  1.0000
  N   N20       1.0  0.946759506594401  0.5358668806818272  0.7108312820734358  1.0000
  C   C461      1.0  0.9496930957731065  0.5712881593994509  0.7150367882153708  1.0000
  C   C462      1.0  0.9786338332709626  0.5218245241628168  0.7044166021032945  1.0000
  C   C463      1.0  0.925168028957831  0.5291430990570428  0.6845400853450406  1.0000
  C   C464      1.0  0.9335055036001334  0.5213253514860594  0.739406417669145  1.0000
  H   H485      1.0  0.9261028776205619  0.5827804758894203  0.7200434469800661  1.0000
  H   H486      1.0  0.9596675967961673  0.5832247209610433  0.6940180661407876  1.0000
  H   H487      1.0  0.9658097197137803  0.5771890216461423  0.7347009519115572  1.0000
  H   H488      1.0  0.9895766723621339  0.5324414664316489  0.683194737827703  1.0000
  H   H489      1.0  0.9954695641285491  0.5264347496077002  0.7238581731255843  1.0000
  H   H490      1.0  0.9774173875378356  0.49507994925305826  0.7011848753842598  1.0000
  H   H491      1.0  0.9009975341937682  0.5397213666014449  0.6885986608961405  1.0000
  H   H492      1.0  0.9221878128403911  0.502612058475959  0.6807519716208758  1.0000
  H   H493      1.0  0.9345272785387342  0.5397639250054376  0.6626025207810028  1.0000
  H   H494      1.0  0.9307586993122435  0.4946018183537516  0.7370868703281291  1.0000
  H   H495      1.0  0.9097261227202779  0.5318143094917552  0.7452701694500518  1.0000
  H   H496      1.0  0.9493780906429296  0.5257957198545113  0.7596303373000312  1.0000
  N   N21       1.0  0.17554098380972621  0.3565187696887033  0.5184514091575171  1.0000
  C   C465      1.0  0.14767885711194406  0.3365214128753798  0.5096869957670912  1.0000
  C   C466      1.0  0.1645769675850523  0.3891336974589572  0.5279343187630179  1.0000
  C   C467      1.0  0.19742740209586768  0.3593338986044472  0.49163533601344794  1.0000
  C   C468      1.0  0.19258205899554745  0.34112573833715026  0.544545456270233  1.0000
  H   H497      1.0  0.15518342023241838  0.31205826963478134  0.5016359395912375  1.0000
  H   H498      1.0  0.13384257553734227  0.3478233304309734  0.4904984278181289  1.0000
  H   H499      1.0  0.13104210945560468  0.33291597717717186  0.5295450813251784  1.0000
  H   H500      1.0  0.15175376398106566  0.4015810336842381  0.5087277530586973  1.0000
  H   H501      1.0  0.1479761326643521  0.3877932652363082  0.5481035919521864  1.0000
  H   H502      1.0  0.18503784607470608  0.4047637217140932  0.5349254831051996  1.0000
  H   H503      1.0  0.20575509365687944  0.3350251494096562  0.4836694221310916  1.0000
  H   H504      1.0  0.21898595997117146  0.3738112772828156  0.49754928408072024  1.0000
  H   H505      1.0  0.1855141645669375  0.37126680984387106  0.4716039998617301  1.0000
  H   H506      1.0  0.21330225030164224  0.3560091132963985  0.5521322441768527  1.0000
  H   H507      1.0  0.20200244091759198  0.3168858184309595  0.537967643483886  1.0000
  H   H508      1.0  0.17675413168205958  0.3378877700345921  0.5650771250598307  1.0000
  N   N22       1.0  0.37357014079105966  0.7294807590276023  0.17434646681804924  1.0000
  C   C469      1.0  0.33967384701160797  0.730457804068101  0.18402441057531735  1.0000
  C   C470      1.0  0.39422174923765774  0.7318431995212765  0.20198835820434335  1.0000
  C   C471      1.0  0.3802677044197125  0.7570163610286235  0.15343904342949977  1.0000
  C   C472      1.0  0.38013606183519205  0.6986453864536372  0.15800016942184725  1.0000
  H   H509      1.0  0.3232948868660651  0.7288995275885386  0.1638082935453694  1.0000
  H   H510      1.0  0.33393359752140106  0.7533260598978879  0.19668603831919393  1.0000
  H   H511      1.0  0.3337684097737789  0.7099539956443099  0.19979474670642566  1.0000
  H   H512      1.0  0.38972232139842355  0.7115234449958082  0.21829647440659755  1.0000
  H   H513      1.0  0.42000590556444706  0.7309563815494269  0.19570108307386033  1.0000
  H   H514      1.0  0.3897987201090389  0.7546971038425904  0.21512154070719103  1.0000
  H   H515      1.0  0.4056754315636988  0.7570276663443125  0.145720571930408  1.0000
  H   H516      1.0  0.37551332099914914  0.7806243807886787  0.16517220069869185  1.0000
  H   H517      1.0  0.3650549704395259  0.7560466638014202  0.13232529086615455  1.0000
  H   H518      1.0  0.3651980154815477  0.696030318891877  0.13685767508269012  1.0000
  H   H519      1.0  0.37516125164994973  0.6773455197138141  0.173095103299073  1.0000
  H   H520      1.0  0.40566124779179175  0.6967557632459905  0.15081907439635525  1.0000
  N   N23       1.0  0.6572663893434385  0.7779927062994414  0.32484121427734114  1.0000
  C   C473      1.0  0.6882575833820674  0.7645057416396658  0.3349680105565947  1.0000
  C   C474      1.0  0.6392302823283491  0.7528951792156483  0.30779382424143975  1.0000
  C   C475      1.0  0.662993202998644  0.806126173111527  0.3043773036529019  1.0000
  C   C476      1.0  0.6385936242930498  0.78839343884152  0.3522321538762953  1.0000
  H   H521      1.0  0.703091420360366  0.783216899372977  0.3467388047947959  1.0000
  H   H522      1.0  0.7024978446625934  0.7554535121565682  0.3148754346668969  1.0000
  H   H523      1.0  0.6849709280650228  0.7438823994033492  0.35126211834009335  1.0000
  H   H524      1.0  0.6154841026583461  0.7621289238440855  0.30025907280781255  1.0000
  H   H525      1.0  0.652462731004987  0.7446435124504904  0.2867933021883978  1.0000
  H   H526      1.0  0.6346467481681287  0.7312612231063728  0.3226014584880335  1.0000
  H   H527      1.0  0.640205447209081  0.8168462556778133  0.2959330498115741  1.0000
  H   H528      1.0  0.6777133464787742  0.7992990328265037  0.2838141658608172  1.0000
  H   H529      1.0  0.6760706513683815  0.8257155348006513  0.3167395434882654  1.0000
  H   H530      1.0  0.6149756822316669  0.7984858318422434  0.34538150830753644  1.0000
  H   H531      1.0  0.6513281615103907  0.8074526307073833  0.36566360895322964  1.0000
  H   H532      1.0  0.6337423709236808  0.7676929723515754  0.3680736585238686  1.0000
  N   N24       1.0  0.4425694628193421  0.523315033711006  0.06737107896193462  1.0000
  C   C477      1.0  0.4202282938505855  0.4962575408549753  0.0614947103442951  1.0000
  C   C478      1.0  0.4739172483125737  0.5101995774176363  0.07688664213778096  1.0000
  C   C479      1.0  0.42970349222348564  0.5442289303708363  0.09231494412444463  1.0000
  C   C480      1.0  0.4464858652368489  0.5425705503997514  0.038741056129629525  1.0000
  H   H533      1.0  0.3964736081221463  0.505192051098453  0.05363457115404002  1.0000
  H   H534      1.0  0.4164814667041392  0.48131357331215563  0.0826458891407964  1.0000
  H   H535      1.0  0.4293931968092244  0.4798069159723672  0.04301434107373803  1.0000
  H   H536      1.0  0.4843377361350775  0.494281434604861  0.058669805692610044  1.0000
  H   H537      1.0  0.4914410621101339  0.5299141247412695  0.08143743432431005  1.0000
  H   H538      1.0  0.4719897369014225  0.49556427029885863  0.09849295490167576  1.0000
  H   H539      1.0  0.44570275879669596  0.5652295333696129  0.09687691406071419  1.0000
  H   H540      1.0  0.42726895033191414  0.530683768791774  0.11451648093478806  1.0000
  H   H541      1.0  0.40576406131479303  0.5540614698660598  0.08620402372992553  1.0000
  H   H542      1.0  0.42328550173982327  0.5527203339657695  0.030691532472620686  1.0000
  H   H543      1.0  0.4561707584136447  0.5274592549286451  0.019549716319551047  1.0000
  H   H544      1.0  0.46335402111656515  0.5631025760468577  0.042188102174608  1.0000
  N   N25       1.0  0.24088261407365133  0.4897923114674422  0.2221368399124285  1.0000
  C   C481      1.0  0.25259519762258953  0.456012318754826  0.22283315208857865  1.0000
  C   C482      1.0  0.2248739514315823  0.4973308381933641  0.2518852198601648  1.0000
  C   C483      1.0  0.21785288316739004  0.493618826221804  0.19647083463448162  1.0000
  C   C484      1.0  0.2681346072311012  0.5120346099137543  0.2174060622193002  1.0000
  H   H545      1.0  0.2325931442060604  0.4387262865827105  0.2265672008735121  1.0000
  H   H546      1.0  0.27003728308783204  0.45219793042334133  0.24195215275209594  1.0000
  H   H547      1.0  0.2647515420312942  0.4491764622172652  0.20081652137652267  1.0000
  H   H548      1.0  0.20421986535042802  0.48084210863121607  0.2561223090208634  1.0000
  H   H549      1.0  0.24148614347352998  0.49442820892422096  0.2717698671695052  1.0000
  H   H550      1.0  0.21581850188586718  0.5226870359543262  0.2524005181437953  1.0000
  H   H551      1.0  0.20868227134510026  0.5189065760864178  0.19508085912766834  1.0000
  H   H552      1.0  0.19687492781582924  0.47738971498315436  0.19953871081140914  1.0000
  H   H553      1.0  0.22885748721930832  0.4874620342648005  0.1736981080930575  1.0000
  H   H554      1.0  0.2801524965679474  0.5076108943048568  0.19476093577480288  1.0000
  H   H555      1.0  0.28654891833866714  0.5088076177797152  0.23565679355312083  1.0000
  H   H556      1.0  0.2604999658180471  0.5378847073833295  0.21816156581852456  1.0000
  N   N26       1.0  0.5815274782075625  0.9864894368879565  0.9261255865491441  1.0000
  C   C485      1.0  0.5912438854707094  0.005940140719601509  0.9533286737025196  1.0000
  C   C486      1.0  0.6020465963026684  0.9947473283942726  0.8993446591518466  1.0000
  C   C487      1.0  0.5478520165769937  0.9936122055636913  0.9184493750417267  1.0000
  C   C488      1.0  0.5849320587223159  0.9516155668343157  0.9333218420888426  1.0000
  H   H557      1.0  0.5757901053115357  0.0008374558642758602  0.9737955931976936  1.0000
  H   H558      1.0  0.5896483101001199  0.03241759636394496  0.9487035872156996  1.0000
  H   H559      1.0  0.6163306260610826  0.0006777963621329431  0.9602192893163387  1.0000
  H   H560      1.0  0.6275665385207411  0.9891847178583864  0.9041465444859547  1.0000
  H   H561      1.0  0.5951988570991461  0.9805838747433858  0.8783764042049902  1.0000
  H   H562      1.0  0.6003145503391534  0.020931496954908393  0.8934198029429764  1.0000
  H   H563      1.0  0.5397817631801324  0.9792680143639682  0.8980425022731463  1.0000
  H   H564      1.0  0.5443360276403886  0.019740692936686753  0.9130808174312866  1.0000
  H   H565      1.0  0.531676306607073  0.9874867954165624  0.938107565413116  1.0000
  H   H566      1.0  0.5777821266765945  0.9361947841889154  0.9132864882046772  1.0000
  H   H567      1.0  0.569797803688429  0.944557268222558  0.9535087019877525  1.0000
  H   H568      1.0  0.6100927007059561  0.9452662051657996  0.9389489215417776  1.0000
  N   N27       1.0  0.09037409144054828  0.46745739206519943  0.9364657247068691  1.0000
  C   C489      1.0  0.11673717194963734  0.44926575711953926  0.9511530001867267  1.0000
  C   C490      1.0  0.07408496386362783  0.4463973412674579  0.9136992454909652  1.0000
  C   C491      1.0  0.10346219776446444  0.4962136063588738  0.9204255854227797  1.0000
  C   C492      1.0  0.06730433848899037  0.47792390316300015  0.9605323699477643  1.0000
  H   H569      1.0  0.12972845325685212  0.46456828680595164  0.9682180984674539  1.0000
  H   H570      1.0  0.13453297676999054  0.44095723397526543  0.9336141223503667  1.0000
  H   H571      1.0  0.10774790439928116  0.4275218113955344  0.9636379624822768  1.0000
  H   H572      1.0  0.06390530797735064  0.42444183970928345  0.9249449300584642  1.0000
  H   H573      1.0  0.05423048186753889  0.45940643462571906  0.9019329093918894  1.0000
  H   H574      1.0  0.09091001849519213  0.4380223913321943  0.8952720588287266  1.0000
  H   H575      1.0  0.11601067251264036  0.5126470351474655  0.9368595725947446  1.0000
  H   H576      1.0  0.08432037108630024  0.5105074101670181  0.9089603019372144  1.0000
  H   H577      1.0  0.12108059111509015  0.4891416313903205  0.9022279929284216  1.0000
  H   H578      1.0  0.04694208270419938  0.4915292495167629  0.9503102397168097  1.0000
  H   H579      1.0  0.07879911519121238  0.49411525087745095  0.9779099841365351  1.0000
  H   H580      1.0  0.0572271284997978  0.456890873112027  0.9734491652834502  1.0000
  N   N28       1.0  0.5988748684491197  0.669780685219003  0.669759299549809  1.0000
  C   C493      1.0  0.5706917198250185  0.6547047267665692  0.6550139759184659  1.0000
  C   C494      1.0  0.5887116868105423  0.6878937606169054  0.6977239897556539  1.0000
  C   C495      1.0  0.6142520924309008  0.6922791672736684  0.6476208326037541  1.0000
  C   C496      1.0  0.6218728856303561  0.6442148121802502  0.6786663402895957  1.0000
  H   H581      1.0  0.5774507605651891  0.6408915904639354  0.6338035231780733  1.0000
  H   H582      1.0  0.5526032668122308  0.6731887789164283  0.6483168214697415  1.0000
  H   H583      1.0  0.5586851410040727  0.6373456369168037  0.67099677347076  1.0000
  H   H584      1.0  0.6093550118114525  0.6995414232468777  0.7095036302277216  1.0000
  H   H585      1.0  0.5712048420076011  0.7073179001345593  0.6920096140082581  1.0000
  H   H586      1.0  0.5770655301387362  0.6716358740562266  0.7149791137202737  1.0000
  H   H587      1.0  0.6357033411829118  0.7039950169233086  0.6579455028831074  1.0000
  H   H588      1.0  0.5975851222994167  0.7119383221988936  0.6404742944646663  1.0000
  H   H589      1.0  0.6221769330884944  0.6794437654798494  0.6261858142030544  1.0000
  H   H590      1.0  0.6299795204893227  0.6299397029587203  0.6581821601845629  1.0000
  H   H591      1.0  0.6110213374775786  0.626785466541969  0.6953603095937819  1.0000
  H   H592      1.0  0.643422678277244  0.6546376311587101  0.6899678161890848  1.0000
  N   N29       1.0  0.7411203543635562  0.9761917162342023  0.8120676155896693  1.0000
  C   C497      1.0  0.7110525232610674  0.957571254494059  0.8141161816463691  1.0000
  C   C498      1.0  0.7563990741086885  0.9702528428043566  0.7816519656010519  1.0000
  C   C499      1.0  0.762931729698859  0.9658427738260964  0.8370502096076483  1.0000
  C   C500      1.0  0.7341128555847263  0.011160264415114007  0.8154450928455904  1.0000
  H   H593      1.0  0.6985651782096729  0.9619556104221066  0.8365461083181799  1.0000
  H   H594      1.0  0.7154684576194639  0.9310299256412552  0.8121714507116492  1.0000
  H   H595      1.0  0.6943578297713432  0.9643033973766525  0.795176408255378  1.0000
  H   H596      1.0  0.7795535421607723  0.9833654064177316  0.7796364412200338  1.0000
  H   H597      1.0  0.7611330907861252  0.9439709967871788  0.7779339030172984  1.0000
  H   H598      1.0  0.7408687866462952  0.9785060942831247  0.7622779331529446  1.0000
  H   H599      1.0  0.7857072567375614  0.979731116461978  0.836403593356202  1.0000
  H   H600      1.0  0.7689259667710969  0.9395880887902308  0.8352951452470984  1.0000
  H   H601      1.0  0.7520618540862971  0.9698204297038193  0.8602921698165353  1.0000
  H   H602      1.0  0.7561175348100395  0.02604205583987546  0.8126864333183774  1.0000
  H   H603      1.0  0.7240947576240226  0.016817425948873  0.8387788774677539  1.0000
  H   H604      1.0  0.7166779612569425  0.019566426127531605  0.7977677152520353  1.0000
  N   N30       1.0  0.8256148616708294  0.9839829365037572  0.2164756926282116  1.0000
  C   C501      1.0  0.8366996067658781  0.011496083453530802  0.19729786796446513  1.0000
  C   C502      1.0  0.8263264725910874  0.953801126089222  0.19797682708977768  1.0000
  C   C503      1.0  0.7925856993740408  0.9901846631726904  0.22714731879167346  1.0000
  C   C504      1.0  0.846772967883091  0.9804377790154343  0.2436216439344801  1.0000
  H   H605      1.0  0.836473759196861  0.03465079114638258  0.21068210484503838  1.0000
  H   H606      1.0  0.8212024937364588  0.01499424375709913  0.17665526990841696  1.0000
  H   H607      1.0  0.8616474902694644  0.007809691776968217  0.18896873997690664  1.0000
  H   H608      1.0  0.8174401490441086  0.9327704702148253  0.21172405107824507  1.0000
  H   H609      1.0  0.8107008486098801  0.9556713693948661  0.1771960902468512  1.0000
  H   H610      1.0  0.8509015624699368  0.9479379397455426  0.18986564856665894  1.0000
  H   H611      1.0  0.7756422440400875  0.9916255361552276  0.20734012994450426  1.0000
  H   H612      1.0  0.7909223166177952  0.013303743792428362  0.24037125289593422  1.0000
  H   H613      1.0  0.7839351435159756  0.9704229320870379  0.24262312438345846  1.0000
  H   H614      1.0  0.8384429199325769  0.9606559479322992  0.25929615023865377  1.0000
  H   H615      1.0  0.8474576355589931  0.0031665771458749825  0.2574951811333486  1.0000
  H   H616      1.0  0.8717320269783464  0.9747890138897463  0.23656251991416136  1.0000
  N   N31       1.0  0.28818050937229145  0.31277299154103305  0.7062934226707837  1.0000
  C   C505      1.0  0.2806207492404728  0.34564289523385494  0.6947495481172478  1.0000
  C   C506      1.0  0.2660385108448971  0.28904520410195433  0.6923033214930024  1.0000
  C   C507      1.0  0.2846097349191169  0.31209658966816883  0.7403864597543544  1.0000
  C   C508      1.0  0.32137950917370356  0.30421187933420535  0.6977913396577355  1.0000
  H   H617      1.0  0.2974404125686692  0.36407678759447987  0.704054415463441  1.0000
  H   H618      1.0  0.2560543942783891  0.35322769728843795  0.7015952505782072  1.0000
  H   H619      1.0  0.2819220318879489  0.3468448239188852  0.6689703548431489  1.0000
  H   H620      1.0  0.27250300011172496  0.26369929434973255  0.69863459272816  1.0000
  H   H621      1.0  0.24104641010271247  0.29325364577641694  0.699982258901803  1.0000
  H   H622      1.0  0.266508889423179  0.29036716332742357  0.6665161252673518  1.0000
  H   H623      1.0  0.2898308577375252  0.2875376956175149  0.7497977674868769  1.0000
  H   H624      1.0  0.25979673010001075  0.31862658819214834  0.7475498532708442  1.0000
  H   H625      1.0  0.3010650651872316  0.3296092221708455  0.7517552582899067  1.0000
  H   H626      1.0  0.3278254395852919  0.2794713340351407  0.7060310341251053  1.0000
  H   H627      1.0  0.33887821382304034  0.3216305683607995  0.7076534858864121  1.0000
  H   H628      1.0  0.3247178712646353  0.3040052938142662  0.6722127963898398  1.0000
  N   N32       1.0  0.41456496469229615  0.7727893090130207  0.680648759256078  1.0000
  C   C509      1.0  0.44310190936892413  0.7520764611506113  0.6766960646841158  1.0000
  C   C510      1.0  0.3863029976494805  0.7521529575521538  0.6864188933294635  1.0000
  C   C511      1.0  0.4095083923715122  0.7920782635783347  0.6521975129672072  1.0000
  C   C512      1.0  0.4193960627846195  0.794750236935536  0.7073381831862906  1.0000
  H   H629      1.0  0.4650689717387378  0.7667936540336591  0.6732282924449745  1.0000
  H   H630      1.0  0.4405439292278497  0.7356786293322883  0.656402981194535  1.0000
  H   H631      1.0  0.44714694076790673  0.7366188519314418  0.6974424339197973  1.0000
  H   H632      1.0  0.36422137997180726  0.7669463364118706  0.689163023501908  1.0000
  H   H633      1.0  0.38213703068333515  0.7349857806864202  0.6669244934347706  1.0000
  H   H634      1.0  0.3892782054498479  0.7373713891825812  0.7078127036602868  1.0000
  H   H635      1.0  0.4046476541180076  0.776270093919843  0.631774702478516  1.0000
  H   H636      1.0  0.4307012671885914  0.8072018454901502  0.6464555877251204  1.0000
  H   H637      1.0  0.3887730195492022  0.8088167525597033  0.6546185169265525  1.0000
  H   H638      1.0  0.39837159099779995  0.8108534870100171  0.7109950765021578  1.0000
  H   H639      1.0  0.44075709434242555  0.810426305174258  0.7039738243676172  1.0000
  H   H640      1.0  0.4232275474712578  0.780857948726842  0.7291726515496243  1.0000
  N   N33       1.0  0.703772797746781  0.3642171698715555  0.49349832208744804  1.0000
  C   C513      1.0  0.7239352246900056  0.3912496686387351  0.504544877654646  1.0000
  C   C514      1.0  0.7224464681526449  0.343540557213679  0.4720519332801416  1.0000
  C   C515      1.0  0.6756470774278653  0.3773382651335797  0.47706800047253145  1.0000
  C   C516      1.0  0.6929961005398596  0.34471683216336924  0.5202932388561282  1.0000
  H   H641      1.0  0.7106867313772515  0.40718889277608794  0.5210171647624614  1.0000
  H   H642      1.0  0.7325107833865554  0.4064913852801678  0.48494315909757146  1.0000
  H   H643      1.0  0.745306894669187  0.38216683135129453  0.5171105057996244  1.0000
  H   H644      1.0  0.7079920592653883  0.32279038415903455  0.4634652929556046  1.0000
  H   H645      1.0  0.7308491363610546  0.3573648304053106  0.4514151158164056  1.0000
  H   H646      1.0  0.743847213460267  0.3330553153339965  0.48363168883226737  1.0000
  H   H647      1.0  0.6597884845338463  0.35750467041679923  0.468749899706433  1.0000
  H   H648      1.0  0.68283916426014  0.39176687182484055  0.456366785535169  1.0000
  H   H649      1.0  0.66111460212292  0.3933039655590608  0.49241546451401286  1.0000
  H   H650      1.0  0.7134459680681036  0.332662949041029  0.5320525506005462  1.0000
  H   H651      1.0  0.676174931568301  0.32530798710197295  0.51299173051311  1.0000
  H   H652      1.0  0.6806460892149936  0.3599135878881763  0.5379991041183573  1.0000
  N   N34       1.0  0.759721795759862  0.18281724360824714  0.2997162854338502  1.0000
  C   C517      1.0  0.7735676700213281  0.1650618462129636  0.32624254685620513  1.0000
  C   C518      1.0  0.7667341832218593  0.2177898115416419  0.3028314056393265  1.0000
  C   C519      1.0  0.7247472671004098  0.17789732698552552  0.2991874393764608  1.0000
  C   C520      1.0  0.7738353299151647  0.17048551162166992  0.27054164133132674  1.0000
  H   H653      1.0  0.7678761430616725  0.13870543407738944  0.3250423998781404  1.0000
  H   H654      1.0  0.7642085190859144  0.17428832239310132  0.3487578897720392  1.0000
  H   H655      1.0  0.8000913844443553  0.16712970801039506  0.3266209909279438  1.0000
  H   H656      1.0  0.7559538686161467  0.23196464671332384  0.2835218730347139  1.0000
  H   H657      1.0  0.7570060478775726  0.2278778280573457  0.3248654000103311  1.0000
  H   H658      1.0  0.7929286888497957  0.22247388516054345  0.30246425810424155  1.0000
  H   H659      1.0  0.7135433066902162  0.19097672718956682  0.27941461062504586  1.0000
  H   H660      1.0  0.713300847949205  0.18690586814147303  0.32088962429491064  1.0000
  H   H661      1.0  0.7186343306074839  0.15172871810427768  0.2967936252669964  1.0000
  H   H662      1.0  0.7688147777932405  0.14417994373562237  0.26730287900883426  1.0000
  H   H663      1.0  0.8002720070146218  0.17336819214772325  0.27039007073785126  1.0000
  H   H664      1.0  0.7642996103352552  0.1836163322500588  0.2500161906128714  1.0000
  N   N35       1.0  0.8906536224817853  0.7348890544131459  0.4817557846249625  1.0000
  C   C521      1.0  0.8762639203584678  0.7254719548296243  0.5117750922110715  1.0000
  C   C522      1.0  0.8881619271984025  0.7076976606478118  0.4595235025957349  1.0000
  C   C523      1.0  0.9246681636773935  0.7429712901180653  0.48634533263881874  1.0000
  C   C524      1.0  0.873697028662776  0.7635246233661915  0.4693972921285661  1.0000
  H   H665      1.0  0.850499552834842  0.7192962168538038  0.5092291412524883  1.0000
  H   H666      1.0  0.8778822179694573  0.7455173494682058  0.529087285735244  1.0000
  H   H667      1.0  0.8885673804773017  0.7040097120730145  0.5218385104516969  1.0000
  H   H668      1.0  0.8991636450411437  0.7140081251133228  0.4367667311366797  1.0000
  H   H669      1.0  0.9010907639683285  0.6858307848172206  0.4680406022227671  1.0000
  H   H670      1.0  0.8628454902687509  0.7007586058824282  0.455378910277931  1.0000
  H   H671      1.0  0.9361142369821516  0.7511651240223077  0.4643708846619188  1.0000
  H   H672      1.0  0.9385307333599994  0.7216720422299476  0.49473594719140435  1.0000
  H   H673      1.0  0.9275546508664003  0.7627093237654049  0.5035361618941516  1.0000
  H   H674      1.0  0.8479004688757439  0.7583361414103202  0.4656062193559574  1.0000
  H   H675      1.0  0.8841553104190658  0.7715338875035386  0.44691981280419174  1.0000
  H   H676      1.0  0.8752409070781229  0.7844378237151002  0.48567739786455466  1.0000
  N   N36       1.0  0.7343604992519333  0.6205296494221332  0.9921530535919333  1.0000
  C   C525      1.0  0.7180140008659766  0.5921423151091727  0.9785512848904439  1.0000
  C   C526      1.0  0.7340142248021754  0.6475482726828587  0.969664524103845  1.0000
  C   C527      1.0  0.7677831586636059  0.6118858330787016  0.999394709737452  1.0000
  C   C528      1.0  0.7177284865553585  0.6304641666275111  0.02092214448343377  1.0000
  H   H677      1.0  0.7180667350590672  0.5712046621274857  0.9947967772833595  1.0000
  H   H678      1.0  0.7299187415954506  0.5841299530311463  0.9566950935812486  1.0000
  H   H679      1.0  0.6926530713719468  0.5976891405558833  0.9729763524301731  1.0000
  H   H680      1.0  0.7091680459368244  0.6547631685193283  0.9636570672565569  1.0000
  H   H681      1.0  0.7464222927889409  0.6693050554258503  0.9790106169953187  1.0000
  H   H682      1.0  0.7463474586117141  0.6406809447159036  0.9476445074596855  1.0000
  H   H683      1.0  0.7807372438361309  0.6324871063569186  0.01027847630202805  1.0000
  H   H684      1.0  0.7811010042979256  0.6049625863216156  0.9780409571546914  1.0000
  H   H685      1.0  0.7690603044242119  0.5910483340017543  0.015737078460744014  1.0000
  H   H686      1.0  0.7182108474172034  0.6108092607475555  0.03852858079424637  1.0000
  H   H687      1.0  0.6921650699178102  0.636360298474023  0.0166011978394196  1.0000
  H   H688      1.0  0.729101505071914  0.6521080834423001  0.031638977279807357  1.0000
  N   N37       1.0  0.053284408051652396  0.8423402015445011  0.5737581321449495  1.0000
  C   C529      1.0  0.04885911329076543  0.833890158064451  0.540758876053289  1.0000
  C   C530      1.0  0.06241147326503682  0.8768466151228378  0.5763727441013302  1.0000
  C   C531      1.0  0.07882765843012761  0.821866698283622  0.587035995733334  1.0000
  C   C532      1.0  0.023080716435650572  0.8367077059006117  0.590748190836896  1.0000
  H   H689      1.0  0.04184691871290035  0.8080322005445664  0.5379687076160246  1.0000
  H   H690      1.0  0.07136937319453376  0.8373104399512151  0.5273267953573015  1.0000
  H   H691      1.0  0.029886936311573402  0.8489073873828975  0.5297033984786544  1.0000
  H   H692      1.0  0.06611856170453012  0.884054537332949  0.6010073812415286  1.0000
  H   H693      1.0  0.08508031869772643  0.8818658542468317  0.5636682465514141  1.0000
  H   H694      1.0  0.04366639984381641  0.8929925079796146  0.5665363614775699  1.0000
  H   H695      1.0  0.10187037338532005  0.8253537115903065  0.574491352854565  1.0000
  H   H696      1.0  0.07283685196529927  0.7956155235396615  0.5852363745318948  1.0000
  H   H697      1.0  0.08300268415579926  0.8275710907108379  0.611939766273376  1.0000
  H   H698      1.0  0.02542668127799241  0.8431473410277517  0.6157173363124713  1.0000
  H   H699      1.0  0.01574122063773964  0.8108022911934175  0.589383653210047  1.0000
  H   H700      1.0  0.0031957931195294442  0.8514390779353253  0.5809317791278006  1.0000
  N   N38       1.0  0.9317297399363289  0.23217264486684203  0.3619950762385726  1.0000
  C   C533      1.0  0.9492338998448117  0.2137888665371465  0.3859530921093442  1.0000
  C   C534      1.0  0.9496917066355062  0.2308571069449672  0.33248256115841046  1.0000
  C   C535      1.0  0.9281598984203232  0.2662788146553178  0.3719629829743082  1.0000
  C   C536      1.0  0.8998021326650318  0.21768039108606943  0.35756044055054687  1.0000
  H   H701      1.0  0.9364464399554117  0.21434311472808304  0.4086162820745899  1.0000
  H   H702      1.0  0.9734523346139138  0.22411848059497572  0.3899475219189785  1.0000
  H   H703      1.0  0.9523395641444179  0.18793412152288355  0.37919545494612755  1.0000
  H   H704      1.0  0.9374608566684957  0.2448492082236445  0.31392276223958526  1.0000
  H   H705      1.0  0.9742474784722033  0.24085451024259935  0.33515864856650723  1.0000
  H   H706      1.0  0.9520032032235906  0.20548194888206803  0.32396810425703754  1.0000
  H   H707      1.0  0.9156394653929933  0.2810258613541173  0.35417038976375353  1.0000
  H   H708      1.0  0.9517905163833086  0.27767720056091405  0.3764573634204035  1.0000
  H   H709      1.0  0.9142279571668189  0.2681483559726426  0.39394043379542326  1.0000
  H   H710      1.0  0.886229843093179  0.2304813618366109  0.3390676584047175  1.0000
  H   H711      1.0  0.8854250413962974  0.21870205285261238  0.3792884095179136  1.0000
  H   H712      1.0  0.9017325353512181  0.19179695584901324  0.3505515368372695  1.0000
  N   N39       1.0  0.4926784357894982  0.5457637891831707  0.8166049584848778  1.0000
  C   C537      1.0  0.47713127476361866  0.570187754704904  0.8367145697885987  1.0000
  C   C538      1.0  0.5249399376972123  0.5571214590439364  0.8078386733443822  1.0000
  C   C539      1.0  0.4733433594030933  0.5409705173837065  0.7883446219333624  1.0000
  C   C540      1.0  0.49527462793111876  0.5147127914397795  0.8334983399278968  1.0000
  H   H713      1.0  0.45300478390327753  0.5620401437403051  0.8442759582844717  1.0000
  H   H714      1.0  0.4740346309577484  0.5936999883555987  0.8244269961576601  1.0000
  H   H715      1.0  0.4912640327918632  0.5749237711426275  0.8580519825372628  1.0000
  H   H716      1.0  0.5377245904154163  0.5387093175223303  0.7935611500479091  1.0000
  H   H717      1.0  0.5238522659014626  0.5798871596591075  0.7939770934062721  1.0000
  H   H718      1.0  0.5399237495737614  0.5619959681230178  0.8285795266656816  1.0000
  H   H719      1.0  0.4485991115095904  0.5331055027281432  0.7940481442376375  1.0000
  H   H720      1.0  0.48397491301932527  0.5222182642448029  0.7729144581308791  1.0000
  H   H721      1.0  0.47132847285557544  0.5637491086473226  0.774647902077549  1.0000
  H   H722      1.0  0.5069719439654943  0.49572987948699526  0.8189439269459511  1.0000
  H   H723      1.0  0.47129891934315815  0.5054432551399012  0.84039896828052  1.0000
  H   H724      1.0  0.5096653205157596  0.517439231279213  0.8550138605189845  1.0000
  N   N40       1.0  0.678318142978585  0.8360514316768103  0.5040113707220948  1.0000
  C   C541      1.0  0.6477790429462125  0.8196148414361898  0.5109995654361984  1.0000
  C   C542      1.0  0.700831499459378  0.8310580886332188  0.5299426503609159  1.0000
  C   C543      1.0  0.6725355374875621  0.8711298837643976  0.4998247291905652  1.0000
  C   C544      1.0  0.6920605452339471  0.8223714040070677  0.4752228903951704  1.0000
  H   H725      1.0  0.6513083726734479  0.7931314609818826  0.5141338998261992  1.0000
  H   H726      1.0  0.6302385102648232  0.8228153282166324  0.49186909919783744  1.0000
  H   H727      1.0  0.6366603125968181  0.829209817985928  0.5325810481519497  1.0000
  H   H728      1.0  0.7240679900418815  0.8434019230297194  0.525673653813371  1.0000
  H   H729      1.0  0.691116345231411  0.8407892173124488  0.5521367121392484  1.0000
  H   H730      1.0  0.7060239396710934  0.8048737186014839  0.533547697067161  1.0000
  H   H731      1.0  0.6950695489697075  0.8842729214975129  0.4943758868197613  1.0000
  H   H732      1.0  0.6622051469853761  0.8822347650336582  0.5211360059089681  1.0000
  H   H733      1.0  0.6555500951726649  0.875733342054907  0.4804555220113312  1.0000
  H   H734      1.0  0.6970506865651279  0.7959862566725627  0.4777332295872262  1.0000
  H   H735      1.0  0.714991795075007  0.8343864521809944  0.4690426374091489  1.0000
  H   H736      1.0  0.6754093397442136  0.8254127314129319  0.45529607652008297  1.0000
  N   N41       1.0  0.22274408915013577  0.42774461881389236  0.040184651403921766  1.0000
  C   C545      1.0  0.22579211293522358  0.4121017849870594  0.07085069710741965  1.0000
  C   C546      1.0  0.219576129770671  0.40261913687024015  0.015927866866807777  1.0000
  C   C547      1.0  0.2514533139761363  0.44751971000851626  0.033880167070290096  1.0000
  C   C548      1.0  0.19409522280379113  0.4487263263716333  0.040025131949546794  1.0000
  H   H737      1.0  0.2268942000993926  0.43044766237361914  0.08979327402951717  1.0000
  H   H738      1.0  0.24762806825343353  0.3967970285336101  0.07225308255624135  1.0000
  H   H739      1.0  0.2048604603297671  0.3962984917983246  0.07596195364226731  1.0000
  H   H740      1.0  0.2408193767333985  0.3863690776668792  0.015364586824675803  1.0000
  H   H741      1.0  0.19809688649381121  0.38726504551293534  0.019967904090959228  1.0000
  H   H742      1.0  0.21721232874384777  0.41370508299827435  0.9924955654966454  1.0000
  H   H743      1.0  0.2504160098529702  0.4587895167442229  0.010473803939541419  1.0000
  H   H744      1.0  0.27370739377415554  0.4327896573648518  0.03469299102275387  1.0000
  H   H745      1.0  0.2540078587621659  0.4675939720021263  0.050993873973790516  1.0000
  H   H746      1.0  0.19100233470942055  0.46101719586432  0.017290643565771768  1.0000
  H   H747      1.0  0.19554179398117286  0.4679541151470602  0.05812663246889775  1.0000
  H   H748      1.0  0.17201872326877035  0.4345800708563347  0.04489720876743757  1.0000
  N   N42       1.0  0.7148273369333824  0.8146575224198918  0.7278589376659469  1.0000
  C   C549      1.0  0.7239425449275502  0.7827459633712944  0.7406560692928185  1.0000
  C   C550      1.0  0.7292273570297487  0.8406522042961821  0.746833970981642  1.0000
  C   C551      1.0  0.679692945557285  0.8179636124563762  0.7284336032632567  1.0000
  C   C552      1.0  0.7263876154855917  0.8172805621777196  0.6955620548547282  1.0000
  H   H749      1.0  0.7137174219146617  0.7625607437880831  0.7266787315757228  1.0000
  H   H750      1.0  0.7154151592774812  0.7797879343470672  0.7649445093699604  1.0000
  H   H751      1.0  0.7503552057813245  0.7793988474642977  0.7404998972565544  1.0000
  H   H752      1.0  0.7226194480074803  0.8650467561764538  0.7379348501743731  1.0000
  H   H753      1.0  0.7209839125857969  0.839342620525014  0.7713643421083696  1.0000
  H   H754      1.0  0.7557702349554924  0.8390373275519335  0.7467243528265006  1.0000
  H   H755      1.0  0.6718480754338664  0.8419503890929376  0.7193738297959508  1.0000
  H   H756      1.0  0.6701279023188581  0.8156002251487019  0.7524251448969199  1.0000
  H   H757      1.0  0.6678766186071259  0.7989618257280996  0.714172152702814  1.0000
  H   H758      1.0  0.7194830557025726  0.8407991736009525  0.6850449492796828  1.0000
  H   H759      1.0  0.7164039318416877  0.7976910977222945  0.6806921566674757  1.0000
  H   H760      1.0  0.7528799602380386  0.8152590436934796  0.6942381314743149  1.0000
  N   N43       1.0  0.27753622608740264  0.8544318206214702  0.439825200507743  1.0000
  C   C553      1.0  0.27838014740455974  0.868292378982414  0.47143766264653886  1.0000
  C   C554      1.0  0.30656861758045123  0.834767962289494  0.43445822975748444  1.0000
  C   C555      1.0  0.2762385269222739  0.8809718046736259  0.41685064274163086  1.0000
  C   C556      1.0  0.24896518663233477  0.833653503135344  0.4365457143474467  1.0000
  H   H761      1.0  0.2990338474607585  0.8849378756195004  0.47450221193708353  1.0000
  H   H762      1.0  0.28044702503452923  0.8489659435063133  0.4893074762819567  1.0000
  H   H763      1.0  0.25616828364647826  0.8821460498926154  0.4767125609464436  1.0000
  H   H764      1.0  0.3066226468663375  0.8240200000134146  0.41075116719647076  1.0000
  H   H765      1.0  0.32860247274418763  0.8496594205626785  0.4368199319430964  1.0000
  H   H766      1.0  0.308219216088378  0.8144826548103334  0.4514030217898582  1.0000
  H   H767      1.0  0.27549580889329534  0.8713683603716672  0.39269971341214543  1.0000
  H   H768      1.0  0.2973541684732315  0.8972242346509329  0.4185745324881728  1.0000
  H   H769      1.0  0.25440745927532743  0.8960979267600402  0.4200291274619711  1.0000
  H   H770      1.0  0.24721179859757933  0.8232054920451679  0.41279031256669635  1.0000
  H   H771      1.0  0.22655811674987977  0.8476050830856817  0.440723537660271  1.0000
  H   H772      1.0  0.24924771796426182  0.8131890692742836  0.453305511871113  1.0000
  N   N44       1.0  0.9626387059186947  0.24816016585216152  0.8791680653671785  1.0000
  C   C557      1.0  0.9703027179044529  0.25802484579485324  0.9112347670740125  1.0000
  C   C558      1.0  0.9282514567204643  0.2403705628500738  0.8769125361279015  1.0000
  C   C559      1.0  0.9817318988140752  0.21925720175228963  0.8707976157881043  1.0000
  C   C560      1.0  0.970290083836547  0.2749771229880442  0.8577073991894674  1.0000
  H   H773      1.0  0.9961142010709017  0.26406393184915955  0.9136225412096842  1.0000
  H   H774      1.0  0.9647920586218078  0.23829029984048314  0.9280033606247725  1.0000
  H   H775      1.0  0.9563400131210541  0.2797977559034891  0.9183506577649521  1.0000
  H   H776      1.0  0.9216129846099446  0.23315851132760526  0.852880215515154  1.0000
  H   H777      1.0  0.9216323489434621  0.21970232988191818  0.8922297088409792  1.0000
  H   H778      1.0  0.9130226129368949  0.2614389682895136  0.8833895425718434  1.0000
  H   H779      1.0  0.9763509901170584  0.1983643886961936  0.8862389203598794  1.0000
  H   H780      1.0  0.007861462400854613  0.2242255317774314  0.8719598894531059  1.0000
  H   H781      1.0  0.9767123574937061  0.2112160626134302  0.8467360782291123  1.0000
  H   H782      1.0  0.9962251682690716  0.28099411612746333  0.8580963852793524  1.0000
  H   H783      1.0  0.9568252646322798  0.29742659617042516  0.863614358930612  1.0000
  H   H784      1.0  0.9641231655872587  0.2685128851347596  0.8334037338358976  1.0000
  N   N45       1.0  0.9372712638593125  0.5913761510398958  0.8902482438129066  1.0000
  C   C561      1.0  0.9611926110899299  0.6162207869982671  0.8818394974158362  1.0000
  C   C562      1.0  0.9223818360610667  0.600182908781547  0.920207363350037  1.0000
  C   C563      1.0  0.953033993305244  0.5594039307216045  0.8926746016148188  1.0000
  C   C564      1.0  0.9123563436733881  0.589797756557077  0.8661341877989167  1.0000
  H   H785      1.0  0.9729693231923521  0.6104565065303449  0.859347674026962  1.0000
  H   H786      1.0  0.9802288104214052  0.6181209864186709  0.89968047608246  1.0000
  H   H787      1.0  0.949971067028065  0.640623621308395  0.8794430796056079  1.0000
  H   H788      1.0  0.9398565816856828  0.5988932923194826  0.9395540785892004  1.0000
  H   H789      1.0  0.9125929468711592  0.6252350273857424  0.9196178091837788  1.0000
  H   H790      1.0  0.9022583116496125  0.5836669671816078  0.9260707252672093  1.0000
  H   H791      1.0  0.9353223892304995  0.5398647060211281  0.8972083247831388  1.0000
  H   H792      1.0  0.9706593973826658  0.5588919163747367  0.9119226632648185  1.0000
  H   H793      1.0  0.9658511142576541  0.553016017198183  0.8708183611371755  1.0000
  H   H794      1.0  0.8927122364649752  0.5729884990949226  0.8727545621646032  1.0000
  H   H795      1.0  0.9223056469577411  0.5812168677287627  0.8436953193274953  1.0000
  H   H796      1.0  0.9016134940554569  0.6139756389559862  0.8620651587462189  1.0000
  N   N46       1.0  0.8487398358887127  0.36347047019686907  0.21303523252201662  1.0000
  C   C565      1.0  0.8605123191206031  0.3900301124171692  0.1930630327317812  1.0000
  C   C566      1.0  0.8503525257173263  0.3737304842144979  0.24584915341506258  1.0000
  C   C567      1.0  0.8686833359584253  0.33424700053094775  0.20840509286905165  1.0000
  C   C568      1.0  0.8153014769740998  0.35593980128497754  0.20484148769213237  1.0000
  H   H797      1.0  0.8460275735013563  0.412501193409099  0.1963740447646778  1.0000
  H   H798      1.0  0.8592358587969571  0.38340038359942574  0.16808422990029642  1.0000
  H   H799      1.0  0.885742661922312  0.39631568375086795  0.1984657116343515  1.0000
  H   H800      1.0  0.8418927253058286  0.354230933558589  0.2616642679390937  1.0000
  H   H801      1.0  0.8751618004805578  0.38008832278061006  0.25273483285603376  1.0000
  H   H802      1.0  0.8352208807885108  0.39554427779102763  0.2502108365731635  1.0000
  H   H803      1.0  0.8600393395011371  0.3136540695643463  0.22285737789278848  1.0000
  H   H804      1.0  0.8940355347237292  0.3388283497561999  0.21474277772089198  1.0000
  H   H805      1.0  0.8682016596981502  0.32598897838573954  0.18383117315612604  1.0000
  H   H806      1.0  0.8052240317211252  0.33674069523343825  0.22004652817681616  1.0000
  H   H807      1.0  0.8131696075104186  0.3472744827507935  0.18050411873795813  1.0000
  H   H808      1.0  0.799753753904741  0.3776406553041469  0.20730962644042605  1.0000
  N   N47       1.0  0.4506142177459295  0.7464566164528227  0.35515400012979553  1.0000
  C   C569      1.0  0.4602117868776702  0.7385790258143281  0.3230200235037934  1.0000
  C   C570      1.0  0.46924409730080896  0.7263538466841775  0.3769275362664689  1.0000
  C   C571      1.0  0.4161891176256014  0.7397621567479112  0.3593527765986745  1.0000
  C   C572      1.0  0.45686789662666766  0.7811345282232183  0.3613070605329319  1.0000
  H   H809      1.0  0.446899961025876  0.75358708760903  0.3059495236460734  1.0000
  H   H810      1.0  0.45524931822451753  0.7127080039693512  0.3173699264329979  1.0000
  H   H811      1.0  0.48618741503552015  0.7428533868530481  0.31928697639105136  1.0000
  H   H812      1.0  0.4618758288137955  0.7307560343517998  0.40135585577550464  1.0000
  H   H813      1.0  0.46606399102811935  0.7000301832442517  0.3720785682478851  1.0000
  H   H814      1.0  0.4952113647308044  0.7318481237999678  0.3753101319886252  1.0000
  H   H815      1.0  0.41038663668827446  0.7140570110277722  0.35375360547883467  1.0000
  H   H816      1.0  0.4013554231115252  0.7551993230012229  0.34386128364985546  1.0000
  H   H817      1.0  0.4084021637597431  0.7446000418843904  0.38362010275677044  1.0000
  H   H818      1.0  0.44993523435648447  0.7879420768186144  0.38538129042238317  1.0000
  H   H819      1.0  0.44314305700183604  0.7969761980883  0.34525584371835083  1.0000
  H   H820      1.0  0.4826495700809363  0.7870222465025924  0.358442126547223  1.0000
  N   N48       1.0  0.7148251955839501  0.915981947543656  0.011136763047958187  1.0000
  C   C573      1.0  0.7014741211318818  0.8971628556986935  0.9850354712944731  1.0000
  C   C574      1.0  0.7230918698066469  0.8937949370372237  0.03680970832047348  1.0000
  C   C575      1.0  0.6907659111540971  0.9395663885771876  0.02211570702193244  1.0000
  C   C576      1.0  0.7437627129880436  0.9334648236680025  0.000734484975530636  1.0000
  H   H821      1.0  0.6938570756971816  0.9133319615811063  0.9658182923176137  1.0000
  H   H822      1.0  0.6801292373462987  0.8829804153837552  0.9924019762066821  1.0000
  H   H823      1.0  0.7193271208800622  0.8798258971939581  0.9753525705313161  1.0000
  H   H824      1.0  0.7331066229924746  0.9072654642624699  0.05696823744777468  1.0000
  H   H825      1.0  0.7016077764844165  0.8805916481093785  0.045489191740330615  1.0000
  H   H826      1.0  0.7410730018185253  0.8754451119510648  0.02943098154564927  1.0000
  H   H827      1.0  0.6999058503894157  0.953720883761508  0.042093842952865  1.0000
  H   H828      1.0  0.668589683069418  0.9271789945534198  0.029991745090063082  1.0000
  H   H829      1.0  0.6841178500107026  0.9571970276771385  0.0036873849542062853  1.0000
  H   H830      1.0  0.7550261871257655  0.9470536986401502  0.02016590235932414  1.0000
  H   H831      1.0  0.7381105716235515  0.9515164247376305  0.9823715282482087  1.0000
  H   H832      1.0  0.7620685421580757  0.9165808719431848  0.9911471679783375  1.0000
  N   N49       1.0  0.3746015695818177  0.0018212552322129927  0.19638638974032965  1.0000
  C   C577      1.0  0.40453291120514867  0.0019603780575179197  0.21450141644191958  1.0000
  C   C578      1.0  0.38213340061940576  0.9959274566456311  0.16335947112380625  1.0000
  C   C579      1.0  0.3584411398350346  0.03352931269362003  0.19962690541796546  1.0000
  C   C580      1.0  0.35333300044719496  0.9759597494749016  0.2081026682104548  1.0000
  H   H833      1.0  0.42117141490232984  0.021226244136398176  0.20624976968026376  1.0000
  H   H834      1.0  0.41736008923084944  0.9784088470209961  0.21264241037604595  1.0000
  H   H835      1.0  0.3997502179593438  0.006399313870977252  0.23957800969082402  1.0000
  H   H836      1.0  0.3601385429123783  0.9959329819155596  0.14892774803179618  1.0000
  H   H837      1.0  0.3983135374669946  0.015062743313889904  0.1540440543296274  1.0000
  H   H838      1.0  0.394329213421028  0.9721894460139393  0.16002050448360322  1.0000
  H   H839      1.0  0.33538249162971173  0.034148413397662836  0.18690045841445135  1.0000
  H   H840      1.0  0.3735090207464058  0.05362603017920575  0.1906335797344378  1.0000
  H   H841      1.0  0.3531759791463315  0.039151774592127264  0.2242842941266659  1.0000
  H   H842      1.0  0.36477645731701347  0.9516580654201592  0.2064439340521334  1.0000
  H   H843      1.0  0.3304459660667125  0.975085406151458  0.1950722848248305  1.0000
  H   H844      1.0  0.34714243992092353  0.9799319905332591  0.23291838399723752  1.0000
  N   N50       1.0  0.4214202276545335  0.22112610721038634  0.8748143054669623  1.0000
  C   C581      1.0  0.4160098033208556  0.2297203195374117  0.9076883538742292  1.0000
  C   C582      1.0  0.393609632515409  0.20288429622516974  0.8629730097792049  1.0000
  C   C583      1.0  0.450434696777369  0.20086203492500646  0.8722040243349134  1.0000
  C   C584      1.0  0.42571535506936203  0.25099380416579875  0.8563709110766322  1.0000
  H   H845      1.0  0.39428673453985175  0.24503318987703707  0.9105568353047038  1.0000
  H   H846      1.0  0.43663348525308443  0.24344591964706846  0.9173235771639311  1.0000
  H   H847      1.0  0.4127006038937644  0.2076331242235202  0.9222087649955086  1.0000
  H   H848      1.0  0.39737786084688004  0.19493734222763176  0.8385053460803369  1.0000
  H   H849      1.0  0.3890906834720871  0.18071658677901042  0.8770022806594937  1.0000
  H   H850      1.0  0.37142434482345704  0.21772634574164526  0.8636582593665723  1.0000
  H   H851      1.0  0.45491223493303845  0.1936074364324077  0.8477500031489708  1.0000
  H   H852      1.0  0.4483836506272242  0.17832588716135603  0.886188282813686  1.0000
  H   H853      1.0  0.4721064915634942  0.2141455733025231  0.8801122912246049  1.0000
  H   H854      1.0  0.42990127946767387  0.24526197563747648  0.8314489722991641  1.0000
  H   H855      1.0  0.4468561255238862  0.26509121024509147  0.86436782411655  1.0000
  H   H856      1.0  0.40443376873845854  0.26708364960154685  0.8578786896331659  1.0000
  N   N51       1.0  0.18949673670920142  0.9486243701024096  0.0737176681449421  1.0000
  C   C585      1.0  0.16087626295498325  0.9422384813820794  0.054665162802656604  1.0000
  C   C586      1.0  0.1989779168157684  0.918555347622874  0.08988864697252229  1.0000
  C   C587      1.0  0.1821585522858227  0.9740623565193406  0.09683278696832402  1.0000
  C   C588      1.0  0.21588023774266005  0.9596988286290574  0.05349594232833877  1.0000
  H   H857      1.0  0.15232151363908591  0.9646036233078837  0.04304037631631333  1.0000
  H   H858      1.0  0.140712496879122  0.9330558868549229  0.0689891167315053  1.0000
  H   H859      1.0  0.16568869223597682  0.9238951212664163  0.03632423726939631  1.0000
  H   H860      1.0  0.22040235377426823  0.9224521049885911  0.104635785359701  1.0000
  H   H861      1.0  0.17947249189362247  0.9096898933236774  0.10535019209295919  1.0000
  H   H862      1.0  0.20449860411466  0.8987536795422982  0.07317366055810672  1.0000
  H   H863      1.0  0.20308822569208532  0.9793025007438588  0.11185433751667491  1.0000
  H   H864      1.0  0.1621492745842884  0.9665886825264155  0.11230452869937085  1.0000
  H   H865      1.0  0.1750812955350132  0.9971816388026568  0.08541141668898952  1.0000
  H   H866      1.0  0.2378676132844506  0.9649717666585185  0.0670370922227854  1.0000
  H   H867      1.0  0.2093340253967523  0.9823463060227318  0.0410412669028248  1.0000
  H   H868      1.0  0.222044621228154  0.9412369316596425  0.035617339020290406  1.0000
  N   N52       1.0  0.2832949417095373  0.5415803938387924  0.8258092370616948  1.0000
  C   C589      1.0  0.29992874899682714  0.5697027174048177  0.8396475528566992  1.0000
  C   C590      1.0  0.30695875848311627  0.5163420376519389  0.8176310493924661  1.0000
  C   C591      1.0  0.2662121650677805  0.5519328410222102  0.7975560023480842  1.0000
  C   C592      1.0  0.26009740964670236  0.5282640180341042  0.8483371380333303  1.0000
  H   H869      1.0  0.31791407592711884  0.5801061796894278  0.8233766491435068  1.0000
  H   H870      1.0  0.3129577101246679  0.5627780329919133  0.8611382104241659  1.0000
  H   H871      1.0  0.2829146575345428  0.5893544544153322  0.8460285318472718  1.0000
  H   H872      1.0  0.32174089666359235  0.5095226609146389  0.8380332013323514  1.0000
  H   H873      1.0  0.2951695730117246  0.4937366089408233  0.8093631511305419  1.0000
  H   H874      1.0  0.3235513297823989  0.5247556523686945  0.7991473124531641  1.0000
  H   H875      1.0  0.2537678594669061  0.5311315990644674  0.7863651935087951  1.0000
  H   H876      1.0  0.2829681092442841  0.5624152031021683  0.7801455765474414  1.0000
  H   H877      1.0  0.24785808437359846  0.5706738971808337  0.8029427984905364  1.0000
  H   H878      1.0  0.24648952862695805  0.507545367118915  0.8383542977427733  1.0000
  H   H879      1.0  0.24248722887715604  0.5468581641427803  0.8559783886724305  1.0000
  H   H880      1.0  0.2723220354765594  0.5189430826296537  0.8693615356741771  1.0000
  N   N53       1.0  0.10601677379756169  0.891460352258131  0.30357401819717017  1.0000
  C   C593      1.0  0.10364281975930867  0.8564062896556129  0.2968233949857537  1.0000
  C   C594      1.0  0.11912509515935588  0.9084042505284884  0.27618857740275565  1.0000
  C   C595      1.0  0.12731964660396544  0.8966330177828399  0.3304202625870331  1.0000
  C   C596      1.0  0.07393171439297341  0.9043592181777731  0.31090210191576606  1.0000
  H   H881      1.0  0.09236396172202288  0.8430455798347508  0.3164404537926568  1.0000
  H   H882      1.0  0.12765937203144562  0.8455104477657615  0.29272108090059223  1.0000
  H   H883      1.0  0.08899524293810668  0.8516899126484258  0.27581920912672564  1.0000
  H   H884      1.0  0.12236054453039724  0.9347926085707997  0.2806358246478673  1.0000
  H   H885      1.0  0.14296888018624587  0.8986141645694546  0.2696108179916806  1.0000
  H   H886      1.0  0.1034793721974403  0.9057269647492068  0.25552869709326165  1.0000
  H   H887      1.0  0.12956383457823772  0.9227862533794025  0.3363452325714117  1.0000
  H   H888      1.0  0.15189244610095387  0.8875866489520468  0.32568724617126443  1.0000
  H   H889      1.0  0.11845207309163075  0.8836874199993495  0.3513936290959022  1.0000
  H   H890      1.0  0.05715457333210505  0.9006328671164423  0.291247719878304  1.0000
  H   H891      1.0  0.07485525725313713  0.9307965471079577  0.3159990005275003  1.0000
  H   H892      1.0  0.06354771089707345  0.8920673668259104  0.33161662605656833  1.0000
  N   N54       1.0  0.21763229382123683  0.6941165232067416  0.559854246685142  1.0000
  C   C597      1.0  0.23016456399308613  0.660891479882014  0.5640462592802871  1.0000
  C   C598      1.0  0.20788684206287555  0.7073764260925152  0.5903041507080261  1.0000
  C   C599      1.0  0.18979111496076226  0.693480209960257  0.5388226675173118  1.0000
  C   C600      1.0  0.2428845408997374  0.714762999445888  0.5463349819644375  1.0000
  H   H893      1.0  0.23816367186804568  0.6502124948775555  0.5416219663612691  1.0000
  H   H894      1.0  0.21175967167918816  0.6445319695932105  0.574140374995476  1.0000
  H   H895      1.0  0.2511301940537486  0.6607224433818146  0.5799988196137037  1.0000
  H   H896      1.0  0.18910858805941252  0.6922080787363318  0.601387840694369  1.0000
  H   H897      1.0  0.22851343856643136  0.708550346842569  0.6065830318748084  1.0000
  H   H898      1.0  0.1981188795508807  0.7323433958935023  0.5880602370248362  1.0000
  H   H899      1.0  0.18035602114954358  0.7183313816709592  0.5345710374513369  1.0000
  H   H900      1.0  0.16985526123479605  0.67883692014215  0.5486018873768569  1.0000
  H   H901      1.0  0.19615529032992182  0.6830633181026323  0.5158032195379455  1.0000
  H   H902      1.0  0.2347081044755899  0.7402898868826906  0.5437183675413793  1.0000
  H   H903      1.0  0.2503130038997271  0.7060564525541536  0.5229837628528679  1.0000
  H   H904      1.0  0.2645251724826925  0.7149750516379265  0.5612443348426042  1.0000
  N   N55       1.0  0.6117366470712128  0.002129370175508269  0.6765584447333465  1.0000
  C   C601      1.0  0.6141202987901717  0.032289346748139894  0.6949680457662403  1.0000
  C   C602      1.0  0.643146348571733  0.9856805658173624  0.6758515437648179  1.0000
  C   C603      1.0  0.6017548239524044  0.010109667317865414  0.6446233472685148  1.0000
  C   C604      1.0  0.5878188133346521  0.9804285773727013  0.690848190377371  1.0000
  H   H905      1.0  0.5906313401078194  0.04500662942674764  0.6965309371271727  1.0000
  H   H906      1.0  0.6315357682478777  0.049572884925294866  0.6846337150516286  1.0000
  H   H907      1.0  0.6219899671179457  0.027215254029628242  0.7191056163313099  1.0000
  H   H908      1.0  0.6423038237905724  0.9629745266508644  0.6619006041148561  1.0000
  H   H909      1.0  0.6619655001690948  0.0014382096744967046  0.6655833878718642  1.0000
  H   H910      1.0  0.6511552533614333  0.9788917215946612  0.6995952113981806  1.0000
  H   H911      1.0  0.5995058757204357  0.98788742592859  0.630110894078607  1.0000
  H   H912      1.0  0.6192919167138156  0.026426732581688032  0.6330695280715982  1.0000
  H   H913      1.0  0.5781434878843955  0.022627573090058306  0.6444737899328556  1.0000
  H   H914      1.0  0.5945299194808089  0.973968367024046  0.714997246953648  1.0000
  H   H915      1.0  0.5852189987001248  0.9573651155462415  0.6776953112161457  1.0000
  H   H916      1.0  0.5637860120867896  0.9920372712019319  0.6920280277334605  1.0000
  N   N56       1.0  0.37329395876612415  0.021756266139830983  0.8180638328195481  1.0000
  C   C605      1.0  0.40191642607561645  0.030310225121551893  0.7996329307620563  1.0000
  C   C606      1.0  0.34585477645254625  0.04144048148391858  0.8075618773594231  1.0000
  C   C607      1.0  0.3794469990507314  0.028290949215603604  0.851210031074809  1.0000
  C   C608      1.0  0.3658351889452206  0.9869952238426445  0.8139353699774385  1.0000
  H   H917      1.0  0.40795996422581904  0.056527230528827584  0.8021518138060458  1.0000
  H   H918      1.0  0.39814273012523627  0.025689747991040027  0.7744798350161888  1.0000
  H   H919      1.0  0.4231959581081348  0.01611864918091057  0.8070382541099264  1.0000
  H   H920      1.0  0.3398373756479583  0.03629919387137784  0.782937335692397  1.0000
  H   H921      1.0  0.32412001425286785  0.03655516131808063  0.8218120530683981  1.0000
  H   H922      1.0  0.35112006713394966  0.06780288014227381  0.8091877763443034  1.0000
  H   H923      1.0  0.39882760940516493  0.012595701685026769  0.8604435508169966  1.0000
  H   H924      1.0  0.35770762082367374  0.023933168059719158  0.8655488212924157  1.0000
  H   H925      1.0  0.3868200248538139  0.05381627065982314  0.8550377124646747  1.0000
  H   H926      1.0  0.34437902355481037  0.9799222983840333  0.827738048210466  1.0000
  H   H927      1.0  0.3859831997625654  0.9713580849902805  0.8216390557980908  1.0000
  H   H928      1.0  0.36084044066223914  0.9811211977378184  0.7892353315308315  1.0000
  N   N57       1.0  0.02401295742541598  0.06576127728624037  0.2461166282389723  1.0000
  C   C609      1.0  0.020080552280898  0.03462382064246672  0.2625809333901053  1.0000
  C   C610      1.0  0.04263842136988205  0.06055995687393745  0.21734433454362895  1.0000
  C   C611      1.0  0.040946408057690675  0.08900743171271253  0.2663518537593406  1.0000
  C   C612      1.0  0.9922076037037064  0.07886505413903144  0.2382624196075455  1.0000
  H   H929      1.0  0.006029782465900579  0.03788213250265171  0.2843935054130045  1.0000
  H   H930      1.0  0.04360444928555984  0.023985123179497858  0.2689198276142629  1.0000
  H   H931      1.0  0.007207389084792126  0.01662715054219044  0.24796957158869812  1.0000
  H   H932      1.0  0.04594689800760321  0.08356656710018684  0.2042285571892725  1.0000
  H   H933      1.0  0.0668051670729386  0.05057688914900793  0.22220560746464324  1.0000
  H   H934      1.0  0.030445749005648892  0.043310125250223264  0.2013804886331472  1.0000
  H   H935      1.0  0.04361107454907054  0.11307276648373876  0.2549744186387528  1.0000
  H   H936      1.0  0.06525443986847534  0.08017304083026255  0.27241336260135146  1.0000
  H   H937      1.0  0.027713839689903264  0.09301706586820946  0.2884763972019621  1.0000
  H   H938      1.0  0.9791145416344242  0.06251080002491949  0.2221442953748599  1.0000
  H   H939      1.0  0.9941561677587015  0.10301735436247972  0.22699320869834477  1.0000
  H   H940      1.0  0.9770717909079978  0.08194961643252707  0.25927109602671594  1.0000
  N   N58       1.0  0.9085277113258685  0.5423427752524683  0.07560061386735809  1.0000
  C   C613      1.0  0.9200333033090532  0.575149292208634  0.08365458778639842  1.0000
  C   C614      1.0  0.8869804031267453  0.5305031177141227  0.10032393425918167  1.0000
  C   C615      1.0  0.9360887251141057  0.5201521484144286  0.07242119075454738  1.0000
  C   C616      1.0  0.890959098237392  0.5435599825721885  0.045958847698886744  1.0000
  H   H941      1.0  0.9332942064150507  0.5750502885548436  0.10598951839511062  1.0000
  H   H942      1.0  0.8998367010046507  0.592496904586316  0.08642634996899577  1.0000
  H   H943      1.0  0.9364694984713606  0.5848228916414357  0.06559366707312754  1.0000
  H   H944      1.0  0.8773591545407717  0.5060481001015035  0.09478145455320719  1.0000
  H   H945      1.0  0.8995478259070647  0.5289102195494566  0.1229944681542171  1.0000
  H   H946      1.0  0.8661241300748997  0.5469840449827028  0.10359864603752031  1.0000
  H   H947      1.0  0.9282542533689165  0.49496454575445065  0.067283253472134  1.0000
  H   H948      1.0  0.9505205958038259  0.5192685180293981  0.09396178436142495  1.0000
  H   H949      1.0  0.9523913434591043  0.5278837987869368  0.05339790812159722  1.0000
  H   H950      1.0  0.8820652294225862  0.519140335186051  0.039199940435234955  1.0000
  H   H951      1.0  0.9064091668657491  0.5523973053027635  0.026688241329796882  1.0000
  H   H952      1.0  0.8698104269356285  0.559867203380914  0.04761794903323453  1.0000
  N   N59       1.0  0.6116331923007771  0.43542536348158734  0.9689127613961618  1.0000
  C   C617      1.0  0.6280684477210041  0.4668174101797362  0.9647294967043866  1.0000
  C   C618      1.0  0.6017700117449406  0.43183627666825486  0.0016700563730698281  1.0000
  C   C619      1.0  0.6335681368717309  0.40873573062113133  0.9603811980683782  1.0000
  C   C620      1.0  0.5831238265149958  0.4344198054465173  0.9487677519670629  1.0000
  H   H953      1.0  0.6123015519699158  0.4874818858792395  0.9713483152406978  1.0000
  H   H954      1.0  0.6351456897141168  0.47049283205001863  0.9400960930699048  1.0000
  H   H955      1.0  0.6500460219739451  0.4683292270021257  0.9791209111838088  1.0000
  H   H956      1.0  0.585238480884249  0.45165017940531915  0.008780967176506893  1.0000
  H   H957      1.0  0.589161415215205  0.4084805531670841  0.005709549938196057  1.0000
  H   H958      1.0  0.6226946043142031  0.4324799034354648  0.017598749491925858  1.0000
  H   H959      1.0  0.6410696824641273  0.4104519011233652  0.9356545054831664  1.0000
  H   H960      1.0  0.6220863349252616  0.38465537485260864  0.9635985011328603  1.0000
  H   H961      1.0  0.6556576868355269  0.4091803528261135  0.9747108509946841  1.0000
  H   H962      1.0  0.5698745916264832  0.4112218072395143  0.9514182763996678  1.0000
  H   H963      1.0  0.5898339694595783  0.43692998752141415  0.9238457891768961  1.0000
  H   H964      1.0  0.5662469670235629  0.4545060346217011  0.9544068482844628  1.0000
  N   N60       1.0  0.6273463452085573  0.9485729090060409  0.20403936875946588  1.0000
  C   C621      1.0  0.6359444170273855  0.9670027152104114  0.23222090749706625  1.0000
  C   C622      1.0  0.5922009703063478  0.9459570944293837  0.20190526959080757  1.0000
  C   C623      1.0  0.6415416685208055  0.9158017367762916  0.20573045146380703  1.0000
  C   C624      1.0  0.6396915526023604  0.9655132311123263  0.17630650046703378  1.0000
  H   H965      1.0  0.6623128330706142  0.9695954801340249  0.23443240658406148  1.0000
  H   H966      1.0  0.6272914884294503  0.9545646006571539  0.2536030609016145  1.0000
  H   H967      1.0  0.6253730505677301  0.9917858939675092  0.231914716479849  1.0000
  H   H968      1.0  0.5807691975775846  0.9703555203772019  0.20072657700860091  1.0000
  H   H969      1.0  0.5848758646732206  0.9325728128672379  0.18064559388649848  1.0000
  H   H970      1.0  0.5820236073018649  0.9331137406894674  0.2223463780983569  1.0000
  H   H971      1.0  0.632797521370103  0.9023205176245029  0.22644751411781575  1.0000
  H   H972      1.0  0.6680545302863186  0.9170146723948025  0.20744554307614418  1.0000
  H   H973      1.0  0.6356577048484783  0.9011686891382542  0.18481196362707902  1.0000
  H   H974      1.0  0.6338267318911843  0.9519875519199482  0.15469354478163394  1.0000
  H   H975      1.0  0.6661302293330013  0.9682018145317186  0.177163019011396  1.0000
  H   H976      1.0  0.6290457614428397  0.9901801577036223  0.17400264602203558  1.0000
  N   N61       1.0  0.7129841035782127  0.3086588615869061  0.7125656841001485  1.0000
  C   C625      1.0  0.7206331157433614  0.3273817804141647  0.7408295854818444  1.0000
  C   C626      1.0  0.7030771154034182  0.27551510519670164  0.7213199773042547  1.0000
  C   C627      1.0  0.7414682891725507  0.30691214282991897  0.6922763820058361  1.0000
  C   C628      1.0  0.6866566205318272  0.32482984321393754  0.6958465303834146  1.0000
  H   H977      1.0  0.6995814527736012  0.32901574622950464  0.7566491414525565  1.0000
  H   H978      1.0  0.727962820111023  0.35261962464559754  0.7350845116454755  1.0000
  H   H979      1.0  0.7405234736202863  0.31600863046210287  0.7539811727589825  1.0000
  H   H980      1.0  0.6815811828272941  0.2759336258189176  0.736656283799911  1.0000
  H   H981      1.0  0.6972631885856128  0.26069139922546286  0.700495027689946  1.0000
  H   H982      1.0  0.722449568640842  0.262614981019262  0.7339553229766091  1.0000
  H   H983      1.0  0.7499249110125483  0.331431491506203  0.6854987822553823  1.0000
  H   H984      1.0  0.7363725767957343  0.2933445578462571  0.6705075593730658  1.0000
  H   H985      1.0  0.7617145652550742  0.2942710302324548  0.7038409588495513  1.0000
  H   H986      1.0  0.6803381587138877  0.31152020444195216  0.6742618105083652  1.0000
  H   H987      1.0  0.6933966747520741  0.3498844797430326  0.6889669430715949  1.0000
  H   H988      1.0  0.6647893097165838  0.3265857767563683  0.7105556154213718  1.0000
  N   N62       1.0  0.9314773607718314  0.04400404787113593  0.8355788791450313  1.0000
  C   C629      1.0  0.9192332402104897  0.010738832769590841  0.8400897609888567  1.0000
  C   C630      1.0  0.9667264528038122  0.04330253272402302  0.8338547732800417  1.0000
  C   C631      1.0  0.9213717858330058  0.0645316995396625  0.8619281673008082  1.0000
  C   C632      1.0  0.9185196835230411  0.05743595388480888  0.8064467799262677  1.0000
  H   H989      1.0  0.9286033907429829  0.9998546110158216  0.8618532968429315  1.0000
  H   H990      1.0  0.9262642001949026  0.9946101551607078  0.8205169060026557  1.0000
  H   H991      1.0  0.8926620203233947  0.010518263305552724  0.8417374592713383  1.0000
  H   H992      1.0  0.9766360342123294  0.06793118733430271  0.8294626408418372  1.0000
  H   H993      1.0  0.9774662544109249  0.03404763736326099  0.8556803437594596  1.0000
  H   H994      1.0  0.9751388463410476  0.02740802088879052  0.8146254167458679  1.0000
  H   H995      1.0  0.9292539820556573  0.09013958288629867  0.8588666787828542  1.0000
  H   H996      1.0  0.9311952327693266  0.0554641290220187  0.8842569287650367  1.0000
  H   H997      1.0  0.8949459565301435  0.06475428735528402  0.8642853880195476  1.0000
  H   H998      1.0  0.8919649283253859  0.057828902622291074  0.8066550822987393  1.0000
  H   H999      1.0  0.9263313378890825  0.04298466595481292  0.7859456345961744  1.0000
  H   H1000     1.0  0.926833713136255  0.08274743963140908  0.8025243379332951  1.0000
  N   N63       1.0  0.7167670997333794  0.48012635669461706  0.15864380173319775  1.0000
  C   C633      1.0  0.6980970873693519  0.49206014496084705  0.13191299143929971  1.0000
  C   C634      1.0  0.7328101187921361  0.44943581670226374  0.15013773238375483  1.0000
  C   C635      1.0  0.6951519374008337  0.4743469101092478  0.18523093352804773  1.0000
  C   C636      1.0  0.7410431498242098  0.5045211331361388  0.1673091766374309  1.0000
  H   H1001     1.0  0.6795341937138664  0.4742009418460492  0.12477950908433376  1.0000
  H   H1002     1.0  0.7136630084270694  0.496543332358505  0.11139336628308977  1.0000
  H   H1003     1.0  0.6856884429324664  0.5152859663686414  0.1373840972444382  1.0000
  H   H1004     1.0  0.7469710117225685  0.43967930590046056  0.16987591309186292  1.0000
  H   H1005     1.0  0.7151363266524058  0.4305430184252484  0.14341922998455722  1.0000
  H   H1006     1.0  0.7493957206195869  0.4528650214345773  0.13020707074619683  1.0000
  H   H1007     1.0  0.7084789809566787  0.4650690215313904  0.20574125454663808  1.0000
  H   H1008     1.0  0.6765016011737247  0.45610774914713265  0.17943364866345857  1.0000
  H   H1009     1.0  0.6826261826060903  0.4969566955889085  0.19239116516958624  1.0000
  H   H1010     1.0  0.7556577228436179  0.4962055186319592  0.18738079479248387  1.0000
  H   H1011     1.0  0.729772236150732  0.5279788402260477  0.17398424775518656  1.0000
  H   H1012     1.0  0.7577304968476889  0.5095351768127515  0.14774008700648608  1.0000
  N   N64       1.0  0.47784317786615244  0.7066285936298767  0.537715715991883  1.0000
  C   C637      1.0  0.47549206676221406  0.7164652819490145  0.5048956974496946  1.0000
  C   C638      1.0  0.5112408870938426  0.6976763568088975  0.5447888662924971  1.0000
  C   C639      1.0  0.4567080497221552  0.6785368744200058  0.543341339188525  1.0000
  C   C640      1.0  0.46794876479630154  0.733932139026318  0.5577949643254837  1.0000
  H   H1013     1.0  0.45052994811174363  0.7230058180884122  0.4985818584191766  1.0000
  H   H1014     1.0  0.4833189318513387  0.696728587692102  0.48898648472663164  1.0000
  H   H1015     1.0  0.49068855140032425  0.7380148147629474  0.5000060386497283  1.0000
  H   H1016     1.0  0.5138384950755182  0.6898016775112035  0.56932283471373  1.0000
  H   H1017     1.0  0.5197967250447736  0.6775164807144094  0.5297000089507741  1.0000
  H   H1018     1.0  0.5277584656870179  0.7184771915559846  0.5409738469122292  1.0000
  H   H1019     1.0  0.45837251456479455  0.6699955179469204  0.5677484729666878  1.0000
  H   H1020     1.0  0.46306071595899795  0.6576965417387673  0.5281131767827514  1.0000
  H   H1021     1.0  0.4312057604196303  0.6847650516181102  0.5390340842984144  1.0000
  H   H1022     1.0  0.46883543724446963  0.7271107200577498  0.5827563070164523  1.0000
  H   H1023     1.0  0.4431016778396351  0.741896075645448  0.5525125178533186  1.0000
  H   H1024     1.0  0.48369845994535954  0.7553895842531849  0.5544493756290299  1.0000
