data_image0
_chemical_formula_structural       FeS2FeS2FeSFeS3FeS2FeS2FeSFeS3FeS2FeS2FeSFeS3FeS2FeS2FeSFeS3FeS2FeS2FeSFeS3FeS2FeS2FeSFeS3FeS2FeS2FeSFeS3FeS2FeS2FeSFeS3FeS2FeS2FeSFeS3FeS2FeS2FeSFeS3FeS2FeS2FeSFeS3FeS2FeS2FeSFeS3FeS2FeS2FeSFeS3FeS2FeS2FeSFeS3FeS2FeS2FeSFeS3FeS2FeS2FeSFeS3C6H4C6H4C6H4C6H4C6H4C6H4C6H4C6H4C6H4C6H4C6H4C6H4C6H4C6H4C6H4C6H4C6H4C6H4C6H4C6H4C6H4C6H4C6H4C6H4C6H4C6H4C6H4C6H4C6H4C6H4C6H4C6H4NC4H12NC4H12NC4H12NC4H12NC4H12NC4H12NC4H12NC4H12NC4H12NC4H12NC4H12NC4H12NC4H12NC4H12NC4H12NC4H12NC4H12NC4H12NC4H12NC4H12NC4H12NC4H12NC4H12NC4H12NC4H12NC4H12NC4H12NC4H12NC4H12NC4H12NC4H12NC4H12
_chemical_formula_sum              "Fe64 S128 C320 H512 N32"
_cell_length_a       41.77878415257192
_cell_length_b       41.97983931002742
_cell_length_c       36.89006916571322
_cell_angle_alpha    94.46049436258633
_cell_angle_beta     85.44613858495812
_cell_angle_gamma    123.21297588356242

_space_group_name_H-M_alt    "P 1"
_space_group_IT_number       1

loop_
  _space_group_symop_operation_xyz
  'x, y, z'

loop_
  _atom_site_type_symbol
  _atom_site_label
  _atom_site_symmetry_multiplicity
  _atom_site_fract_x
  _atom_site_fract_y
  _atom_site_fract_z
  _atom_site_occupancy
  Fe  Fe1       1.0  0.3830551335328646  0.7281297633199605  0.9212422040488857  1.0000
  S   S1        1.0  0.35316680324427213  0.6649266613604952  0.9108792736505411  1.0000
  S   S2        1.0  0.3650808378194315  0.763071836838835  0.896043573186668  1.0000
  Fe  Fe2       1.0  0.4469818502194832  0.7330110286108495  0.9606280084687394  1.0000
  S   S3        1.0  0.4226848878580293  0.6702312189124301  0.9538178373551374  1.0000
  S   S4        1.0  0.49980542938719785  0.7746958178767475  0.9914639102530817  1.0000
  Fe  Fe3       1.0  0.4116331111160041  0.6764597660678171  0.8972591041352814  1.0000
  S   S5        1.0  0.41759082292464833  0.6431618153834932  0.8496662928197404  1.0000
  Fe  Fe4       1.0  0.3663542796944073  0.6636338433258214  0.9682342180603725  1.0000
  S   S6        1.0  0.3209578809092448  0.6175693245457374  0.0038959970086267504  1.0000
  S   S7        1.0  0.4408996331535519  0.7399992497306416  0.9024723047414049  1.0000
  S   S8        1.0  0.3912088296182991  0.7260906627645174  0.9801700136566498  1.0000
  Fe  Fe5       1.0  0.4789256185683749  0.7661611331656281  0.6015727241987193  1.0000
  S   S9        1.0  0.4196277546204202  0.7179811549199353  0.5872692994064261  1.0000
  S   S10       1.0  0.5232514099510008  0.8146853844466801  0.5674840101632372  1.0000
  Fe  Fe6       1.0  0.4700694181660982  0.7416068736833112  0.6784997453488518  1.0000
  S   S11       1.0  0.4098460584275427  0.6913283918595037  0.6717449667742552  1.0000
  S   S12       1.0  0.5052900642126512  0.7616456737722214  0.7280703503679777  1.0000
  Fe  Fe7       1.0  0.4321946914405206  0.6816994953182738  0.6174408375151553  1.0000
  S   S13       1.0  0.4256442179287536  0.6265563325413317  0.5964436261687762  1.0000
  Fe  Fe8       1.0  0.4020572077098988  0.7317205883657713  0.6426128274105324  1.0000
  S   S14       1.0  0.348660181124068  0.7330270719347776  0.6533799207983141  1.0000
  S   S15       1.0  0.49319493193445846  0.7290659133465284  0.626763976261882  1.0000
  S   S16       1.0  0.4602738527873481  0.7826410028986969  0.6542815503843071  1.0000
  Fe  Fe9       1.0  0.9541900873215913  0.7403901299973374  0.4134393925331033  1.0000
  S   S17       1.0  0.8968583433390588  0.6895816285889638  0.4299399905651187  1.0000
  S   S18       1.0  0.9729324333542063  0.762046985606826  0.35666370430013955  1.0000
  Fe  Fe10      1.0  0.9817849579310333  0.7610887232989759  0.4911362225686846  1.0000
  S   S19       1.0  0.9261735390395531  0.7121586721944808  0.5138302943960403  1.0000
  S   S20       1.0  0.025678759673325002  0.7999333552063654  0.5325271845456047  1.0000
  Fe  Fe11      1.0  0.9301509637710557  0.6780657862817198  0.4658330452884155  1.0000
  S   S21       1.0  0.9262961124475514  0.6230790965493201  0.4730450306765607  1.0000
  Fe  Fe12      1.0  0.898252162931372  0.7285994077100469  0.47631030260283574  1.0000
  S   S22       1.0  0.8449801914725008  0.7292674244455586  0.49091318954263463  1.0000
  S   S23       1.0  0.9878300733454058  0.7260774966954328  0.4454742001316301  1.0000
  S   S24       1.0  0.9533636859823793  0.7802647788580656  0.4573297262443551  1.0000
  Fe  Fe13      1.0  0.965182859627823  0.2285725053902605  0.4989894565242416  1.0000
  S   S25       1.0  0.9056276957228873  0.1817879435261188  0.5169080434775447  1.0000
  S   S26       1.0  0.007489660304947243  0.2655453097772207  0.5422462050485187  1.0000
  Fe  Fe14      1.0  0.9459526949973348  0.2158282678418873  0.4189910244022873  1.0000
  S   S27       1.0  0.885468622558457  0.16790837196291747  0.4304538476248263  1.0000
  S   S28       1.0  0.9699769608364645  0.2423552971631688  0.36422515096463204  1.0000
  Fe  Fe15      1.0  0.8857766476965523  0.20497143409572374  0.47766856188455303  1.0000
  S   S29       1.0  0.8317541105625702  0.20488315256291173  0.4873337528651379  1.0000
  Fe  Fe16      1.0  0.9101571066152567  0.14846270228951003  0.4686310908546768  1.0000
  S   S30       1.0  0.8855068724406246  0.08512809647638675  0.468600796547824  1.0000
  S   S31       1.0  0.944567238536991  0.2545874240240088  0.4637458796816325  1.0000
  S   S32       1.0  0.9713795648382977  0.19346389063125846  0.4531223930604328  1.0000
  Fe  Fe17      1.0  0.7226510512169018  0.850100564371342  0.5807639155896801  1.0000
  S   S33       1.0  0.7223203040429482  0.8841236513983437  0.6306042305645819  1.0000
  S   S34       1.0  0.6704532826852264  0.8065069238726954  0.5505891664449777  1.0000
  Fe  Fe18      1.0  0.8058723880709199  0.8754981217998078  0.5872136354330084  1.0000
  S   S35       1.0  0.8122494102069175  0.911617998933175  0.637672593192659  1.0000
  S   S36       1.0  0.8594160759584245  0.8770709144674625  0.5675275765758312  1.0000
  Fe  Fe19      1.0  0.7542626431924206  0.8629412236731129  0.6556351017817524  1.0000
  S   S37       1.0  0.7377504347028242  0.8326247483570073  0.7085362267669427  1.0000
  Fe  Fe20      1.0  0.7803835127769427  0.9299455020736581  0.6078669225803475  1.0000
  S   S38       1.0  0.8027024578712206  0.9927999844927996  0.6107336352611283  1.0000
  S   S39       1.0  0.75023076504745  0.8253367162853144  0.607258129942493  1.0000
  S   S40       1.0  0.7781837170988981  0.897248055524276  0.5559253096663928  1.0000
  Fe  Fe21      1.0  0.38514281178728077  0.21701693187927426  0.47153444091206403  1.0000
  S   S41       1.0  0.37894137568674363  0.17690142604302758  0.42433657821427845  1.0000
  S   S42       1.0  0.33532698452395204  0.22427075414630737  0.4814230074410591  1.0000
  Fe  Fe22      1.0  0.46463400139192584  0.2366032105908556  0.4865839126936219  1.0000
  S   S43       1.0  0.46460022784013494  0.19863494171254925  0.4406248747187048  1.0000
  S   S44       1.0  0.5167837515468323  0.2731628110226232  0.5198363901027503  1.0000
  Fe  Fe23      1.0  0.4395048008540147  0.22239904002698285  0.4088124757049486  1.0000
  S   S45       1.0  0.46589374209085854  0.24777751340740262  0.3542810197609096  1.0000
  Fe  Fe24      1.0  0.40425464638072  0.15666096500983132  0.46084967741283916  1.0000
  S   S46       1.0  0.38702315335240123  0.09548435776051556  0.46296469550796504  1.0000
  S   S47       1.0  0.44403638186744665  0.2639419683747404  0.45336970220653844  1.0000
  S   S48       1.0  0.40591405113280604  0.19315484049893622  0.5094599074948148  1.0000
  Fe  Fe25      1.0  0.30284076940825927  0.8832837964925742  0.6142399713622954  1.0000
  S   S49       1.0  0.29836528976852433  0.9241901138925595  0.6541224478854143  1.0000
  S   S50       1.0  0.3561938374551813  0.8818384343177189  0.6155508808760883  1.0000
  Fe  Fe26      1.0  0.2266435442191386  0.8558191620073158  0.5814075068733807  1.0000
  S   S51       1.0  0.21614928046227522  0.8939000747776371  0.6190490361269473  1.0000
  S   S52       1.0  0.18655728466420118  0.8182537927143912  0.5368172427140124  1.0000
  Fe  Fe27      1.0  0.2780841021467392  0.9387250872940662  0.6071674330041325  1.0000
  S   S53       1.0  0.29114963965025226  0.9978500276036957  0.5994447633585459  1.0000
  Fe  Fe28      1.0  0.23717820031268935  0.8760723028528423  0.6624315923321358  1.0000
  S   S54       1.0  0.20367924662044237  0.8551016713203431  0.7158327054987611  1.0000
  S   S55       1.0  0.28758225760959233  0.901873075262902  0.5663320573093379  1.0000
  S   S56       1.0  0.24287042547259535  0.8339860485205053  0.6256969262847447  1.0000
  Fe  Fe29      1.0  0.29946554054244545  0.36464904238434537  0.592431675813301  1.0000
  S   S57       1.0  0.24346446508703445  0.3104732271896324  0.6040860513848498  1.0000
  S   S58       1.0  0.35240037102406235  0.36286181228701997  0.5810577678211243  1.0000
  Fe  Fe30      1.0  0.26591466483747417  0.4132040067814388  0.6089181963513077  1.0000
  S   S59       1.0  0.20736751490029084  0.36224046818098105  0.622729773892666  1.0000
  S   S60       1.0  0.2671372694649481  0.4677780557140421  0.6123742992340445  1.0000
  Fe  Fe31      1.0  0.23834466970685775  0.3433279314108405  0.652526660029629  1.0000
  S   S61       1.0  0.21573159272489822  0.3122681907258335  0.7048971659935062  1.0000
  Fe  Fe32      1.0  0.2179679542156872  0.33459126776456416  0.5731857227014251  1.0000
  S   S62       1.0  0.17477099677491095  0.29773520317233537  0.5311162714455995  1.0000
  S   S63       1.0  0.2961535858109379  0.39650046004734013  0.6431780347660693  1.0000
  S   S64       1.0  0.27467982554337705  0.38652611121539293  0.5570431694064666  1.0000
  Fe  Fe33      1.0  0.8914055255004182  0.7010608235640641  0.16777992386036672  1.0000
  S   S65       1.0  0.8489855824498973  0.6911973137965499  0.12726346274397693  1.0000
  S   S66       1.0  0.8702563903935738  0.6713778723563526  0.22157466852168065  1.0000
  Fe  Fe34      1.0  0.959603316819075  0.7486860505456747  0.11564254379134786  1.0000
  S   S67       1.0  0.9230484736315122  0.7432146528435247  0.07120387754862367  1.0000
  S   S68       1.0  0.023801955977476474  0.7764471848812824  0.11165271921340092  1.0000
  Fe  Fe35      1.0  0.8891740743763794  0.7532256825638373  0.11573888317389514  1.0000
  S   S69       1.0  0.8649955849745786  0.7901818974570328  0.11531623956388164  1.0000
  Fe  Fe36      1.0  0.8858555168372011  0.6817905790576628  0.0862435396637514  1.0000
  S   S70       1.0  0.8629334762518551  0.638250815599522  0.039574388877941874  1.0000
  S   S71       1.0  0.9291215502439366  0.7639794065616915  0.1595453584335557  1.0000
  S   S72       1.0  0.9248513080509196  0.6863382719003529  0.12730778077771168  1.0000
  Fe  Fe37      1.0  0.9155513167772227  0.16182367040140894  0.08826599487643284  1.0000
  S   S73       1.0  0.9405895614038053  0.2197497751820361  0.06651417870722971  1.0000
  S   S74       1.0  0.9135712697043618  0.11339286048057856  0.0545143436289045  1.0000
  Fe  Fe38      1.0  0.907143810044566  0.1876229666324404  0.16537782625430525  1.0000
  S   S75       1.0  0.9316929799174982  0.2480872848742636  0.15106915850324387  1.0000
  S   S76       1.0  0.8822264795668471  0.15972203997461015  0.21932862107625994  1.0000
  Fe  Fe39      1.0  0.8957666932376146  0.22236323710403888  0.10207452691190008  1.0000
  S   S77       1.0  0.8658199741924077  0.246005884842135  0.07644182662579349  1.0000
  Fe  Fe40      1.0  0.9752322748070186  0.24233997712286104  0.11618101025401185  1.0000
  S   S78       1.0  0.03678662304971558  0.2927328564287366  0.11344263857136513  1.0000
  S   S79       1.0  0.8671215348248046  0.16193424201036968  0.11898701665499695  1.0000
  S   S80       1.0  0.9541592714682838  0.18427629987921443  0.13544820297292287  1.0000
  Fe  Fe41      1.0  0.7914849683282733  0.8565766582276898  0.9662356237621103  1.0000
  S   S81       1.0  0.8128697273690075  0.9178248716955589  0.9573905542061549  1.0000
  S   S82       1.0  0.8320178158612755  0.8368745608946264  0.9691858520058831  1.0000
  Fe  Fe42      1.0  0.7084204212744607  0.829300655464996  0.9558384254213452  1.0000
  S   S83       1.0  0.7229843882323503  0.8880165455594959  0.9468619362248835  1.0000
  S   S84       1.0  0.6499632790615014  0.7765155601246111  0.9453786076848448  1.0000
  Fe  Fe43      1.0  0.7723607514149503  0.8947365630588306  0.9116395164046459  1.0000
  S   S85       1.0  0.7867776048313434  0.9264336606259607  0.8596241166932235  1.0000
  Fe  Fe44      1.0  0.7620862305489714  0.9064857385165869  0.9933735103102653  1.0000
  S   S86       1.0  0.761897659031644  0.9495409191503912  0.034451351439181765  1.0000
  S   S87       1.0  0.7552614799942736  0.8347045818300822  0.9171645679409478  1.0000
  S   S88       1.0  0.7431157409313625  0.846518784823806  0.00564191949379822  1.0000
  Fe  Fe45      1.0  0.24760573360762242  0.8468052192517754  0.9708509608735149  1.0000
  S   S89       1.0  0.21343715125224114  0.8391034479890932  0.9230053957296919  1.0000
  S   S90       1.0  0.26127276482691286  0.8070364323916169  0.9926992027919194  1.0000
  Fe  Fe46      1.0  0.25834156036061934  0.9228843852646165  0.9964335888694237  1.0000
  S   S91       1.0  0.2259557898739413  0.9225021145226028  0.9506318747981735  1.0000
  S   S92       1.0  0.2784042266791407  0.9622995218515216  0.04659164132183813  1.0000
  Fe  Fe47      1.0  0.1840068487450392  0.8605348269767382  0.9617105385628875  1.0000
  S   S93       1.0  0.12094210902902269  0.839127596259647  0.9638291113559764  1.0000
  Fe  Fe48      1.0  0.2577172066853356  0.9013721181860853  0.9155582524539315  1.0000
  S   S94       1.0  0.28918164075803404  0.9276133868486542  0.8627109114363998  1.0000
  S   S95       1.0  0.21408272689267008  0.8624636741762819  0.009983570439613176  1.0000
  S   S96       1.0  0.29410541825839553  0.9073996780379953  0.9606801207974884  1.0000
  Fe  Fe49      1.0  0.38655035830974777  0.19784857065841452  0.1621814573025109  1.0000
  S   S97       1.0  0.41199385019438395  0.260072392295319  0.15602855880036565  1.0000
  S   S98       1.0  0.3654827252079919  0.1691245465390037  0.21599577517176666  1.0000
  Fe  Fe50      1.0  0.3882288880860825  0.18098674696923  0.0812719443997158  1.0000
  S   S99       1.0  0.4134620216008294  0.24189523292931606  0.06823153021438455  1.0000
  S   S100      1.0  0.3807859754572079  0.14189476066269255  0.032368336629622574  1.0000
  Fe  Fe51      1.0  0.45203473511403286  0.2567322609246876  0.11409748202690909  1.0000
  S   S101      1.0  0.5117754812832245  0.3081404195486953  0.10323388837047662  1.0000
  Fe  Fe52      1.0  0.3718403032715506  0.24135463028612938  0.11052883807657776  1.0000
  S   S102      1.0  0.34557885754526096  0.27623558115566094  0.10829567396456544  1.0000
  S   S103      1.0  0.43033718906919033  0.19573097143549106  0.12398853777619823  1.0000
  S   S104      1.0  0.34273463025125167  0.17887566647868905  0.11987879993425173  1.0000
  Fe  Fe53      1.0  0.2842189113461159  0.41650008878556694  0.9829901621015936  1.0000
  S   S105      1.0  0.23858239586847785  0.40781264709844955  0.9474506125238606  1.0000
  S   S106      1.0  0.3256485412561918  0.4704641787115352  0.014333330365914776  1.0000
  Fe  Fe54      1.0  0.274605645644185  0.3409865744944053  0.9588552942304522  1.0000
  S   S107      1.0  0.22958031431789508  0.32712512466272  0.9198875643362007  1.0000
  S   S108      1.0  0.29005683030877544  0.2973497533619041  0.9620190353736321  1.0000
  Fe  Fe55      1.0  0.2661150230020907  0.38801646767291725  0.9047136383712743  1.0000
  S   S109      1.0  0.28199288479715434  0.41405545400823524  0.8494609371253248  1.0000
  Fe  Fe56      1.0  0.20549306186182117  0.34735952281410215  0.9659764233498542  1.0000
  S   S110      1.0  0.1415223192649442  0.30509211507336764  0.9736652667329054  1.0000
  S   S111      1.0  0.3137393091700741  0.4002476434213439  0.9392259849968371  1.0000
  S   S112      1.0  0.24871654354567546  0.35789283827314783  0.005774197209302612  1.0000
  Fe  Fe57      1.0  0.7679832586494822  0.4117450130788418  0.4499490129802131  1.0000
  S   S113      1.0  0.754234306396026  0.36765559444942064  0.4902192473947487  1.0000
  S   S114      1.0  0.7670697394258112  0.46504180947343116  0.460832926897554  1.0000
  Fe  Fe58      1.0  0.7766512878661991  0.3668294744091241  0.38597048566278286  1.0000
  S   S115      1.0  0.763826719433314  0.3191151828744604  0.4199507149486114  1.0000
  S   S116      1.0  0.7938816763803058  0.36562002955811496  0.3270244992955928  1.0000
  Fe  Fe59      1.0  0.7171641801816397  0.3252375563223979  0.44676225283612786  1.0000
  S   S117      1.0  0.6592298041490992  0.2704020938761369  0.4526955278115761  1.0000
  Fe  Fe60      1.0  0.8018698669882134  0.36490040707849647  0.4600715261920221  1.0000
  S   S118      1.0  0.8497952994595185  0.36467139492086376  0.48412315904459324  1.0000
  S   S119      1.0  0.726778515663181  0.3692243934601666  0.4089290961726301  1.0000
  S   S120      1.0  0.818702020220433  0.41271032096473526  0.4236347313333261  1.0000
  Fe  Fe61      1.0  0.7838377782645831  0.43072052927968696  0.09292786687121705  1.0000
  S   S121      1.0  0.7326869415494893  0.42162299586631635  0.12731683210534236  1.0000
  S   S122      1.0  0.8015316582775903  0.4628089409938891  0.04144015310307325  1.0000
  Fe  Fe62      1.0  0.8004534086509415  0.3862093742028695  0.14061821580882816  1.0000
  S   S123      1.0  0.7508504081255228  0.37405656594207487  0.1785713959539775  1.0000
  S   S124      1.0  0.8374414479174405  0.36714026814922585  0.15999975838058056  1.0000
  Fe  Fe63      1.0  0.7172702968606284  0.36136979620489784  0.1293494054839909  1.0000
  S   S125      1.0  0.6585421219985561  0.30647174872253746  0.13256593367718442  1.0000
  Fe  Fe64      1.0  0.7705969615786787  0.43479721599103643  0.17342285377490976  1.0000
  S   S126      1.0  0.7730153555683331  0.46645785888278307  0.22613152269293563  1.0000
  S   S127      1.0  0.7655747811453465  0.36901605298504014  0.09114775265185626  1.0000
  S   S128      1.0  0.822892496376457  0.44858542861380235  0.1390575885065354  1.0000
  C   C1        1.0  0.7898874242752041  0.3962861490426742  0.30100159437288593  1.0000
  C   C2        1.0  0.8105448072132637  0.407461932261484  0.2677138079738188  1.0000
  C   C3        1.0  0.8066957697472642  0.43069762011150786  0.24567483275701182  1.0000
  C   C4        1.0  0.7821305044084814  0.4428380596500972  0.2567659761799771  1.0000
  C   C5        1.0  0.7623971420884105  0.43281646258804785  0.2906463306003863  1.0000
  C   C6        1.0  0.7661910169606158  0.4093718511850494  0.31274318044709554  1.0000
  H   H1        1.0  0.829274625172648  0.3978094139761314  0.25866941379353525  1.0000
  H   H2        1.0  0.8221846502845095  0.43846731151101004  0.21958952321006564  1.0000
  H   H3        1.0  0.7429239202648186  0.4416893360541115  0.2990451084795815  1.0000
  H   H4        1.0  0.7500201082090966  0.40065048573826245  0.33833254156686854  1.0000
  C   C7        1.0  0.6180623185727803  0.30801048960299016  0.12577780896357146  1.0000
  C   C8        1.0  0.621690202013177  0.33891269886133263  0.10956187395155423  1.0000
  C   C9        1.0  0.5888675011952789  0.33874964751169817  0.1031472657142391  1.0000
  C   C10       1.0  0.5522516560333053  0.30788920256191427  0.11316631267219512  1.0000
  C   C11       1.0  0.5485778523258338  0.27722977357092254  0.1299220857967851  1.0000
  C   C12       1.0  0.5814008656249585  0.277160249585191  0.13590613163231868  1.0000
  H   H5        1.0  0.6497705203164107  0.36270201651196593  0.10147016260847254  1.0000
  H   H6        1.0  0.591942962171438  0.3626048125424398  0.0902221950648601  1.0000
  H   H7        1.0  0.5205085956097344  0.253580664577686  0.13823708698575565  1.0000
  H   H8        1.0  0.5784377803062486  0.2532773905107369  0.1486680880415221  1.0000
  C   C13       1.0  0.3316425242518715  0.2826338389108707  0.06697220653385272  1.0000
  C   C14       1.0  0.321879208254358  0.30967928624172475  0.06608845475401659  1.0000
  C   C15       1.0  0.3104791735658321  0.31548405796440476  0.03370595212710814  1.0000
  C   C16       1.0  0.30785839501617823  0.2935658992208632  0.0021794610682230875  1.0000
  C   C17       1.0  0.3178930240793969  0.26671178631563947  0.0029995810615728313  1.0000
  C   C18       1.0  0.33009026153032534  0.26146683830820033  0.035216767339069976  1.0000
  H   H9        1.0  0.3230490988545578  0.32617466614651885  0.09058218923873541  1.0000
  H   H10       1.0  0.3031402965113299  0.3364778990930522  0.0333014786995236  1.0000
  H   H11       1.0  0.31590183242695663  0.24964320292500577  0.9786848148751146  1.0000
  H   H12       1.0  0.33748679797945474  0.24049954023386216  0.035637885330830565  1.0000
  C   C19       1.0  0.30613263972341354  0.012128573983298141  0.042034968210012735  1.0000
  C   C20       1.0  0.32024324339301213  0.028084388507153106  0.0079941190142796  1.0000
  C   C21       1.0  0.3429946643846194  0.06794193112648877  0.005383500723564083  1.0000
  C   C22       1.0  0.3513762537282771  0.09204462554703374  0.03667448151256392  1.0000
  C   C23       1.0  0.3369294431610716  0.07604946652466198  0.07067980304019761  1.0000
  C   C24       1.0  0.3145307906961865  0.03619658488034405  0.07333355387173923  1.0000
  H   H13       1.0  0.3139213472562087  0.009789658384787847  0.9836939204174961  1.0000
  H   H14       1.0  0.35403021247399014  0.08013882718680448  0.9789832302840399  1.0000
  H   H15       1.0  0.3432670690807215  0.09437566178511901  0.09496084546933282  1.0000
  H   H16       1.0  0.3037185728953361  0.02404562477497718  0.0997724623779177  1.0000
  C   C25       1.0  0.8572016112446966  0.27892708436508273  0.10031399260051821  1.0000
  C   C26       1.0  0.8705462813983835  0.2933250808401009  0.13517737995401807  1.0000
  C   C27       1.0  0.8648391359668085  0.3208661514351859  0.15274188370122746  1.0000
  C   C28       1.0  0.8449256170724664  0.33354588628115267  0.13604899122539954  1.0000
  C   C29       1.0  0.8310001437597857  0.318734572371248  0.10144339581303005  1.0000
  C   C30       1.0  0.8374354628843079  0.29173357239281217  0.08352355540137685  1.0000
  H   H17       1.0  0.885341987861796  0.2833679398648074  0.1486315361533426  1.0000
  H   H18       1.0  0.8755677532696716  0.3321447302025387  0.17959517636930844  1.0000
  H   H19       1.0  0.8156305002010745  0.3283317656237755  0.08834006903720039  1.0000
  H   H20       1.0  0.8269914167389479  0.2806902820042124  0.05654535931950126  1.0000
  C   C31       1.0  0.8712298256564114  0.06778962692061251  0.05079062634319616  1.0000
  C   C32       1.0  0.8734866771038761  0.037518644794998446  0.035009702741654714  1.0000
  C   C33       1.0  0.8402050535506108  0.0009623542522960715  0.030508521795337584  1.0000
  C   C34       1.0  0.8044158688784059  0.9944662223795875  0.041691411312850146  1.0000
  C   C35       1.0  0.8022303501405265  0.024588348211934008  0.05808796965547774  1.0000
  C   C36       1.0  0.835524055448074  0.061217157157110735  0.06250852043008888  1.0000
  H   H21       1.0  0.9010889565262252  0.04237582267332082  0.02611660052314213  1.0000
  H   H22       1.0  0.842258410052159  0.9777539302631832  0.018570642243073365  1.0000
  H   H23       1.0  0.7745769433312664  0.019702864054862212  0.06679322119968885  1.0000
  H   H24       1.0  0.8334529865665983  0.08441809172512765  0.0744565901860151  1.0000
  C   C37       1.0  0.06603873869869359  0.29596450392257007  0.07476581024214665  1.0000
  C   C38       1.0  0.05121470735459655  0.2690691804998761  0.04578866118141681  1.0000
  C   C39       1.0  0.07471856406944676  0.27263429751032886  0.014898725772760192  1.0000
  C   C40       1.0  0.11330290044827848  0.3028671972909177  0.012804618152091107  1.0000
  C   C41       1.0  0.12836578394403722  0.3296210129122746  0.04191396460267474  1.0000
  C   C42       1.0  0.10467702472164614  0.3262544659849402  0.07274442605325458  1.0000
  H   H25       1.0  0.021654649210951504  0.24544486686334355  0.047122965947156197  1.0000
  H   H26       1.0  0.06294033018102238  0.25174178294984484  0.9925324187740017  1.0000
  H   H27       1.0  0.15810661422110753  0.352982911892904  0.04058929322234128  1.0000
  H   H28       1.0  0.11635279265384924  0.3471377216816148  0.09512481271710337  1.0000
  C   C43       1.0  0.8468955991898846  0.5899364032315205  0.042199183798708996  1.0000
  C   C44       1.0  0.82785087103247  0.5654054106362337  0.012583172147701882  1.0000
  C   C45       1.0  0.8143475966907208  0.5267039762432647  0.012919177419125516  1.0000
  C   C46       1.0  0.8192352629471986  0.5118348259456748  0.043075629588556555  1.0000
  C   C47       1.0  0.8389213353236835  0.5363655931538008  0.07272449123258438  1.0000
  C   C48       1.0  0.8531482024740862  0.5756236410891153  0.07209634320735724  1.0000
  H   H29       1.0  0.8232718628102702  0.5763064786086836  0.989228684540442  1.0000
  H   H30       1.0  0.7996132648151829  0.5080537330594523  0.9897856150999544  1.0000
  H   H31       1.0  0.8438566888993755  0.5251396209678237  0.09554554138585653  1.0000
  H   H32       1.0  0.869326363394978  0.5949024669709452  0.09427697286916012  1.0000
  C   C49       1.0  0.8547917888188387  0.8016223118674272  0.07432664438037029  1.0000
  C   C50       1.0  0.8672514584046987  0.7940742316473567  0.040364817002859876  1.0000
  C   C51       1.0  0.8598686430977024  0.8048660110598371  0.008406330734121115  1.0000
  C   C52       1.0  0.8395109449416953  0.8227592182604083  0.010036036341455334  1.0000
  C   C53       1.0  0.8265681846091396  0.8298268906959476  0.0439581305255079  1.0000
  C   C54       1.0  0.8344348315245521  0.8195260995149476  0.07596592690424286  1.0000
  H   H33       1.0  0.8829741388334911  0.7803773482163425  0.03874072462588196  1.0000
  H   H34       1.0  0.8699834754524117  0.7993377058457195  0.9822755989836368  1.0000
  H   H35       1.0  0.8109672511754894  0.8436633153808338  0.04556115697474605  1.0000
  H   H36       1.0  0.8247308146393141  0.8254724544675609  0.10212685036802563  1.0000
  C   C55       1.0  0.04975573187720084  0.7930905605922863  0.07003895911166347  1.0000
  C   C56       1.0  0.08525990235077763  0.7968833609522541  0.06473776404497733  1.0000
  C   C57       1.0  0.10688704810790867  0.8101730448677076  0.03195382006006531  1.0000
  C   C58       1.0  0.09349794878013248  0.8204964205817734  0.004483306096336959  1.0000
  C   C59       1.0  0.05782649912194078  0.8165000077921644  0.009651212897492156  1.0000
  C   C60       1.0  0.03597727636742021  0.802835591389747  0.04238739163154337  1.0000
  H   H37       1.0  0.09593290055212678  0.7891719055108717  0.0860046518210531  1.0000
  H   H38       1.0  0.1338389512876489  0.8122560060787171  0.027983550470942697  1.0000
  H   H39       1.0  0.04728524202769781  0.8244392154222226  0.9884641008306804  1.0000
  H   H40       1.0  0.008844153333828375  0.8004976376151196  0.046501554557439796  1.0000
  C   C61       1.0  0.23296100330989625  0.3406582793916006  0.745222387054954  1.0000
  C   C62       1.0  0.2246862172048781  0.3231846065762878  0.7785936155904601  1.0000
  C   C63       1.0  0.23930179104242916  0.3453537765376579  0.8108967078403325  1.0000
  C   C64       1.0  0.26233713707578354  0.38510029398625245  0.8098791925846456  1.0000
  C   C65       1.0  0.2704769793072644  0.4025033851022916  0.7764863237836659  1.0000
  C   C66       1.0  0.25567685697657155  0.38039195594275677  0.7442813988283874  1.0000
  H   H41       1.0  0.20713005189061537  0.2924475724889255  0.7795206111791221  1.0000
  H   H42       1.0  0.23290976653778492  0.3317090489035792  0.8365146419107068  1.0000
  H   H43       1.0  0.2881349993701583  0.4332459540989995  0.7755460338475868  1.0000
  H   H44       1.0  0.26184919721138694  0.394198977830425  0.7188038695093371  1.0000
  C   C67       1.0  0.22596439871587018  0.8785563950774964  0.7567795140081607  1.0000
  C   C68       1.0  0.2068821960296066  0.8628551267755707  0.7900259218220935  1.0000
  C   C69       1.0  0.225720675338698  0.8781694709693794  0.8228682209945517  1.0000
  C   C70       1.0  0.2637137564184041  0.9093324374838672  0.8225560982524439  1.0000
  C   C71       1.0  0.28239476208315023  0.9256841791345323  0.7894357354870928  1.0000
  C   C72       1.0  0.2635086446804213  0.9105300911882921  0.7566695833124613  1.0000
  H   H45       1.0  0.17777080811014662  0.8382080863095349  0.7903321330162043  1.0000
  H   H46       1.0  0.21099134666454955  0.8656000642079528  0.8483311154961367  1.0000
  H   H47       1.0  0.31163715482812593  0.9500947364526748  0.7891529827762578  1.0000
  H   H48       1.0  0.27822414718934424  0.9233746765281013  0.731370228048704  1.0000
  C   C73       1.0  0.5569003281314213  0.27190187905431024  0.5038304650975349  1.0000
  C   C74       1.0  0.5939517572780254  0.30443866993353574  0.5074594822785032  1.0000
  C   C75       1.0  0.6259347538813376  0.30428510308531476  0.49252660380504326  1.0000
  C   C76       1.0  0.6208393496811259  0.2712838440141067  0.47460565096048607  1.0000
  C   C77       1.0  0.5839302359890777  0.23842821639656814  0.47224834437597263  1.0000
  C   C78       1.0  0.5520657574171881  0.23885458425137662  0.48648754781641124  1.0000
  H   H49       1.0  0.5978970882993009  0.33007820947126687  0.5210481188285555  1.0000
  H   H50       1.0  0.6544283986744093  0.3297204419449898  0.4945829218628704  1.0000
  H   H51       1.0  0.5799454601807532  0.21282753612216332  0.4585317519791223  1.0000
  H   H52       1.0  0.5238082148554447  0.2135206149063905  0.48416711673452245  1.0000
  C   C79       1.0  0.438090595502518  0.2254344907893049  0.3158650034813532  1.0000
  C   C80       1.0  0.4034866660916234  0.1900127587718785  0.3180816419656137  1.0000
  C   C81       1.0  0.38146366568573586  0.17302967423950005  0.28721477994858313  1.0000
  C   C82       1.0  0.3939918620153064  0.19126744687289185  0.25397398770851926  1.0000
  C   C83       1.0  0.4286289244524556  0.22670233551302368  0.2517530761094397  1.0000
  C   C84       1.0  0.4506349103579248  0.2437281347023247  0.28266727800983216  1.0000
  H   H53       1.0  0.3939649367816318  0.17537702549852158  0.34334861274905965  1.0000
  H   H54       1.0  0.3548381598651834  0.14544555321447167  0.288916467239188  1.0000
  H   H55       1.0  0.43850899080202455  0.2408789448919762  0.22619393059660245  1.0000
  H   H56       1.0  0.47743595490059143  0.27111667851180227  0.2807806220770697  1.0000
  C   C85       1.0  0.3596813829815162  0.06830778619387347  0.5006243506265162  1.0000
  C   C86       1.0  0.3554081230456107  0.033210929966118075  0.5048782063191838  1.0000
  C   C87       1.0  0.334651336417131  0.011345024754767952  0.5351777264108306  1.0000
  C   C88       1.0  0.31803938058106684  0.024526294416545413  0.5613838136844421  1.0000
  C   C89       1.0  0.3221060808216397  0.05950621732007089  0.5569958440510342  1.0000
  C   C90       1.0  0.34272908278035186  0.08128539501426059  0.5266370686231359  1.0000
  H   H57       1.0  0.3683828964564192  0.02298621289293057  0.48473346791715227  1.0000
  H   H58       1.0  0.33172761618480595  0.9844586269550845  0.5383224104380027  1.0000
  H   H59       1.0  0.30906341519564556  0.0697111179580523  0.5770849559849005  1.0000
  H   H60       1.0  0.3454235421061451  0.10804563319237837  0.5233536970276788  1.0000
  C   C91       1.0  0.3407727620464021  0.26299148731448807  0.509244878608889  1.0000
  C   C92       1.0  0.3096619167321376  0.2672243569603371  0.5150467702615165  1.0000
  C   C93       1.0  0.3130031563278481  0.2978014852171154  0.5368977267129571  1.0000
  C   C94       1.0  0.34754606432246093  0.3244156414764866  0.5531275024252653  1.0000
  C   C95       1.0  0.37872604643884245  0.3202564015452895  0.5472675515345211  1.0000
  C   C96       1.0  0.37538412480352695  0.2896305661836862  0.52538587082972  1.0000
  H   H61       1.0  0.2828250552559076  0.24676387601992592  0.502618489776691  1.0000
  H   H62       1.0  0.28890025964919647  0.3008700965005551  0.5409168236486719  1.0000
  H   H63       1.0  0.40559125028134196  0.3408253486730415  0.5595960840558232  1.0000
  H   H64       1.0  0.3995688063555986  0.28668002468599246  0.5210287984781851  1.0000
  C   C97       1.0  0.752900937632515  0.8594281476156601  0.7500018250345578  1.0000
  C   C98       1.0  0.7467798764702204  0.8404873124824088  0.7820327466353036  1.0000
  C   C99       1.0  0.7578208752425086  0.8608617977260797  0.8156611192123142  1.0000
  C   C100      1.0  0.7746957115479292  0.9003127557543386  0.8175500842249068  1.0000
  C   C101      1.0  0.7808793533096061  0.9192714335199174  0.7854845550372529  1.0000
  C   C102      1.0  0.7701375775879074  0.8989319609006569  0.751761177844177  1.0000
  H   H65       1.0  0.7336830757762806  0.8099552659584413  0.7808342746091317  1.0000
  H   H66       1.0  0.753212373323028  0.845998322472028  0.8400827513001183  1.0000
  H   H67       1.0  0.7939082628076616  0.9497875217913733  0.7867084115916098  1.0000
  H   H68       1.0  0.7749259895833657  0.9137906465121391  0.7272170784499149  1.0000
  C   C103      1.0  0.8369018842403362  0.24942362398908727  0.4875475085734981  1.0000
  C   C104      1.0  0.8723232173144175  0.2833212299323137  0.4932309231790891  1.0000
  C   C105      1.0  0.8758709423163578  0.31855830035201976  0.49262074269452116  1.0000
  C   C106      1.0  0.844141291968605  0.32007830998060777  0.4859701315389898  1.0000
  C   C107      1.0  0.8087044115466798  0.2861313118066945  0.48040393704747114  1.0000
  C   C108      1.0  0.8050714893619663  0.2508919883398119  0.481370083835374  1.0000
  H   H69       1.0  0.8968461299490122  0.2824573343827378  0.4987630804321656  1.0000
  H   H70       1.0  0.9032483432498996  0.3447433687394488  0.4973214655318311  1.0000
  H   H71       1.0  0.7839508726991763  0.2870019461485078  0.4758924918200257  1.0000
  H   H72       1.0  0.777527488163626  0.22477277256227363  0.4771646562751352  1.0000
  C   C109      1.0  0.9455823297329095  0.2186369071435257  0.3241053701261417  1.0000
  C   C110      1.0  0.910819940965654  0.18322507227090798  0.3249949212820679  1.0000
  C   C111      1.0  0.89163772569085  0.1655188632373896  0.29267558468317717  1.0000
  C   C112      1.0  0.9070507400510048  0.1830552796637864  0.2592777119049055  1.0000
  C   C113      1.0  0.941764024709948  0.21850524163988644  0.2583512977506296  1.0000
  C   C114      1.0  0.9609238793478675  0.23623290369696806  0.29070427337190213  1.0000
  H   H73       1.0  0.8988130285906785  0.16931442541306368  0.3504725372298962  1.0000
  H   H74       1.0  0.8648014423042312  0.1380782422632967  0.2935528171602217  1.0000
  H   H75       1.0  0.9539257909071789  0.2322197544461927  0.23272942449985726  1.0000
  H   H76       1.0  0.9878288689704184  0.2636313553155066  0.2898084243937811  1.0000
  C   C115      1.0  0.8609188857226392  0.060468271495791856  0.5082066166976162  1.0000
  C   C116      1.0  0.8690771173811686  0.07897840886505884  0.5425964335366049  1.0000
  C   C117      1.0  0.8504810168264509  0.05806380014541901  0.5739052552475257  1.0000
  C   C118      1.0  0.8238246016707751  0.018577132209993463  0.5709712992035798  1.0000
  C   C119      1.0  0.8149190200499529  0.000321000988664722  0.5365064605445397  1.0000
  C   C120      1.0  0.8335619907942142  0.02118064075420545  0.5052417344669291  1.0000
  H   H77       1.0  0.890482789421335  0.10918701877353251  0.5451690405900406  1.0000
  H   H78       1.0  0.8573856956667131  0.07236566043721271  0.600529971742061  1.0000
  H   H79       1.0  0.7936537784083041  0.9701082079137586  0.533901422442484  1.0000
  H   H80       1.0  0.826875344684275  0.0067821096989333345  0.47864734641609336  1.0000
  C   C121      1.0  0.05431425677495816  0.2753918689873571  0.5378944025237204  1.0000
  C   C122      1.0  0.081647143670738  0.30192064538955415  0.5623500553067716  1.0000
  C   C123      1.0  0.11889628694835414  0.30940905654504924  0.5602935290968633  1.0000
  C   C124      1.0  0.12886137501281916  0.2901636789564195  0.5339132947774947  1.0000
  C   C125      1.0  0.10173319011105289  0.26408118576760037  0.5092092586159596  1.0000
  C   C126      1.0  0.06455817709856304  0.2567053459313311  0.5111610689803954  1.0000
  H   H81       1.0  0.07383983132400496  0.316601122919473  0.5829444298053447  1.0000
  H   H82       1.0  0.13976519535454288  0.329961718766532  0.5790644230486575  1.0000
  H   H83       1.0  0.10937767832617179  0.24929129200448008  0.48857409436447946  1.0000
  H   H84       1.0  0.04377421414328886  0.23631088920056786  0.49216287114550333  1.0000
  C   C127      1.0  0.8814216465512713  0.579610459416298  0.4719159681384979  1.0000
  C   C128      1.0  0.8796377341116032  0.5455030369049914  0.47451377751225354  1.0000
  C   C129      1.0  0.8445840557222303  0.5101961415759327  0.4717665866264281  1.0000
  C   C130      1.0  0.8110072656914058  0.5088561021424509  0.4669502380353982  1.0000
  C   C131      1.0  0.8126810603472547  0.5430173698699714  0.4650682320337941  1.0000
  C   C132      1.0  0.8478408419035043  0.578345438274924  0.4673322100908355  1.0000
  H   H85       1.0  0.9055135367331748  0.5463115626756566  0.4781984152451438  1.0000
  H   H86       1.0  0.8435183685368294  0.48402843395082185  0.47354788703853234  1.0000
  H   H87       1.0  0.7867428748912154  0.5421079472543914  0.4614104783265964  1.0000
  H   H88       1.0  0.8489302998307425  0.6045189664231655  0.4654915308734658  1.0000
  C   C133      1.0  0.9448567550128568  0.7354066136483839  0.3192784889391145  1.0000
  C   C134      1.0  0.9546252435391741  0.7523849902232642  0.285538580059197  1.0000
  C   C135      1.0  0.9322155487742135  0.7327183240046641  0.25539249965250393  1.0000
  C   C136      1.0  0.8996713915007934  0.6959338043683583  0.2587651329586268  1.0000
  C   C137      1.0  0.8900007473988046  0.6786808082630567  0.29246940499547713  1.0000
  C   C138      1.0  0.9126428592586103  0.69831099355258  0.32265425819669147  1.0000
  H   H89       1.0  0.9796727528187474  0.780943921577201  0.2826360947065004  1.0000
  H   H90       1.0  0.9402286026471113  0.7461542180799771  0.2295554649346828  1.0000
  H   H91       1.0  0.8649891214813845  0.650117891289607  0.2952026789031214  1.0000
  H   H92       1.0  0.905173231120754  0.6847973809155734  0.3484336287504372  1.0000
  C   C139      1.0  0.8494747647151886  0.7705799766233411  0.5121665936412723  1.0000
  C   C140      1.0  0.8853503019907969  0.8033078934979547  0.5193895319514668  1.0000
  C   C141      1.0  0.8880249912065937  0.835969798956871  0.5359239107945016  1.0000
  C   C142      1.0  0.8548828642169624  0.8360295083212992  0.5455953540580311  1.0000
  C   C143      1.0  0.8189900904593568  0.8032721023738123  0.538575977420786  1.0000
  C   C144      1.0  0.8163396940596603  0.7706845527474679  0.5218296825313142  1.0000
  H   H93       1.0  0.9110493564411808  0.8034701640076353  0.5122804246731724  1.0000
  H   H94       1.0  0.9159012149703653  0.8611517365972763  0.5414344089965787  1.0000
  H   H95       1.0  0.7932558771156594  0.8030467710565635  0.5457711373530967  1.0000
  H   H96       1.0  0.7884889030015015  0.7454480256623305  0.5162732867078363  1.0000
  C   C145      1.0  0.07080635155033366  0.805774525857626  0.5324631966253334  1.0000
  C   C146      1.0  0.09251508153718559  0.8222393706868867  0.5635102845077912  1.0000
  C   C147      1.0  0.12782960675160915  0.8258439338473232  0.5652313235404636  1.0000
  C   C148      1.0  0.14200545370528062  0.8135022297641723  0.535685506090596  1.0000
  C   C149      1.0  0.12045069866848494  0.7973030298261621  0.5044745697822393  1.0000
  C   C150      1.0  0.08500490100471025  0.7935770616707574  0.5027805067740473  1.0000
  H   H97       1.0  0.08160987739186987  0.8315724508691792  0.5866578127979224  1.0000
  H   H98       1.0  0.14368401022208863  0.8375557668912594  0.5897080054668409  1.0000
  H   H99       1.0  0.13132523028397092  0.7878138758708183  0.4814327062728541  1.0000
  H   H100      1.0  0.06872302550155267  0.7812941413906496  0.47851715892059604  1.0000
  C   C151      1.0  0.3815247512153595  0.5827098817641226  0.602097638010716  1.0000
  C   C152      1.0  0.37989695869240836  0.5486188689777538  0.5939874803397243  1.0000
  C   C153      1.0  0.34508585997501745  0.5131624899030957  0.5976621534111506  1.0000
  C   C154      1.0  0.3115873787814603  0.5116700120882619  0.6090245936763663  1.0000
  C   C155      1.0  0.31312931940937866  0.5457310594939314  0.6169794770325105  1.0000
  C   C156      1.0  0.34806196464907135  0.5811910079416831  0.6138017983982634  1.0000
  H   H101      1.0  0.4057139376897133  0.5496771635669203  0.5848665780942539  1.0000
  H   H102      1.0  0.34417374439342674  0.4870851252526303  0.5913704769097861  1.0000
  H   H103      1.0  0.28728072716829556  0.544727775708937  0.6257737193375802  1.0000
  H   H104      1.0  0.3490506190087157  0.607320064469458  0.6200037918214452  1.0000
  C   C157      1.0  0.35062654104542074  0.7745888064404268  0.6438928017938347  1.0000
  C   C158      1.0  0.38450797590999475  0.8105326702352778  0.6472039168730713  1.0000
  C   C159      1.0  0.3854004287639894  0.8432760950807836  0.639500959666257  1.0000
  C   C160      1.0  0.35266853888049426  0.8403195310844102  0.6279548421266813  1.0000
  C   C161      1.0  0.3185607408724007  0.804479404864275  0.6253002799593944  1.0000
  C   C162      1.0  0.31748241971271274  0.7717353185169978  0.6335980497400867  1.0000
  H   H105      1.0  0.4099486654882296  0.8131413252251818  0.6559676316799511  1.0000
  H   H106      1.0  0.4116293621223064  0.8710699260829596  0.6422744247680372  1.0000
  H   H107      1.0  0.2932569959691247  0.8018429157986001  0.6160512647121621  1.0000
  H   H108      1.0  0.29112572503066403  0.7439866268073649  0.6311202490362178  1.0000
  C   C163      1.0  0.5646157534258543  0.8132517818899464  0.5616142807416752  1.0000
  C   C164      1.0  0.561318692736463  0.7786312070159823  0.5527657517508651  1.0000
  C   C165      1.0  0.5941915675184342  0.7772995380927532  0.5482131499856582  1.0000
  C   C166      1.0  0.6304425764620846  0.8102674312305371  0.5538318012084801  1.0000
  C   C167      1.0  0.6338640228047134  0.8449668170282101  0.5630148542077068  1.0000
  C   C168      1.0  0.6009549118556976  0.8465341201696899  0.5663826066597025  1.0000
  H   H109      1.0  0.5334033565838775  0.7528987282526414  0.5487264228216724  1.0000
  H   H110      1.0  0.591430202794039  0.7504648178244296  0.5408138629310123  1.0000
  H   H111      1.0  0.6618171825812322  0.8705448699277536  0.5672490552213305  1.0000
  H   H112      1.0  0.6035955784934437  0.8733668163482229  0.5733072289089641  1.0000
  C   C169      1.0  0.44679183195231315  0.6741711730913981  0.8153289712042487  1.0000
  C   C170      1.0  0.4387029054386142  0.6624711560442786  0.778825054863774  1.0000
  C   C171      1.0  0.45813921245267775  0.6889218891336791  0.7515020040643134  1.0000
  C   C172      1.0  0.48564297494745573  0.72696530017665  0.7607675108759738  1.0000
  C   C173      1.0  0.49558538096687305  0.7380419560012604  0.7969955401249232  1.0000
  C   C174      1.0  0.47600488953436176  0.711659182162927  0.8243021761884218  1.0000
  H   H113      1.0  0.4163567845105748  0.6333601285648409  0.7717643095151377  1.0000
  H   H114      1.0  0.4511800079373336  0.6799771155583588  0.7234042483644751  1.0000
  H   H115      1.0  0.5171523781999634  0.7673799009698606  0.8041721485575662  1.0000
  H   H116      1.0  0.4832332864291654  0.7203993945862777  0.8523616109281528  1.0000
  C   C175      1.0  0.32241147594556896  0.5766031378551639  0.005248285707470268  1.0000
  C   C176      1.0  0.2883232815092348  0.5404179226774836  0.004283874914175145  1.0000
  C   C177      1.0  0.28905011859587026  0.50748034135735  0.006023046234824081  1.0000
  C   C178      1.0  0.3237698322675174  0.5107866989081432  0.010019527483324575  1.0000
  C   C179      1.0  0.35781004336622907  0.546973448092644  0.01115377922605898  1.0000
  C   C180      1.0  0.35720799883836934  0.5797586899079137  0.008201500933657346  1.0000
  H   H117      1.0  0.2613005772560214  0.5378597253290669  0.002220426292504518  1.0000
  H   H118      1.0  0.262648126913611  0.47963409416323005  0.005459039335478089  1.0000
  H   H119      1.0  0.38470076765013517  0.5495492146693224  0.014150409321197266  1.0000
  H   H120      1.0  0.3835224324155271  0.6074150329583031  0.008795345097079688  1.0000
  C   C181      1.0  0.5415398733959084  0.7753355673522593  0.9782293157406796  1.0000
  C   C182      1.0  0.5768407618753068  0.8047955022484183  0.9915401796246504  1.0000
  C   C183      1.0  0.6104135206005797  0.8054537121417472  0.9817994485607501  1.0000
  C   C184      1.0  0.6085596950464945  0.7761266767510321  0.9593690336079369  1.0000
  C   C185      1.0  0.5731813968276016  0.7464811369472635  0.9463447531646625  1.0000
  C   C186      1.0  0.5398135193152437  0.7463302125131368  0.9553416576619509  1.0000
  H   H121      1.0  0.5782898002311323  0.8272821509845386  0.009294393050047534  1.0000
  H   H122      1.0  0.6376243591055943  0.8284063410682188  0.9919274026417249  1.0000
  H   H123      1.0  0.5716962633109339  0.72382536168732  0.9288400121865543  1.0000
  H   H124      1.0  0.5127519134972777  0.7235801792591119  0.9448411088923773  1.0000
  C   C187      1.0  0.29022876051820906  0.7952671739020737  0.9654589488679427  1.0000
  C   C188      1.0  0.30449760782563456  0.8098917751888646  0.9309198071102032  1.0000
  C   C189      1.0  0.32756065842695015  0.7999250996222756  0.909858378660889  1.0000
  C   C190      1.0  0.33659528169046665  0.7755067470905962  0.9233056602006278  1.0000
  C   C191      1.0  0.3225676427542076  0.761185550509257  0.957962754730791  1.0000
  C   C192      1.0  0.29944770619212935  0.7710568743349671  0.9789605992932293  1.0000
  H   H125      1.0  0.2975502338003613  0.828635748632542  0.9203553917991876  1.0000
  H   H126      1.0  0.3383899340372298  0.8111542057130913  0.8831008298683267  1.0000
  H   H127      1.0  0.32910784087261924  0.7421285300125269  0.9684438169786377  1.0000
  H   H128      1.0  0.28834791425577794  0.7595538876852741  0.005608215911193426  1.0000
  N   N1        1.0  0.33825997817256226  0.9017234700966246  0.05667516212749657  1.0000
  C   C193      1.0  0.35291385268181996  0.9417589896731066  0.049377063210301886  1.0000
  C   C194      1.0  0.3492556405972659  0.8844798225822591  0.02574102692129987  1.0000
  C   C195      1.0  0.2961036512724925  0.8800752064700262  0.06143018220192764  1.0000
  C   C196      1.0  0.35455249592657834  0.9004446380828669  0.09023399418356037  1.0000
  H   H129      1.0  0.38464720821210735  0.9591407049318408  0.04563547047757077  1.0000
  H   H130      1.0  0.34457037516302286  0.9554284637429642  0.07194473453988226  1.0000
  H   H131      1.0  0.340987928350752  0.9437436472451529  0.024340039175275274  1.0000
  H   H132      1.0  0.380862941353796  0.8998815484479591  0.02122245231488118  1.0000
  H   H133      1.0  0.3380376223928501  0.8540340362993458  0.030127278905325072  1.0000
  H   H134      1.0  0.33721859591162406  0.8846965317929543  0.9999646004264385  1.0000
  H   H135      1.0  0.28378827392512085  0.8496338512062366  0.06688689429042993  1.0000
  H   H136      1.0  0.28315271564771743  0.8801385507125168  0.036388497085006355  1.0000
  H   H137      1.0  0.2864741275956492  0.8925644544819723  0.08399496556611274  1.0000
  H   H138      1.0  0.343901934403687  0.8705576570910148  0.09644115460726232  1.0000
  H   H139      1.0  0.34658818882283365  0.9130654302460512  0.11409692150517681  1.0000
  H   H140      1.0  0.38637022026440376  0.9165232979762136  0.0876350560821646  1.0000
  N   N2        1.0  0.33512340876522073  0.5250459005709744  0.8901364743279264  1.0000
  C   C197      1.0  0.35392801837568366  0.5645848942573631  0.9053365763055827  1.0000
  C   C198      1.0  0.3499270606742391  0.5051102272700276  0.9071429321118194  1.0000
  C   C199      1.0  0.3433515107800093  0.5256359472761565  0.8503829590761941  1.0000
  C   C200      1.0  0.2933072513793345  0.5049038885707031  0.8977055400558241  1.0000
  H   H141      1.0  0.38561640248842427  0.580424245577425  0.9009123983182827  1.0000
  H   H142      1.0  0.34749791911471256  0.5652219162398536  0.9350347365733052  1.0000
  H   H143      1.0  0.3441759474658184  0.5808020257488858  0.89246423524123  1.0000
  H   H144      1.0  0.3364249177071265  0.4752200947618916  0.8961437965799229  1.0000
  H   H145      1.0  0.38142356592724425  0.5196066641521213  0.9022727305118432  1.0000
  H   H146      1.0  0.3438590895910294  0.5037417654536596  0.9370902738187614  1.0000
  H   H147      1.0  0.32976933037944234  0.49621417093732423  0.8379877132542367  1.0000
  H   H148      1.0  0.37471889701137046  0.5410284603336889  0.8437895135366252  1.0000
  H   H149      1.0  0.33241178598242843  0.5403334359500995  0.8366873980684315  1.0000
  H   H150      1.0  0.2781597243158179  0.47503985796148557  0.8862956342127759  1.0000
  H   H151      1.0  0.28118089647937616  0.519363293107349  0.8856619718534623  1.0000
  H   H152      1.0  0.2861406828674571  0.5035279567638037  0.9275004126583154  1.0000
  N   N3        1.0  0.579245466987055  0.30219530985318743  0.3832566926047618  1.0000
  C   C201      1.0  0.5618048625626568  0.2605529731663529  0.3808991055130461  1.0000
  C   C202      1.0  0.5582164208323869  0.3114254572316262  0.4117114140960324  1.0000
  C   C203      1.0  0.5770779428769658  0.3149470081582977  0.3478088196057257  1.0000
  C   C204      1.0  0.6198011299045804  0.32177955970467803  0.39258927587963427  1.0000
  H   H153      1.0  0.5771016912708226  0.2524875128477812  0.35996762866404824  1.0000
  H   H154      1.0  0.5312285704261903  0.24490097998069005  0.3736787574932613  1.0000
  H   H155      1.0  0.5626413349845707  0.24995779161763582  0.40727984848288407  1.0000
  H   H156      1.0  0.5591176242005546  0.30205222275425236  0.4387836356133232  1.0000
  H   H157      1.0  0.5705817097187619  0.3426049176095141  0.4144631622178589  1.0000
  H   H158      1.0  0.5274865438072707  0.2970377032767648  0.40553035574779855  1.0000
  H   H159      1.0  0.5898020593179253  0.34621220848392087  0.34864626311010116  1.0000
  H   H160      1.0  0.5468329852717038  0.30060476806052944  0.3399068142279117  1.0000
  H   H161      1.0  0.592560653770039  0.30833432376000114  0.3256897913565546  1.0000
  H   H162      1.0  0.6339247539858069  0.35327103521031655  0.39484385683178824  1.0000
  H   H163      1.0  0.6365570575034899  0.31528505822621417  0.37189111207331876  1.0000
  H   H164      1.0  0.622493278183188  0.3127616758217544  0.41910288637537296  1.0000
  N   N4        1.0  0.4416656395950624  0.836234486971657  0.5429002649408081  1.0000
  C   C205      1.0  0.4666313098381198  0.8625141610609462  0.5719452168291188  1.0000
  C   C206      1.0  0.41153396114570473  0.8435038581697327  0.5375194192182413  1.0000
  C   C207      1.0  0.42365058373252246  0.7964569814419126  0.5534074110107168  1.0000
  C   C208      1.0  0.46501125225024686  0.8423598076588905  0.5087383651208214  1.0000
  H   H165      1.0  0.4902098511519701  0.8583771625514681  0.5761017731727281  1.0000
  H   H166      1.0  0.45040647701745923  0.8577692032205637  0.5984232665457049  1.0000
  H   H167      1.0  0.47993680827929697  0.892821757950395  0.5654307172575014  1.0000
  H   H168      1.0  0.39237344039990113  0.8243831830371979  0.5155712918223374  1.0000
  H   H169      1.0  0.39310983385610987  0.838554892326441  0.5626845645291862  1.0000
  H   H170      1.0  0.4239801404888929  0.8734582633806677  0.5301993632481528  1.0000
  H   H171      1.0  0.44570559043488  0.7901541600844799  0.5573957702096147  1.0000
  H   H172      1.0  0.40453446757407224  0.7757164247138516  0.5322262143531924  1.0000
  H   H173      1.0  0.4060879065830599  0.7906383081442183  0.5792914271147311  1.0000
  H   H174      1.0  0.4792104686713134  0.8721237289723  0.49997731819699415  1.0000
  H   H175      1.0  0.4472416992056085  0.8228230713608321  0.48622075229796385  1.0000
  H   H176      1.0  0.4879697260593662  0.8369791609596579  0.5121251794783901  1.0000
  N   N5        1.0  0.45235293291147216  0.6887433583593278  0.06514381674123643  1.0000
  C   C209      1.0  0.43426204126013934  0.657344056543616  0.09068867616687488  1.0000
  C   C210      1.0  0.4227654220537756  0.6936516042064736  0.05219671480017327  1.0000
  C   C211      1.0  0.4707860004870574  0.6795555200608913  0.033889553020467596  1.0000
  C   C212      1.0  0.4816817606399309  0.7245514020981773  0.08374856769285259  1.0000
  H   H177      1.0  0.45564683518449267  0.6525565260668951  0.1008080848695723  1.0000
  H   H178      1.0  0.41170692016614424  0.6300571152981885  0.07737874355757833  1.0000
  H   H179      1.0  0.42028007493043973  0.6634388083924159  0.11473056579605352  1.0000
  H   H180      1.0  0.4354815616197555  0.7173371084659121  0.033135806359363584  1.0000
  H   H181      1.0  0.40016096930081085  0.667436638795099  0.03770440419237405  1.0000
  H   H182      1.0  0.40817067712949673  0.7004617496133315  0.07507759098813535  1.0000
  H   H183      1.0  0.48396531635307505  0.7022756566266801  0.013696408086383727  1.0000
  H   H184      1.0  0.44987126629255986  0.652379517023377  0.01947276379112428  1.0000
  H   H185      1.0  0.49401558681923347  0.6767563424404618  0.04258815920821615  1.0000
  H   H186      1.0  0.4959236702520663  0.7486558729090446  0.06488826914821008  1.0000
  H   H187      1.0  0.504550191656827  0.7220304669337722  0.09393272051586217  1.0000
  H   H188      1.0  0.46891833037773956  0.7327388525999673  0.10729608700620967  1.0000
  N   N6        1.0  0.01227396559806282  0.6870339047081042  0.5549266677487212  1.0000
  C   C213      1.0  0.02211007123716424  0.6582511018010884  0.5559417259383455  1.0000
  C   C214      1.0  0.03647254010634904  0.7198532888178603  0.5798096769249979  1.0000
  C   C215      1.0  0.9714709557402659  0.6698802209847496  0.5661944660932933  1.0000
  C   C216      1.0  0.019006680149559196  0.70024518164694  0.5175105373021037  1.0000
  H   H189      1.0  0.05272005603913965  0.6703239621808442  0.5474838040880778  1.0000
  H   H190      1.0  0.004321032889917031  0.6332836759256254  0.5372067775391831  1.0000
  H   H191      1.0  0.017251241136698514  0.647468755983231  0.5837700851138244  1.0000
  H   H192      1.0  0.02911274160654287  0.7417014029781055  0.5800218423075594  1.0000
  H   H193      1.0  0.03284898863332564  0.7109997608887614  0.6082691740019172  1.0000
  H   H194      1.0  0.06742825738733127  0.7342800756948054  0.5713874479653875  1.0000
  H   H195      1.0  0.9632041507304443  0.6909555096779681  0.5658064112153037  1.0000
  H   H196      1.0  0.9651182144834355  0.659189514865901  0.5941949472428406  1.0000
  H   H197      1.0  0.9523713743811166  0.6454283897122675  0.547542548756541  1.0000
  H   H198      1.0  0.011750430870704154  0.7219144723125596  0.5159042971198885  1.0000
  H   H199      1.0  0.0012196821844807637  0.6763759210249428  0.4978577596650086  1.0000
  H   H200      1.0  0.04948100421471113  0.7134123131147231  0.5079826502501829  1.0000
  N   N7        1.0  0.17460781519663132  0.23785524446192188  0.021441569273028982  1.0000
  C   C217      1.0  0.1504954768451486  0.196036816427418  0.02428821413829252  1.0000
  C   C218      1.0  0.15471261303129855  0.2550836831330535  0.04032369363116271  1.0000
  C   C219      1.0  0.18178828819418769  0.24732954302820997  0.9826775575581864  1.0000
  C   C220      1.0  0.21151739927786062  0.2530599078130957  0.03831480426275622  1.0000
  H   H201      1.0  0.16479084989860887  0.1822791325059392  0.01024192459148665  1.0000
  H   H202      1.0  0.12247546082176206  0.18374290939385388  0.011667857715573993  1.0000
  H   H203      1.0  0.14450030358296417  0.187884517443808  0.0532152567739083  1.0000
  H   H204      1.0  0.1267290738665509  0.2442174592394992  0.028224262821973326  1.0000
  H   H205      1.0  0.14908631866817923  0.2489896214641185  0.06976243491041112  1.0000
  H   H206      1.0  0.17189359525312836  0.28663517749402917  0.03813169606298084  1.0000
  H   H207      1.0  0.1997838007654674  0.2786028611394314  0.9797779762018892  1.0000
  H   H208      1.0  0.15469779483992976  0.23680395401661739  0.9689542422584614  1.0000
  H   H209      1.0  0.19732377834201692  0.23539788697087843  0.9674763676198234  1.0000
  H   H210      1.0  0.23026227372538263  0.2845780938880027  0.036687712939997334  1.0000
  H   H211      1.0  0.22766251741569454  0.2412257237848692  0.024254304542644656  1.0000
  H   H212      1.0  0.20747216230054172  0.24631879631903933  0.06754318199996616  1.0000
  N   N8        1.0  0.7945006175688621  0.5613899882030234  0.17285802002418654  1.0000
  C   C221      1.0  0.8008747704719889  0.5934798609493124  0.1524619535620345  1.0000
  C   C222      1.0  0.7689749209244657  0.5251250233094189  0.15257348416683392  1.0000
  C   C223      1.0  0.7766363152289588  0.561317330344882  0.20910429587044363  1.0000
  C   C224      1.0  0.8315445796552122  0.5657366545506183  0.17752459464013295  1.0000
  H   H213      1.0  0.820247868634608  0.6212461579547284  0.16689258208579055  1.0000
  H   H214      1.0  0.7736126441556863  0.5914164707580664  0.1488279814139062  1.0000
  H   H215      1.0  0.8141398994560168  0.5944889789807984  0.12486983698101656  1.0000
  H   H216      1.0  0.7406571709430522  0.5207627232893554  0.14884823984361867  1.0000
  H   H217      1.0  0.7815119906311311  0.5242708036479661  0.12502494452496982  1.0000
  H   H218      1.0  0.7637353843175091  0.5003191408533963  0.16706967903158995  1.0000
  H   H219      1.0  0.7954245613137544  0.5883866269051471  0.22502432927196886  1.0000
  H   H220      1.0  0.7713652942772966  0.5373382330136997  0.22517725527174934  1.0000
  H   H221      1.0  0.7486743758135423  0.5582332112571611  0.2068249436322708  1.0000
  H   H222      1.0  0.8457175478497477  0.5653301348654919  0.15091638137157048  1.0000
  H   H223      1.0  0.8276957842011673  0.5421839300709623  0.19327496242709277  1.0000
  H   H224      1.0  0.8516907800565122  0.5931919271810132  0.19222843724043018  1.0000
  N   N9        1.0  0.4563496454599059  0.36877493065452377  0.08707897431633693  1.0000
  C   C225      1.0  0.44607508686406744  0.33754821706841404  0.059509231690745956  1.0000
  C   C226      1.0  0.4513328048001413  0.3544700799963014  0.1238216001945518  1.0000
  C   C227      1.0  0.43117970102194003  0.38301536694315325  0.08445410773920603  1.0000
  C   C228      1.0  0.4967856026051373  0.39987220262858364  0.08053691976706756  1.0000
  H   H225      1.0  0.4493100148683823  0.3471958342092009  0.03144030643568496  1.0000
  H   H226      1.0  0.4157484946812749  0.3135577673121094  0.0636675256075725  1.0000
  H   H227      1.0  0.46444995808445794  0.3260400811196593  0.06080437039308917  1.0000
  H   H228      1.0  0.4210957866170455  0.331124438973828  0.12979259854225367  1.0000
  H   H229      1.0  0.4694341736134771  0.34291500951913895  0.12664460008004275  1.0000
  H   H230      1.0  0.45911017177765834  0.37730687269276814  0.14533755826332428  1.0000
  H   H231      1.0  0.4382323315477361  0.40684091432086766  0.10462735839766224  1.0000
  H   H232      1.0  0.4005467522322799  0.3600686167538893  0.0897761195657798  1.0000
  H   H233      1.0  0.4335347243520179  0.39332006983485684  0.05685424988862198  1.0000
  H   H234      1.0  0.5162749324546498  0.3896872532679042  0.08248640140453234  1.0000
  H   H235      1.0  0.5056310463626895  0.42396900646137964  0.10085910854210156  1.0000
  H   H236      1.0  0.5017099124973771  0.4112555119128646  0.052975782873074584  1.0000
  N   N10       1.0  0.8965863650268446  0.28358269136580977  0.3788462074151691  1.0000
  C   C229      1.0  0.9310920072222696  0.30831505540667775  0.4001250902009934  1.0000
  C   C230      1.0  0.8696592709618449  0.29604766486792844  0.3862852403366329  1.0000
  C   C231      1.0  0.8778662881899344  0.2437092431259554  0.38940489519533006  1.0000
  C   C232      1.0  0.9078295649332062  0.2861805253768018  0.3396310369854371  1.0000
  H   H237      1.0  0.9519215113281665  0.2994988225857151  0.39530912728827533  1.0000
  H   H238      1.0  0.9236797869066841  0.3070956186687407  0.4298559890381914  1.0000
  H   H239      1.0  0.9460564795545188  0.33862114790222336  0.3928200806268778  1.0000
  H   H240      1.0  0.8829685751292384  0.326279668274264  0.37936804864745793  1.0000
  H   H241      1.0  0.8433936334645326  0.2782861020727907  0.3704787879393246  1.0000
  H   H242      1.0  0.8602819459480952  0.29388349593172197  0.41558449408818704  1.0000
  H   H243      1.0  0.8514458922554471  0.22420551251213808  0.3742818135785508  1.0000
  H   H244      1.0  0.8696508090157281  0.2407970745709825  0.4189455013385768  1.0000
  H   H245      1.0  0.8972480932690853  0.23328938601582208  0.3837821861509248  1.0000
  H   H246      1.0  0.8826808583789165  0.2671323367448107  0.3227193591169598  1.0000
  H   H247      1.0  0.9287179742546314  0.27760345802430464  0.3334240157947784  1.0000
  H   H248      1.0  0.9215611446400412  0.3157629521068788  0.3305245719704749  1.0000
  N   N11       1.0  0.28675560265951683  0.8245272850015217  0.7324224077891284  1.0000
  C   C233      1.0  0.31767146635193716  0.8174673563358532  0.7332026227691342  1.0000
  C   C234      1.0  0.27419006936112855  0.8287846741229804  0.770101466418055  1.0000
  C   C235      1.0  0.2539549894480085  0.7921807759830168  0.713264399896337  1.0000
  C   C236      1.0  0.30112667784308794  0.8597376025890535  0.7130061441019543  1.0000
  H   H249      1.0  0.32789748398075097  0.8142993609118075  0.7051937736183895  1.0000
  H   H250      1.0  0.30775228435635255  0.7909012051044361  0.7473437672408118  1.0000
  H   H251      1.0  0.34276267248800013  0.841486216189396  0.7474648097733797  1.0000
  H   H252      1.0  0.24932978656116242  0.8317303881383697  0.7704283982755856  1.0000
  H   H253      1.0  0.26507536158869127  0.8036151716248098  0.78624538300017  1.0000
  H   H254      1.0  0.2972590490509831  0.8545835407152866  0.7847519556232938  1.0000
  H   H255      1.0  0.2302972550121041  0.7969916434958995  0.7120050864571694  1.0000
  H   H256      1.0  0.24206296400709726  0.7650643053563013  0.7271833377793401  1.0000
  H   H257      1.0  0.26237497353433237  0.7881652689747257  0.6847308120106719  1.0000
  H   H258      1.0  0.27797217741954267  0.864743457632107  0.7102893830612664  1.0000
  H   H259      1.0  0.3122087898224532  0.8581260198138322  0.6849752595971131  1.0000
  H   H260      1.0  0.3246076219809376  0.8852825397464271  0.7274686639056428  1.0000
  N   N12       1.0  0.5109504966867467  0.2115670619027525  0.027898216476363924  1.0000
  C   C237      1.0  0.4983805435472568  0.2382967506113591  0.03513351112714691  1.0000
  C   C238      1.0  0.5358422927708341  0.21651023428602925  0.057028437576591484  1.0000
  C   C239      1.0  0.5324954359574219  0.21952759262256824  0.9924456313080767  1.0000
  C   C240      1.0  0.47703423782795357  0.17202269175092705  0.027016704541781733  1.0000
  H   H261      1.0  0.4783559682076379  0.23447324975550154  0.014495361799753415  1.0000
  H   H262      1.0  0.5231022846248334  0.2685313275459897  0.03533474676644843  1.0000
  H   H263      1.0  0.4831312075081628  0.23386068524299974  0.06216185324252965  1.0000
  H   H264      1.0  0.5466536661267043  0.19744922337523926  0.052138426852896824  1.0000
  H   H265      1.0  0.5612107409170225  0.24638442337134278  0.059173393983722455  1.0000
  H   H266      1.0  0.5201240882559768  0.2099119248867588  0.0840362311988978  1.0000
  H   H267      1.0  0.5421839099148504  0.19967465057308845  0.9859399953026671  1.0000
  H   H268      1.0  0.5584144972753783  0.24911520859728747  0.9923822224704755  1.0000
  H   H269      1.0  0.5145619605622318  0.2163946704599723  0.9699521660722152  1.0000
  H   H270      1.0  0.45948186641134464  0.1653822300438513  0.05304301116746846  1.0000
  H   H271      1.0  0.48523461378345456  0.15086475096090482  0.02233917406204977  1.0000
  H   H272      1.0  0.45781177976826487  0.167122675304959  0.005018729344483885  1.0000
  N   N13       1.0  0.20365563092414782  0.42570130893623975  0.5190775932694552  1.0000
  C   C241      1.0  0.18528456741049543  0.44031324770297936  0.4991103579082437  1.0000
  C   C242      1.0  0.19674514739478624  0.3899718234081249  0.5007820725933975  1.0000
  C   C243      1.0  0.18717511955997956  0.418092322207346  0.5567460799603382  1.0000
  C   C244      1.0  0.2453418284278636  0.4544037197010807  0.519788074882807  1.0000
  H   H273      1.0  0.15379203857872145  0.41929150285479877  0.4981027374062788  1.0000
  H   H274      1.0  0.19704815535740644  0.4464006724422314  0.47054549400271223  1.0000
  H   H275      1.0  0.18989925933212595  0.46720853542284874  0.5123425310019675  1.0000
  H   H276      1.0  0.21024444337892434  0.37816889843566814  0.5151459776910642  1.0000
  H   H277      1.0  0.16558584458900621  0.3674713543059779  0.5000709785738682  1.0000
  H   H278      1.0  0.20870676036334757  0.39446206238738296  0.4722478971021409  1.0000
  H   H279      1.0  0.20025470692095548  0.40678142700463205  0.5723650871601709  1.0000
  H   H280      1.0  0.15568627385385225  0.3968732276976391  0.5573870081076606  1.0000
  H   H281      1.0  0.19269618031480593  0.44459895421356405  0.571778976754616  1.0000
  H   H282      1.0  0.2601510861704847  0.44416936508301946  0.5344119690837129  1.0000
  H   H283      1.0  0.2516878906962372  0.4814130382378049  0.5343542708145832  1.0000
  H   H284      1.0  0.25883885591949063  0.46135171733370234  0.49188591048452457  1.0000
  N   N14       1.0  0.8384911604590343  0.8027224630959788  0.65799371910034  1.0000
  C   C245      1.0  0.8180650289485528  0.7625752586145171  0.6682849802955835  1.0000
  C   C246      1.0  0.8566660914616248  0.8282569388449582  0.6901518259939291  1.0000
  C   C247      1.0  0.8109449067951332  0.8100836387057863  0.6443392891395411  1.0000
  C   C248      1.0  0.8681205441436454  0.8100201276522812  0.6291058990207862  1.0000
  H   H285      1.0  0.8379968917389476  0.7559350686346881  0.6786749591759933  1.0000
  H   H286      1.0  0.8039061430042277  0.7426374212341065  0.6445553104704046  1.0000
  H   H287      1.0  0.7954094361031553  0.7561019879519453  0.6899726138711401  1.0000
  H   H288      1.0  0.8724154908700262  0.8587679331440186  0.6831477219343048  1.0000
  H   H289      1.0  0.834923214226501  0.8238215333138242  0.71222742061651  1.0000
  H   H290      1.0  0.877461766640185  0.8233664107281992  0.701514245072991  1.0000
  H   H291      1.0  0.8253454225918906  0.840253809500519  0.6367009113554266  1.0000
  H   H292      1.0  0.7878677136853729  0.8046146779046622  0.6652450351364166  1.0000
  H   H293      1.0  0.797108989529515  0.7918097296425557  0.6196553106256536  1.0000
  H   H294      1.0  0.8553125689580041  0.7909715436566204  0.6045241919275092  1.0000
  H   H295      1.0  0.8897922280410514  0.8052451258714626  0.6384558752038224  1.0000
  H   H296      1.0  0.8835409171037809  0.839884808302679  0.6201312153913071  1.0000
  N   N15       1.0  0.3434546721925444  0.23828513478429442  0.3680754303299005  1.0000
  C   C249      1.0  0.3812040955686185  0.2580908737252081  0.3844952647469874  1.0000
  C   C250      1.0  0.32216842336427565  0.1972082391998968  0.3751390090782385  1.0000
  C   C251      1.0  0.3489443112113326  0.24339700951101362  0.32834492576089297  1.0000
  C   C252      1.0  0.3215840097656877  0.25440574909094704  0.384510173876878  1.0000
  H   H297      1.0  0.39859898648532743  0.28897306845017445  0.37889480058564967  1.0000
  H   H298      1.0  0.39798613755237183  0.2458490710742656  0.3736699709424848  1.0000
  H   H299      1.0  0.3781518658136072  0.2556765762919457  0.4145644135127895  1.0000
  H   H300      1.0  0.3377498434510448  0.18404588121473875  0.36296786515062857  1.0000
  H   H301      1.0  0.3178963308728252  0.19236827274677282  0.4049166007922061  1.0000
  H   H302      1.0  0.2933915100658597  0.18138775998894438  0.36339889329627545  1.0000
  H   H303      1.0  0.321086636537461  0.2283182175158854  0.3148500517297624  1.0000
  H   H304      1.0  0.36584442836668307  0.2319233560296705  0.3153421306890292  1.0000
  H   H305      1.0  0.3646948167136719  0.2740312824415201  0.3219437605484053  1.0000
  H   H306      1.0  0.2928808968132624  0.24020872535186932  0.37282802995627384  1.0000
  H   H307      1.0  0.33696456650375306  0.28546987185539835  0.3800887275626325  1.0000
  H   H308      1.0  0.31702528366473154  0.25076246382507644  0.4145393480000421  1.0000
  N   N16       1.0  0.20292760301016266  0.9383958913059438  0.521782614919559  1.0000
  C   C253      1.0  0.17111846784914672  0.9128267566030366  0.49765540327401936  1.0000
  C   C254      1.0  0.22443467820517116  0.9775970513886552  0.5086354010476568  1.0000
  C   C255      1.0  0.22895382329618716  0.9248631911845132  0.5217459777259323  1.0000
  C   C256      1.0  0.18732801908961577  0.9382590523018459  0.5592201323831028  1.0000
  H   H309      1.0  0.15458099555195157  0.8829882233256953  0.5068251259733305  1.0000
  H   H310      1.0  0.18183868721073082  0.9121776470521418  0.4691794561546144  1.0000
  H   H311      1.0  0.15060474548261776  0.9218698751819294  0.4972342784664035  1.0000
  H   H312      1.0  0.23756263375444  0.9790142357666877  0.4808440949517266  1.0000
  H   H313      1.0  0.20564706897185958  0.9886384017252546  0.5077122619090343  1.0000
  H   H314      1.0  0.24815000840108348  0.9975576635496383  0.5268061584768122  1.0000
  H   H315      1.0  0.24100665101066157  0.9240645157953623  0.49394445615792415  1.0000
  H   H316      1.0  0.21387797845736528  0.8956458811496666  0.5320615193441478  1.0000
  H   H317      1.0  0.25342301785375193  0.9436549506464521  0.5394349751143619  1.0000
  H   H318      1.0  0.16795517174282604  0.948804692107506  0.5604531261968897  1.0000
  H   H319      1.0  0.21066052394956516  0.9567205245529774  0.578323162187254  1.0000
  H   H320      1.0  0.17061619256049557  0.9090373078440108  0.5698502815483849  1.0000
  N   N17       1.0  0.384838728799161  0.7353872569017204  0.7910784295851833  1.0000
  C   C257      1.0  0.42108586082246274  0.7676986192899494  0.8056052337829761  1.0000
  C   C258      1.0  0.3560843946916643  0.7456582331676503  0.7927295495034432  1.0000
  C   C259      1.0  0.37055241823733487  0.7017629891299862  0.8130854833488568  1.0000
  C   C260      1.0  0.3916756620341323  0.726413103464548  0.752859591930158  1.0000
  H   H321      1.0  0.44325854198943443  0.7607047571162738  0.8048631026572494  1.0000
  H   H322      1.0  0.416979909183497  0.775269175806818  0.8344536120036572  1.0000
  H   H323      1.0  0.4329299688646145  0.7935492135516728  0.7895878682782806  1.0000
  H   H324      1.0  0.3283968994494205  0.7217731679071608  0.7820474059357111  1.0000
  H   H325      1.0  0.3501809387196911  0.7525919682429111  0.8212268478131497  1.0000
  H   H326      1.0  0.3660396048276378  0.7709611963230161  0.7764632481847838  1.0000
  H   H327      1.0  0.3434934457644879  0.6765983222123536  0.8027362812954382  1.0000
  H   H328      1.0  0.3647528788693126  0.70755042456948  0.8420139420829656  1.0000
  H   H329      1.0  0.3917623882437587  0.6935252773902193  0.8128581227021443  1.0000
  H   H330      1.0  0.36501241798285233  0.7020146502707628  0.7409438417147862  1.0000
  H   H331      1.0  0.4133249257778464  0.718699975711312  0.7506605610245098  1.0000
  H   H332      1.0  0.40250854795066554  0.7511162447668269  0.7353691578163576  1.0000
  N   N18       1.0  0.8289903007366954  0.025199115968440378  0.9262731420132667  1.0000
  C   C261      1.0  0.8562394914293093  0.01313698809004493  0.9265110720903748  1.0000
  C   C262      1.0  0.8271400678398257  0.03410075990505712  0.888810853916883  1.0000
  C   C263      1.0  0.8418962394943821  0.05935953752019034  0.950674815344453  1.0000
  C   C264      1.0  0.7905952436844433  0.9940428658710618  0.9390669053236098  1.0000
  H   H333      1.0  0.885544887280977  0.035878329137149834  0.9170008086801809  1.0000
  H   H334      1.0  0.8471737447890966  0.987251347471306  0.9084745329960079  1.0000
  H   H335      1.0  0.8583368693379579  0.006115044213466093  0.9543358253618378  1.0000
  H   H336      1.0  0.8177690151055067  0.008844633811456502  0.869757655287337  1.0000
  H   H337      1.0  0.8064419491381462  0.04278488922165973  0.8874785509381239  1.0000
  H   H338      1.0  0.8555977726736047  0.057631650492553484  0.8783458027023199  1.0000
  H   H339      1.0  0.8224797578579702  0.06977136110216832  0.9505866481935704  1.0000
  H   H340      1.0  0.8713534087797058  0.08314637666791512  0.9427589248198939  1.0000
  H   H341      1.0  0.8423618909710346  0.05312710443457915  0.9793008263928703  1.0000
  H   H342      1.0  0.7694516830124404  0.0024163291010301786  0.9405203875919493  1.0000
  H   H343      1.0  0.7912075605454026  0.9855815351648  0.966671226693001  1.0000
  H   H344      1.0  0.7795055019438295  0.9681557722052536  0.9207810169250298  1.0000
  N   N19       1.0  0.46338386740633897  0.1475321968092126  0.5615322607140595  1.0000
  C   C265      1.0  0.48242293826904764  0.13210585356508286  0.5791026851950289  1.0000
  C   C266      1.0  0.42354151109499333  0.1296212463567746  0.576423893573215  1.0000
  C   C267      1.0  0.4631671935546991  0.13911488860155063  0.5218685311725639  1.0000
  C   C268      1.0  0.48434995902435446  0.18924193604071168  0.5686509969987699  1.0000
  H   H345      1.0  0.512646731612458  0.1452517498741996  0.5685967281066351  1.0000
  H   H346      1.0  0.46737598583972334  0.10069818690167094  0.5739710833368415  1.0000
  H   H347      1.0  0.4828526399753789  0.13770617120159515  0.6091162111338241  1.0000
  H   H348      1.0  0.4083501867410718  0.14057710840343232  0.563601291371288  1.0000
  H   H349      1.0  0.40677986033486474  0.09810299721839189  0.5714032954548283  1.0000
  H   H350      1.0  0.42244690901813753  0.1353364640229887  0.606308820842543  1.0000
  H   H351      1.0  0.4926285263206779  0.15103740889513226  0.5097657423549743  1.0000
  H   H352      1.0  0.45011407953773247  0.15142958847009833  0.5076323816811096  1.0000
  H   H353      1.0  0.4461998568157298  0.10786135572893008  0.5152798377989154  1.0000
  H   H354      1.0  0.5143700344669528  0.20392925264453315  0.5571867937085694  1.0000
  H   H355      1.0  0.4855320025839507  0.19684223054234778  0.5982958917324593  1.0000
  H   H356      1.0  0.4704573760112021  0.2017328841777738  0.5560970547388306  1.0000
  N   N20       1.0  0.8838335140322581  0.06606631533543199  0.17001050966258818  1.0000
  C   C269      1.0  0.8581865186602464  0.07745216940453067  0.15954152876619573  1.0000
  C   C270      1.0  0.8605784568269851  0.02694336343018455  0.18332337241786278  1.0000
  C   C271      1.0  0.9084314354573783  0.09268592285049523  0.1991147243101134  1.0000
  C   C272      1.0  0.908029696724196  0.06723744009230631  0.13796306909934047  1.0000
  H   H357      1.0  0.8749270968494922  0.10633179549283013  0.1483736634148397  1.0000
  H   H358      1.0  0.8405437132567549  0.07850922342682666  0.18330891267511545  1.0000
  H   H359      1.0  0.8384254037012255  0.057486323822221526  0.138343429386365  1.0000
  H   H360      1.0  0.8789951981397516  0.01737119139048482  0.19150037083757857  1.0000
  H   H361      1.0  0.8418232674462381  0.02509160869743198  0.2073652525981588  1.0000
  H   H362      1.0  0.8417245188463207  0.006219675123257051  0.16189642570315202  1.0000
  H   H363      1.0  0.9260523349859102  0.1225415421644942  0.1900182226950977  1.0000
  H   H364      1.0  0.9283316775811711  0.0851892492926713  0.20776385988036528  1.0000
  H   H365      1.0  0.8910603693506925  0.0928475671076101  0.22359106431827355  1.0000
  H   H366      1.0  0.9278746484118549  0.058892156600247735  0.1447085671716224  1.0000
  H   H367      1.0  0.9257532397811121  0.09633696201084331  0.127010142278494  1.0000
  H   H368      1.0  0.8903312429456648  0.04763573528038574  0.11540700431741661  1.0000
  N   N21       1.0  0.8537005935937285  0.5193667474191822  0.3534734980745254  1.0000
  C   C273      1.0  0.8833085165084485  0.5488848291893843  0.3776584270974121  1.0000
  C   C274      1.0  0.8474308088736765  0.5377463595672187  0.32466869836070844  1.0000
  C   C275      1.0  0.8175402412911386  0.4959677264266015  0.3750013596074573  1.0000
  C   C276      1.0  0.8664554616819824  0.49476705033411883  0.3366713467029239  1.0000
  H   H369      1.0  0.8891287069492041  0.5358237987257909  0.399257479338808  1.0000
  H   H370      1.0  0.8742446222208563  0.5673871177607668  0.3916316091833947  1.0000
  H   H371      1.0  0.9108745771536905  0.5676972369610759  0.3623715622555671  1.0000
  H   H372      1.0  0.8377179510135908  0.5564540166934474  0.3365001396237354  1.0000
  H   H373      1.0  0.8741431527362855  0.555614358864739  0.3078273307765634  1.0000
  H   H374      1.0  0.8251953198673772  0.5161511805582488  0.30594215937022584  1.0000
  H   H375      1.0  0.8209128583002446  0.4808188252187776  0.3963406357120542  1.0000
  H   H376      1.0  0.7941958968694673  0.4739391366187873  0.3577537168285746  1.0000
  H   H377      1.0  0.8074851848023424  0.51360991786421  0.3890086712095706  1.0000
  H   H378      1.0  0.8942842150865135  0.511564342229078  0.3211081468975337  1.0000
  H   H379      1.0  0.8453490813035923  0.47298617785165237  0.31740971549297764  1.0000
  H   H380      1.0  0.8699040665208118  0.47916036380714816  0.3575436455849159  1.0000
  N   N22       1.0  0.6050797543966299  0.765118380370596  0.6602228015456411  1.0000
  C   C277      1.0  0.5978950834443203  0.7395567337297599  0.6276871367457043  1.0000
  C   C278      1.0  0.6043677843588339  0.7982337264909222  0.6505205619075701  1.0000
  C   C279      1.0  0.6430753760448792  0.7786074709690396  0.6737712239775953  1.0000
  C   C280      1.0  0.5750503677365802  0.7441249979640255  0.688806339571253  1.0000
  H   H381      1.0  0.5972401954342071  0.7137566663897597  0.6341368010717866  1.0000
  H   H382      1.0  0.6205895369608939  0.754156209268428  0.6059123673774289  1.0000
  H   H383      1.0  0.5700132787285911  0.7297983883376342  0.6159445417656289  1.0000
  H   H384      1.0  0.6076583455706895  0.8171301493942117  0.6747581371561854  1.0000
  H   H385      1.0  0.6279496363829512  0.815733635296285  0.6304130483810636  1.0000
  H   H386      1.0  0.5769663673504252  0.7892027326037333  0.6382198413298155  1.0000
  H   H387      1.0  0.6663028675221191  0.7941391346493727  0.65259567240394  1.0000
  H   H388      1.0  0.6447482130440284  0.754543728941494  0.6817070401842205  1.0000
  H   H389      1.0  0.6499076864083475  0.798551607386582  0.6979274778888479  1.0000
  H   H390      1.0  0.5790087605293927  0.7626489929315642  0.7135641234642494  1.0000
  H   H391      1.0  0.5748651497751469  0.7190977054925811  0.6970656527343136  1.0000
  H   H392      1.0  0.5460338998452553  0.7332878684149658  0.6792493552922574  1.0000
  N   N23       1.0  0.34335975658848916  0.34400684212549804  0.6927714284943778  1.0000
  C   C281      1.0  0.37483097922143305  0.377666223622334  0.6737885996860105  1.0000
  C   C282      1.0  0.3152775121589725  0.3169289556644859  0.6661157031378415  1.0000
  C   C283      1.0  0.32425247621474984  0.35612701309901  0.7206555063001817  1.0000
  C   C284      1.0  0.3590044817631576  0.3252377575617399  0.7104125504591521  1.0000
  H   H393      1.0  0.3894262898736728  0.36944767487307295  0.6520634826538013  1.0000
  H   H394      1.0  0.3967448514494877  0.3987759907968944  0.6928964861140287  1.0000
  H   H395      1.0  0.3640048407400758  0.39248146281179225  0.6600701956020354  1.0000
  H   H396      1.0  0.3033078638068315  0.3304190821349518  0.6522069427640929  1.0000
  H   H397      1.0  0.3286697783327396  0.3073387382222852  0.644387639814619  1.0000
  H   H398      1.0  0.2907723114805121  0.29131626487784623  0.6793510999660778  1.0000
  H   H399      1.0  0.2998032307562741  0.3313848339201853  0.7350558344190635  1.0000
  H   H400      1.0  0.3124382209882975  0.37067722554152815  0.7082436989493816  1.0000
  H   H401      1.0  0.34434103728019605  0.37633882687890896  0.74153779991062  1.0000
  H   H402      1.0  0.3359401377283125  0.2997244830881364  0.7249666339574149  1.0000
  H   H403      1.0  0.38035063126075747  0.34489893656646053  0.7306913018921265  1.0000
  H   H404      1.0  0.37351777428788013  0.31567933960343475  0.6900289865826035  1.0000
  N   N24       1.0  0.7806800573344088  0.09765854115675775  0.5264505818798837  1.0000
  C   C285      1.0  0.8085381196123796  0.12570644332727945  0.5527965921630442  1.0000
  C   C286      1.0  0.7505686076390093  0.1054098914438156  0.5229545577073682  1.0000
  C   C287      1.0  0.7632203397380141  0.05878277176801428  0.5394214027855929  1.0000
  C   C288      1.0  0.8004832585402406  0.10082093300751155  0.4905921991221099  1.0000
  H   H405      1.0  0.8224621195440734  0.15537872905244865  0.5437191436220138  1.0000
  H   H406      1.0  0.8316431549343388  0.12068609995846406  0.5562079206134377  1.0000
  H   H407      1.0  0.7945706990316489  0.12433623299373386  0.5801016477335469  1.0000
  H   H408      1.0  0.7293015178507657  0.08513866411211952  0.5029225232575396  1.0000
  H   H409      1.0  0.7349194376995927  0.10319198523924433  0.5494596124188807  1.0000
  H   H410      1.0  0.7630535213186382  0.13474635411746325  0.513477161837046  1.0000
  H   H411      1.0  0.7418449024342315  0.03683163869109363  0.5203621240628947  1.0000
  H   H412      1.0  0.748535141422614  0.055429629298706755  0.5667082139905895  1.0000
  H   H413      1.0  0.7852476762324132  0.05202757177691225  0.541853846441181  1.0000
  H   H414      1.0  0.7807229806715636  0.07925007589626656  0.4702791507719304  1.0000
  H   H415      1.0  0.8244340080968018  0.09676073243607686  0.4923977613154419  1.0000
  H   H416      1.0  0.8129364130987051  0.12935083601276698  0.4794295277532188  1.0000
  N   N25       1.0  0.9846765434142734  0.34565422450218136  0.06725339229295613  1.0000
  C   C289      1.0  0.9810529503103462  0.31443536345320067  0.0426430020307067  1.0000
  C   C290      1.0  0.025235596982903674  0.37771885210417944  0.06740477950844159  1.0000
  C   C291      1.0  0.9714731354700697  0.33184492000577237  0.10447548922649297  1.0000
  C   C292      1.0  0.9607586857508669  0.35828092961189634  0.0546620692321651  1.0000
  H   H417      1.0  0.9506373560366418  0.2899810070833955  0.04148979076042503  1.0000
  H   H418      1.0  0.9980770176355662  0.30363022742513257  0.05189491765663923  1.0000
  H   H419      1.0  0.9914132533483702  0.3239312330149323  0.014384997033571656  1.0000
  H   H420      1.0  0.029132915463837783  0.40164677889523603  0.08602609976618991  1.0000
  H   H421      1.0  0.04374070987005263  0.3686131666228269  0.07670665898792661  1.0000
  H   H422      1.0  0.036245287000813864  0.38895044666800743  0.03973546485939594  1.0000
  H   H423      1.0  0.972456221040896  0.3541214794617132  0.12368344008738541  1.0000
  H   H424      1.0  0.989436626121829  0.3229808259577723  0.1153415642835105  1.0000
  H   H425      1.0  0.9414483948134925  0.3067949495808816  0.10491150308173802  1.0000
  H   H426      1.0  0.9625682283152233  0.3816824099087455  0.07273258343248457  1.0000
  H   H427      1.0  0.9299444780460749  0.33446041052511505  0.05458039033174433  1.0000
  H   H428      1.0  0.9696215021157086  0.3686969709379817  0.026530829913749887  1.0000
  N   N26       1.0  0.1584342914367728  0.9349698773898344  0.04984108088023855  1.0000
  C   C293      1.0  0.18708133073579  0.9644964132336398  0.024979601971757415  1.0000
  C   C294      1.0  0.11976346930487923  0.9170003853613804  0.035721333977048415  1.0000
  C   C295      1.0  0.15976694229777313  0.9525460843164409  0.08645194720363078  1.0000
  C   C296      1.0  0.16720328307392876  0.9056025802445751  0.052153059632437125  1.0000
  H   H429      1.0  0.2167717455884107  0.9776907258110447  0.03415040854927728  1.0000
  H   H430      1.0  0.18203461186939346  0.9877240127282987  0.023192458981027286  1.0000
  H   H431      1.0  0.18615353580373908  0.9522354166667909  0.996924326386881  1.0000
  H   H432      1.0  0.09752949858723832  0.8940416487120197  0.053508598258803365  1.0000
  H   H433      1.0  0.11184954292758527  0.9381330393094717  0.03374650193693307  1.0000
  H   H434      1.0  0.11800159798387744  0.9035447746419796  0.00802351184731065  1.0000
  H   H435      1.0  0.1386270915347309  0.9309032876305742  0.10589707803209122  1.0000
  H   H436      1.0  0.15320759833113334  0.9748548816423308  0.08581038481537004  1.0000
  H   H437      1.0  0.1886843069904005  0.9662615328173779  0.09769001104817454  1.0000
  H   H438      1.0  0.1462118879833957  0.8827754586894793  0.07066528229283434  1.0000
  H   H439      1.0  0.1962608332639761  0.9179550959803955  0.06242222756204524  1.0000
  H   H440      1.0  0.16623006324007505  0.8918045494881733  0.024941895169797723  1.0000
  N   N27       1.0  0.9748272085604134  0.6896456544565109  0.0006132002442016393  1.0000
  C   C297      1.0  0.9721132127113459  0.6870199926503918  0.04057618407504773  1.0000
  C   C298      1.0  0.015435202026335082  0.7089625165323922  0.9877312699690285  1.0000
  C   C299      1.0  0.9590143378167142  0.7117002265142448  0.9907436477250899  1.0000
  C   C300      1.0  0.9526480798892861  0.6508689475404237  0.9835205503703648  1.0000
  H   H441      1.0  0.9872234974848149  0.7157256233266489  0.05454966581596549  1.0000
  H   H442      1.0  0.9848611802654438  0.6716577173101814  0.04923202781818233  1.0000
  H   H443      1.0  0.9417974864308052  0.6715008406833805  0.05101024937514781  1.0000
  H   H444      1.0  0.02812360301066197  0.6927788632538374  0.9941567152229802  1.0000
  H   H445      1.0  0.018835773704722003  0.7124827415833445  0.9577997443620692  1.0000
  H   H446      1.0  0.03300645305954131  0.7378870931485506  0.0009148595369807833  1.0000
  H   H447      1.0  0.974854725191603  0.7410280349281748  0.0033284624471152657  1.0000
  H   H448      1.0  0.9283999552927082  0.6979532489694339  0.00016439340413287873  1.0000
  H   H449      1.0  0.9605441466531269  0.7142799773063744  0.9607871103659561  1.0000
  H   H450      1.0  0.9217757550436779  0.6357603779344263  0.9925213436535613  1.0000
  H   H451      1.0  0.9632885524584587  0.6331417917127485  0.990887406637698  1.0000
  H   H452      1.0  0.9541968013748893  0.6516729951906396  0.9533327620946171  1.0000
  N   N28       1.0  0.7412931126708961  0.27863902553222664  0.21363463117502704  1.0000
  C   C301      1.0  0.7319510662629688  0.282314462105965  0.176956776522506  1.0000
  C   C302      1.0  0.7708151812694554  0.26934307626306975  0.21023252443700122  1.0000
  C   C303      1.0  0.7064108467946542  0.24802798266826712  0.23243291445032352  1.0000
  C   C304      1.0  0.7561346959553709  0.3149454670086045  0.23501239785029066  1.0000
  H   H453      1.0  0.7096907412956968  0.2893075750464798  0.17833021378749855  1.0000
  H   H454      1.0  0.7209978220048865  0.2555574285260956  0.15997458291476985  1.0000
  H   H455      1.0  0.7576437534661107  0.30529559906290604  0.16203280315041244  1.0000
  H   H456      1.0  0.7977379767741025  0.292564168440238  0.19706740903833783  1.0000
  H   H457      1.0  0.7781815575258096  0.2657913045421705  0.23732410348764071  1.0000
  H   H458      1.0  0.7613362408597008  0.24274490755288  0.19334640756128432  1.0000
  H   H459      1.0  0.6835725190472204  0.2542350645884095  0.2350627842360671  1.0000
  H   H460      1.0  0.7123722152486003  0.24488902316048325  0.2603883106373274  1.0000
  H   H461      1.0  0.6946815782764664  0.22011407462430188  0.21727275503157137  1.0000
  H   H462      1.0  0.7641156579888106  0.31344041176942916  0.2626236941818682  1.0000
  H   H463      1.0  0.7347046439391136  0.32297896344322785  0.2386791114780957  1.0000
  H   H464      1.0  0.7822975575692221  0.3387838549981672  0.2214344956192093  1.0000
  N   N29       1.0  0.10896379995803018  0.2550525532596045  0.6560307212043885  1.0000
  C   C305      1.0  0.13916817126536118  0.2573864490273499  0.6304110875120299  1.0000
  C   C306      1.0  0.07212526170466194  0.23471070843365083  0.6377606306767234  1.0000
  C   C307      1.0  0.1192057777334048  0.2939021619585099  0.6677964198048293  1.0000
  C   C308      1.0  0.10552706097393316  0.23430019925216383  0.6882199073175299  1.0000
  H   H465      1.0  0.13218090718646391  0.22865924139911947  0.6204295959529523  1.0000
  H   H466      1.0  0.16716618880839618  0.27195865156902815  0.6435338897965065  1.0000
  H   H467      1.0  0.14322746934104402  0.27351622060954295  0.6060876590684245  1.0000
  H   H468      1.0  0.048719291316118074  0.23292506734938795  0.656031012490782  1.0000
  H   H469      1.0  0.0740430048952303  0.2494167701338796  0.6130280649770873  1.0000
  H   H470      1.0  0.06334127402723633  0.20517844795652784  0.6287946426256045  1.0000
  H   H471      1.0  0.09726977522262281  0.2932254697591164  0.6875085496988421  1.0000
  H   H472      1.0  0.12175051367584677  0.31035892181759656  0.6443023229176893  1.0000
  H   H473      1.0  0.1471030712197372  0.31016474625000695  0.681409339198546  1.0000
  H   H474      1.0  0.08297836535254244  0.23191925251937973  0.7081994048504141  1.0000
  H   H475      1.0  0.1329526846572544  0.24925593184588465  0.7026282382857174  1.0000
  H   H476      1.0  0.09827315376773305  0.20499795591834943  0.6804380387765688  1.0000
  N   N30       1.0  0.9147541384137776  0.9928108828672827  0.5301209765721717  1.0000
  C   C309      1.0  0.9127509896064108  0.9624990614475213  0.5051660484415927  1.0000
  C   C310      1.0  0.879077787443042  0.9766397277352955  0.5531087837890335  1.0000
  C   C311      1.0  0.9194062822788549  0.023559792785163625  0.5086929535453533  1.0000
  C   C312      1.0  0.9476419317547199  0.008408300754841891  0.5536184253892531  1.0000
  H   H477      1.0  0.9389330649111101  0.9737026814658281  0.4869553963150639  1.0000
  H   H478      1.0  0.887630528181488  0.9494697253833927  0.4876717883529061  1.0000
  H   H479      1.0  0.9096775197667929  0.9390348409973208  0.5204665285220619  1.0000
  H   H480      1.0  0.8791856564496903  0.9986364925327266  0.5721380594972988  1.0000
  H   H481      1.0  0.8536920036799692  0.9641979962558791  0.5362100328656144  1.0000
  H   H482      1.0  0.8747168482951281  0.9535222634028776  0.5698578898393872  1.0000
  H   H483      1.0  0.9197744790182889  0.046386415145272045  0.5265905679807705  1.0000
  H   H484      1.0  0.8955197490513994  0.012579741572964265  0.4899962804716808  1.0000
  H   H485      1.0  0.9464949313750327  0.03717070829010093  0.49162703705351624  1.0000
  H   H486      1.0  0.9447944159683686  0.9858104358349113  0.5701918666608473  1.0000
  H   H487      1.0  0.9497941557836866  0.031269076509550235  0.5728203251163778  1.0000
  H   H488      1.0  0.9751210483864378  0.020797973426093463  0.5372182926816617  1.0000
  N   N31       1.0  0.6449521364537957  0.8257499073839096  0.8509005513096853  1.0000
  C   C313      1.0  0.6605048345851936  0.8022574060216073  0.8562352211296689  1.0000
  C   C314      1.0  0.6161021644178154  0.8070786799270602  0.8227013030116778  1.0000
  C   C315      1.0  0.676433424664442  0.8638498603402845  0.8392509645508892  1.0000
  C   C316      1.0  0.6267738965124272  0.829753704051898  0.8854809907161842  1.0000
  H   H489      1.0  0.6829284186372473  0.8158804200925017  0.8768458897219995  1.0000
  H   H490      1.0  0.673808553158795  0.7979231776851732  0.8305993090643581  1.0000
  H   H491      1.0  0.637817527523217  0.7736906609028874  0.8662857226107475  1.0000
  H   H492      1.0  0.5920904207941395  0.7781230341744308  0.8306708568233829  1.0000
  H   H493      1.0  0.6035005569030659  0.8238618038907369  0.8181969753233673  1.0000
  H   H494      1.0  0.6289178410234683  0.8037562707911609  0.7961987728431938  1.0000
  H   H495      1.0  0.699105276763169  0.8782831489801257  0.8596383709088251  1.0000
  H   H496      1.0  0.6660311555906948  0.882718298191275  0.8356539373661385  1.0000
  H   H497      1.0  0.6903842163082299  0.8619639787476625  0.8128997113615178  1.0000
  H   H498      1.0  0.6162712867998221  0.8487604714139516  0.8831568896993092  1.0000
  H   H499      1.0  0.6470996261831954  0.8416403493826592  0.9079603649266249  1.0000
  H   H500      1.0  0.6017726152393319  0.801709823745166  0.8941156729042986  1.0000
  N   N32       1.0  0.8577719485401515  0.7556090145627717  0.3685701766653369  1.0000
  C   C317      1.0  0.8305371132082389  0.7376151357033282  0.3999085915378838  1.0000
  C   C318      1.0  0.8542233019332144  0.7858277547163645  0.35533734361544533  1.0000
  C   C319      1.0  0.8492842425858473  0.7265269667843219  0.33900070087023043  1.0000
  C   C320      1.0  0.8972098743139097  0.7724888812830929  0.38005997321166046  1.0000
  H   H501      1.0  0.8328992614501294  0.7149873467759561  0.4108418088397166  1.0000
  H   H502      1.0  0.8003714283403514  0.7242380581745715  0.39237134230436993  1.0000
  H   H503      1.0  0.8361416967526984  0.7587038014894996  0.42284144405461194  1.0000
  H   H504      1.0  0.8743255989542557  0.799716232015993  0.33153031313065484  1.0000
  H   H505      1.0  0.8247241045502987  0.7741446558293001  0.3466075922097377  1.0000
  H   H506      1.0  0.860805489826227  0.8084020837842567  0.3769251852890778  1.0000
  H   H507      1.0  0.8704083567408468  0.7387449275172527  0.3155052800097075  1.0000
  H   H508      1.0  0.8202867115342688  0.7140955304792005  0.32859543447842426  1.0000
  H   H509      1.0  0.8503920661993875  0.7026518169149395  0.34852821848140547  1.0000
  H   H510      1.0  0.9187607937459884  0.7868134918783201  0.3573022437268996  1.0000
  H   H511      1.0  0.901112548365392  0.7503063241400738  0.3893070099575833  1.0000
  H   H512      1.0  0.9044537205967789  0.7938633295563008  0.4030102780322383  1.0000
