data_image0
_chemical_formula_structural       FeS2FeS2FeSFeS3FeS2FeS2FeSFeS3FeS2FeS2FeSFeS3FeS2FeS2FeSFeS3FeS2FeS2FeSFeS3FeS2FeS2FeSFeS3FeS2FeS2FeSFeS3FeS2FeS2FeSFeS3FeS2FeS2FeSFeS3FeS2FeS2FeSFeS3FeS2FeS2FeSFeS3FeS2FeS2FeSFeS3FeS2FeS2FeSFeS3FeS2FeS2FeSFeS3C6H4C6H4C6H4C6H4C6H4C6H4C6H4C6H4C6H4C6H4C6H4C6H4C6H4C6H4C6H4C6H4C6H4C6H4C6H4C6H4C6H4C6H4C6H4C6H4C6H4C6H4C6H4C6H4NC4H12NC4H12NC4H12NC4H12NC4H12NC4H12NC4H12NC4H12NC4H12NC4H12NC4H12NC4H12NC4H12NC4H12NC4H12NC4H12NC4H12NC4H12NC4H12NC4H12NC4H12NC4H12NC4H12NC4H12NC4H12NC4H12NC4H12NC4H12
_chemical_formula_sum              "Fe56 S112 C280 H448 N28"
_cell_length_a       37.10395688698522
_cell_length_b       42.412636110458706
_cell_length_c       57.14572618791445
_cell_angle_alpha    84.20338353067534
_cell_angle_beta     84.52288972127853
_cell_angle_gamma    116.59969959585003

_space_group_name_H-M_alt    "P 1"
_space_group_IT_number       1

loop_
  _space_group_symop_operation_xyz
  'x, y, z'

loop_
  _atom_site_type_symbol
  _atom_site_label
  _atom_site_symmetry_multiplicity
  _atom_site_fract_x
  _atom_site_fract_y
  _atom_site_fract_z
  _atom_site_occupancy
  Fe  Fe1       1.0  0.8449311493418165  0.8882603069776737  0.6279265718548168  1.0000
  S   S1        1.0  0.8343453368356075  0.8523715688515863  0.6002938460757071  1.0000
  S   S2        1.0  0.7917817957725176  0.8855729794982212  0.6520971199333992  1.0000
  Fe  Fe2       1.0  0.9366269100225968  0.9256005407789982  0.6134028941326126  1.0000
  S   S3        1.0  0.9340652012246987  0.8930180144383486  0.5846204097856227  1.0000
  S   S4        1.0  0.0006003444556548221  0.9642720346743074  0.616811441724553  1.0000
  Fe  Fe3       1.0  0.881474317044572  0.901715345349969  0.5760471988567425  1.0000
  S   S5        1.0  0.8804699559098326  0.9181873294572913  0.5376646754155223  1.0000
  Fe  Fe4       1.0  0.8879627201527799  0.8469750272259687  0.6113814672179594  1.0000
  S   S6        1.0  0.8890698233794795  0.7943470733966043  0.6160637852374271  1.0000
  S   S7        1.0  0.8877835132501181  0.9386080695425846  0.6026464529565638  1.0000
  S   S8        1.0  0.8948051327670056  0.8786104766282399  0.6412049578767894  1.0000
  Fe  Fe5       1.0  0.17918881459131686  0.15517059933119703  0.6212232327377746  1.0000
  S   S9        1.0  0.11773878782164711  0.12146990516014304  0.6117598221986953  1.0000
  S   S10       1.0  0.2251037556070621  0.13444321639790088  0.6161819738643123  1.0000
  Fe  Fe6       1.0  0.15842194360093173  0.21422521269216316  0.6321642688663236  1.0000
  S   S11       1.0  0.09511057186788352  0.18482559603122017  0.6235157793336639  1.0000
  S   S12       1.0  0.17301412629957372  0.269863956209466  0.6393392932677027  1.0000
  Fe  Fe7       1.0  0.09378117965206571  0.1365076611481936  0.6439529602324178  1.0000
  S   S13       1.0  0.03436132306270499  0.09724239595983061  0.6668205967724465  1.0000
  Fe  Fe8       1.0  0.12449265493724453  0.172474192803172  0.5923208592664261  1.0000
  S   S14       1.0  0.10209820798056914  0.1710374439647123  0.5572585865433299  1.0000
  S   S15       1.0  0.15496158009847602  0.16638296250047604  0.6553968807297744  1.0000
  S   S16       1.0  0.18815888490436772  0.20564373336663822  0.5988571228876416  1.0000
  Fe  Fe9       1.0  0.11542700890788021  0.8586968269251284  0.6207669328200339  1.0000
  S   S17       1.0  0.11864011535413635  0.910179326228166  0.6041222472560679  1.0000
  S   S18       1.0  0.061098744866714315  0.804285315770681  0.6276101600535784  1.0000
  Fe  Fe10      1.0  0.20480326873798288  0.8926326076272008  0.6264575591714724  1.0000
  S   S19       1.0  0.21624170556773512  0.947642143447389  0.6101130608431823  1.0000
  S   S20       1.0  0.2550062880072396  0.8798111276757375  0.6360732617243353  1.0000
  Fe  Fe11      1.0  0.15626835852841367  0.9337714265130308  0.6322353959642049  1.0000
  S   S21       1.0  0.13833486606996176  0.9683266450059094  0.6529223601721617  1.0000
  Fe  Fe12      1.0  0.1777689218156483  0.9195815424700114  0.5834047774205214  1.0000
  S   S22       1.0  0.19243207519035793  0.94099814066278  0.5441531933051413  1.0000
  S   S23       1.0  0.14783180650788713  0.8811153633816647  0.6508649422961799  1.0000
  S   S24       1.0  0.1716109030433493  0.8659758628171021  0.5976111056290089  1.0000
  Fe  Fe13      1.0  0.8578895560228765  0.7852727923754232  0.39137091532885127  1.0000
  S   S25       1.0  0.8324589586686133  0.8161691679402623  0.3706343310062706  1.0000
  S   S26       1.0  0.8889329002638767  0.7544222752206888  0.3778146065224457  1.0000
  Fe  Fe14      1.0  0.8372338763588547  0.8050047391999999  0.43871122375764166  1.0000
  S   S27       1.0  0.8086061164891154  0.8371277283743479  0.4225793401975043  1.0000
  S   S28       1.0  0.8461501880912436  0.7941620628394391  0.47669233135167655  1.0000
  Fe  Fe15      1.0  0.7806421009576282  0.7923526632217824  0.40136256559921774  1.0000
  S   S29       1.0  0.7139492990454818  0.76397813730891  0.39739832240256934  1.0000
  Fe  Fe16      1.0  0.862389169592663  0.8582724302472784  0.39312742974702225  1.0000
  S   S30       1.0  0.9017792964969327  0.9157956285673059  0.3766145292865018  1.0000
  S   S31       1.0  0.8042382225919811  0.7582424445018322  0.4203761469351307  1.0000
  S   S32       1.0  0.8927362119935074  0.8294873723160756  0.4108606956529552  1.0000
  Fe  Fe17      1.0  0.15345021376326903  0.09288926455101269  0.45477614782604564  1.0000
  S   S33       1.0  0.1884737783258576  0.1291218961137411  0.42039326573913144  1.0000
  S   S34       1.0  0.17827561128389696  0.10051559271138438  0.4894319532743749  1.0000
  Fe  Fe18      1.0  0.08621811880578902  0.0412592845502946  0.4306563964882341  1.0000
  S   S35       1.0  0.11455362591563745  0.07348445714509448  0.39411703964492933  1.0000
  S   S36       1.0  0.033498311556625346  0.9864768360526822  0.44232086252329983  1.0000
  Fe  Fe19      1.0  0.1731157594582292  0.07852891203405475  0.405267946261075  1.0000
  S   S37       1.0  0.21920761555344534  0.07170946254920141  0.38064575805181766  1.0000
  Fe  Fe20      1.0  0.12728819207689634  0.12132341847909603  0.41229733621278053  1.0000
  S   S38       1.0  0.11604287749155719  0.16826719269455276  0.40065934226499156  1.0000
  S   S39       1.0  0.1440717249117602  0.0433017921198514  0.4404101523285212  1.0000
  S   S40       1.0  0.09295776342857388  0.0881838329888146  0.44793696924607346  1.0000
  Fe  Fe21      1.0  0.1081257006259572  0.8487024441070513  0.39652465507514867  1.0000
  S   S41       1.0  0.17049032108420334  0.8557990435515939  0.38333359775082904  1.0000
  S   S42       1.0  0.07330055525740198  0.8658676615088876  0.37276770242552004  1.0000
  Fe  Fe22      1.0  0.11504354873722195  0.8342424398538163  0.448367386645745  1.0000
  S   S43       1.0  0.17821429742249661  0.8403289598439369  0.4399075548605729  1.0000
  S   S44       1.0  0.08244643775394343  0.8248102113227525  0.48570316893656357  1.0000
  Fe  Fe23      1.0  0.18975503058175888  0.887216523268401  0.41302181939251975  1.0000
  S   S45       1.0  0.24932133328788297  0.9375880575145783  0.40529621341484523  1.0000
  Fe  Fe24      1.0  0.15426978435521146  0.8080604610674728  0.4109173669465868  1.0000
  S   S46       1.0  0.18059153622950286  0.7698542602698241  0.4060687569512658  1.0000
  S   S47       1.0  0.12878273390110537  0.8842100075673299  0.4239679746192396  1.0000
  S   S48       1.0  0.08928149619395344  0.7977117457434705  0.4217544814606857  1.0000
  Fe  Fe25      1.0  0.524309298293363  0.6773027221439338  0.3078312920279367  1.0000
  S   S49       1.0  0.5756717170569832  0.7239854487138164  0.2837965932399446  1.0000
  S   S50       1.0  0.4806664686236161  0.6844753029285344  0.3339261173815976  1.0000
  Fe  Fe26      1.0  0.5418410637029025  0.6234043660065846  0.2852389440297623  1.0000
  S   S51       1.0  0.5948805644193411  0.6654284213324857  0.2593589373591609  1.0000
  S   S52       1.0  0.5196972030217325  0.5661849537426918  0.28101291259528505  1.0000
  Fe  Fe27      1.0  0.6110899438231453  0.693841454707219  0.29082009016285154  1.0000
  S   S53       1.0  0.6766917214511015  0.724423421996823  0.29571367213515665  1.0000
  Fe  Fe28      1.0  0.5542086132129619  0.691041358538552  0.25497554515978976  1.0000
  S   S54       1.0  0.5497250783594464  0.7139788273788215  0.21883522983692963  1.0000
  S   S55       1.0  0.5611598925060067  0.6493153233112738  0.3173510774470084  1.0000
  S   S56       1.0  0.4997663726603885  0.6467829040643657  0.27850231937382314  1.0000
  Fe  Fe29      1.0  0.3018798640251995  0.6859204922970386  0.28483415552090086  1.0000
  S   S57       1.0  0.25512033218331936  0.6920028500537567  0.2653238099272026  1.0000
  S   S58       1.0  0.36855498149275734  0.7218111312474859  0.27232761925068333  1.0000
  Fe  Fe30      1.0  0.23943811234595705  0.6188881499710445  0.3171810157804705  1.0000
  S   S59       1.0  0.18731872046966944  0.6188484863637644  0.3005423815208436  1.0000
  S   S60       1.0  0.23198493983330779  0.5758805440608139  0.3462915027914529  1.0000
  Fe  Fe31      1.0  0.2290605110412458  0.6329280633960392  0.26592952189683244  1.0000
  S   S61       1.0  0.20826122882599538  0.6025777521912218  0.2357211376294678  1.0000
  Fe  Fe32      1.0  0.2179761560317315  0.6778451773525385  0.3017815318056812  1.0000
  S   S62       1.0  0.1785444594281068  0.7042303371270243  0.31118692887716026  1.0000
  S   S63       1.0  0.278808018530105  0.6279198377954166  0.2825581692393272  1.0000
  S   S64       1.0  0.26724458274104557  0.676768411308968  0.32135554682194667  1.0000
  Fe  Fe33      1.0  0.29917144083461944  0.41478196963006136  0.27802360116463404  1.0000
  S   S65       1.0  0.2910858127018866  0.4556544495062229  0.2964719579058566  1.0000
  S   S66       1.0  0.33476793673235683  0.42709325380532104  0.24133243825551345  1.0000
  Fe  Fe34      1.0  0.2562649711006132  0.3555129768273119  0.32071005760958554  1.0000
  S   S67       1.0  0.24370669751925167  0.3910392115037268  0.34358068582285717  1.0000
  S   S68       1.0  0.2514660612043457  0.3000440734230992  0.3270177898452942  1.0000
  Fe  Fe35      1.0  0.2280485745184118  0.41191300353238336  0.3102887890193001  1.0000
  S   S69       1.0  0.1794896442329784  0.42928594787742347  0.30775458106556053  1.0000
  Fe  Fe36      1.0  0.3075839334629701  0.43267333533038405  0.32814607250911243  1.0000
  S   S70       1.0  0.3512977167890892  0.4716058911217292  0.3483283043051462  1.0000
  S   S71       1.0  0.23443553106881507  0.372701441451069  0.2887269433525011  1.0000
  S   S72       1.0  0.3218842753320437  0.3957951918750804  0.30851451281146847  1.0000
  Fe  Fe37      1.0  0.5366352441246016  0.6421115161367935  0.7346334832361536  1.0000
  S   S73       1.0  0.5775367681688359  0.6796233048842424  0.7565517267171821  1.0000
  S   S74       1.0  0.5061308865757792  0.5831386186661798  0.7471008267428952  1.0000
  Fe  Fe38      1.0  0.5399615267580173  0.7020118154384543  0.6993380342274105  1.0000
  S   S75       1.0  0.5801182813675743  0.744866610588297  0.7185057356725061  1.0000
  S   S76       1.0  0.5237566997714489  0.7162087631994517  0.6644418363676003  1.0000
  Fe  Fe39      1.0  0.614342159145044  0.7126891906721821  0.7214819582321778  1.0000
  S   S77       1.0  0.6821311724865068  0.7322403651484671  0.7127445306339264  1.0000
  Fe  Fe40      1.0  0.539240898794536  0.7076209588984487  0.7515768868402585  1.0000
  S   S78       1.0  0.5083826059730336  0.722607257401437  0.7810038614311974  1.0000
  S   S79       1.0  0.5766537419314504  0.6721534307618825  0.6999135199886296  1.0000
  S   S80       1.0  0.495902129912735  0.6678080112897488  0.7319573453817042  1.0000
  Fe  Fe41      1.0  0.25718666894490444  0.7301013610086677  0.72529149802294  1.0000
  S   S81       1.0  0.24821366209986373  0.6778847737308406  0.7143520848476197  1.0000
  S   S82       1.0  0.2124695948523232  0.7517451899497531  0.7191130903294741  1.0000
  Fe  Fe42      1.0  0.32960213428653706  0.7382215658063161  0.7493675911522091  1.0000
  S   S83       1.0  0.3275415303564599  0.6875568861214826  0.7402685026079106  1.0000
  S   S84       1.0  0.3766642540494736  0.7718403647898282  0.7701998385158375  1.0000
  Fe  Fe43      1.0  0.3163996718422072  0.705098395235931  0.7046437690684804  1.0000
  S   S85       1.0  0.3441432258770532  0.6970132337667909  0.6705728734749913  1.0000
  Fe  Fe44      1.0  0.26017507235668813  0.6648608410628083  0.7508401459252233  1.0000
  S   S86       1.0  0.23251284617355575  0.6123658473952002  0.7751866406143524  1.0000
  S   S87       1.0  0.3248212788975898  0.7585562886915649  0.7125293998779644  1.0000
  S   S88       1.0  0.26288432012057356  0.7142340020021185  0.7630836116218344  1.0000
  Fe  Fe45      1.0  0.2441623591577597  0.39180349257593505  0.7345547983709274  1.0000
  S   S89       1.0  0.2519620926058125  0.4324333904876652  0.7034561579548583  1.0000
  S   S90       1.0  0.2256333056947077  0.3333813809088664  0.7333293937361036  1.0000
  Fe  Fe46      1.0  0.28021922840447966  0.4481008359532368  0.7666793854413307  1.0000
  S   S91       1.0  0.2904870833572018  0.4928552641709609  0.7384052322432406  1.0000
  S   S92       1.0  0.3078804749493866  0.46345036393858763  0.7997567143521955  1.0000
  Fe  Fe47      1.0  0.2287366276207808  0.4560604430620964  0.7307992613765547  1.0000
  S   S93       1.0  0.19058367706099053  0.4819216089321546  0.7200429355073337  1.0000
  Fe  Fe48      1.0  0.31273954802318366  0.4657240669070373  0.7137048362198196  1.0000
  S   S94       1.0  0.3682313524498971  0.5017857258961802  0.6870568949328199  1.0000
  S   S95       1.0  0.21571801372863478  0.4128703489429126  0.7615418227904474  1.0000
  S   S96       1.0  0.3075881094599616  0.42339126489228346  0.7424593039371696  1.0000
  Fe  Fe49      1.0  0.41276808566708906  0.5908043028066172  0.14062997316462167  1.0000
  S   S97       1.0  0.3557495404063558  0.5831037832981888  0.16287285255830575  1.0000
  S   S98       1.0  0.4634810133890969  0.5914699945648798  0.15934283441579028  1.0000
  Fe  Fe50      1.0  0.37814521595010087  0.5899281795728298  0.0940096356510353  1.0000
  S   S99       1.0  0.3176638329958404  0.5818776619787117  0.11269432195943611  1.0000
  S   S100      1.0  0.3967696542380387  0.5897089768183903  0.05501690700157224  1.0000
  Fe  Fe51      1.0  0.3558213723313189  0.6228686086743227  0.13394537518389002  1.0000
  S   S101      1.0  0.34496714409801305  0.6674812819073414  0.14511128073359517  1.0000
  Fe  Fe52      1.0  0.32359406003089336  0.5428584707004044  0.13986525639612768  1.0000
  S   S102      1.0  0.27354633246366117  0.4888024026980542  0.15702964373491926  1.0000
  S   S103      1.0  0.4161194130828437  0.6342152795722141  0.11333129444918091  1.0000
  S   S104      1.0  0.3807054813221027  0.5474158956995789  0.11963548752100753  1.0000
  Fe  Fe53      1.0  0.3739731373861707  0.6016387808276193  0.8886144151417256  1.0000
  S   S105      1.0  0.31823783564407215  0.5549119314327295  0.9101051811060955  1.0000
  S   S106      1.0  0.42767189142967177  0.598409255669508  0.8697943034326504  1.0000
  Fe  Fe54      1.0  0.33658044997782194  0.651722684021671  0.8889936078670757  1.0000
  S   S107      1.0  0.27747968385304894  0.6097205210165708  0.9098717679928348  1.0000
  S   S108      1.0  0.34614854729466066  0.707710454094353  0.8792768471998144  1.0000
  Fe  Fe55      1.0  0.316355734233932  0.5953915597442393  0.9323291838447977  1.0000
  S   S109      1.0  0.29399208288263606  0.587666388332529  0.971923714925526  1.0000
  Fe  Fe56      1.0  0.28463101115946227  0.5734024531324777  0.8860958036919646  1.0000
  S   S110      1.0  0.23649987154150284  0.5400652022029045  0.8656039391520853  1.0000
  S   S111      1.0  0.37546787166276335  0.6405443079169312  0.9128583438372756  1.0000
  S   S112      1.0  0.3402599683882304  0.6169111786342997  0.863194868132756  1.0000
  C   C1        1.0  0.3686684964284847  0.5910291215234322  0.0320168534377396  1.0000
  C   C2        1.0  0.3838715118830175  0.590478970960675  0.008663609345557433  1.0000
  C   C3        1.0  0.36134322530519375  0.5893632833695008  0.9900301349076336  1.0000
  C   C4        1.0  0.3232467615246476  0.5885315696569658  0.9947022893911155  1.0000
  C   C5        1.0  0.30805329170977314  0.589137766998454  0.01804808160976065  1.0000
  C   C6        1.0  0.33077162075155075  0.5906369782552807  0.03663107757463411  1.0000
  H   H1        1.0  0.41313502968826826  0.5906482211170296  0.004993382058330553  1.0000
  H   H2        1.0  0.3733163021178312  0.5888575884581723  0.9721173173963477  1.0000
  H   H3        1.0  0.278616833459364  0.5886172093389728  0.021757860658945045  1.0000
  H   H4        1.0  0.31887141250343626  0.591343657381741  0.054495552080733714  1.0000
  C   C7        1.0  0.287128001519483  0.4844550256576863  0.8176873692484364  1.0000
  C   C8        1.0  0.24991772304383442  0.4840844154004139  0.814838063129505  1.0000
  C   C9        1.0  0.23403154278154145  0.5008434291145495  0.8297518899204515  1.0000
  C   C10       1.0  0.2557518277260378  0.518538140015333  0.8471680689789735  1.0000
  C   C11       1.0  0.2933556239156662  0.5195036731696386  0.8495824841290305  1.0000
  C   C12       1.0  0.30865721891723674  0.5020781906147369  0.8351310830915224  1.0000
  H   H5        1.0  0.23295411484170808  0.4702031507870583  0.8015451741589892  1.0000
  H   H6        1.0  0.20489200587992143  0.4999945809733658  0.8278089384517403  1.0000
  H   H7        1.0  0.310346157683156  0.533058865364184  0.8629307706329888  1.0000
  H   H8        1.0  0.33713843471318394  0.5021392743109502  0.8375846772740886  1.0000
  C   C13       1.0  0.3684286164924173  0.7530160684763153  0.8002457861716723  1.0000
  C   C14       1.0  0.34917628358605596  0.7159064670055727  0.8074981756723477  1.0000
  C   C15       1.0  0.3438664227553805  0.7016678917124121  0.8316489687657679  1.0000
  C   C16       1.0  0.35603945831824335  0.7244672793501263  0.848642230910093  1.0000
  C   C17       1.0  0.37493863353197876  0.7614540148343751  0.8412999656630169  1.0000
  C   C18       1.0  0.3818442559722064  0.7756785203273835  0.8171346487489509  1.0000
  H   H9        1.0  0.3387056979952944  0.6983469127761176  0.7944786673574273  1.0000
  H   H10       1.0  0.3295080939160189  0.6731936953612981  0.8372052806925915  1.0000
  H   H11       1.0  0.38443340306651175  0.7792255508494452  0.8543142105257573  1.0000
  H   H12       1.0  0.3967145925205976  0.804349578157567  0.8116060912662453  1.0000
  C   C19       1.0  0.2197950156242984  0.5760576434428493  0.7598528403891762  1.0000
  C   C20       1.0  0.20787165440303446  0.5771419458391677  0.737419673764857  1.0000
  C   C21       1.0  0.1976253193285235  0.5476791717409344  0.7254705304750915  1.0000
  C   C22       1.0  0.2004341666171298  0.5176018533384849  0.7356832181167485  1.0000
  C   C23       1.0  0.21284051629997272  0.5167566398712318  0.757974018888344  1.0000
  C   C24       1.0  0.22186677204287095  0.5457268216237834  0.7702194747553335  1.0000
  H   H13       1.0  0.20546313233705676  0.600234906631967  0.7295517920937112  1.0000
  H   H14       1.0  0.18780875398864527  0.5482837560817875  0.7082744992990005  1.0000
  H   H15       1.0  0.21453205624704477  0.49335915757329546  0.766009820774273  1.0000
  H   H16       1.0  0.23045067498650734  0.5445867379571896  0.787709147505906  1.0000
  C   C25       1.0  0.4868666860108529  0.6885626157901358  0.8059697654945854  1.0000
  C   C26       1.0  0.4923895910446734  0.657983657906546  0.8064117601950405  1.0000
  C   C27       1.0  0.4754298927327985  0.6310259843648723  0.8264114170837867  1.0000
  C   C28       1.0  0.4515149044471872  0.6338132350543652  0.8457323612574388  1.0000
  C   C29       1.0  0.445354031718961  0.6641180480531114  0.8451804501869641  1.0000
  C   C30       1.0  0.46318533803932826  0.6915408612196295  0.8253817347219041  1.0000
  H   H17       1.0  0.5099659414438935  0.6550925281485602  0.7914456835582377  1.0000
  H   H18       1.0  0.480768941871066  0.6080073052806644  0.8268091924714533  1.0000
  H   H19       1.0  0.42752765556637695  0.6668641050944895  0.8601956453163915  1.0000
  H   H20       1.0  0.4586377223068169  0.7150636469003167  0.8251585042687379  1.0000
  C   C31       1.0  0.46866929185643974  0.5610233349247565  0.7298643638640886  1.0000
  C   C32       1.0  0.4390353545729366  0.5259609042539711  0.7385481564793956  1.0000
  C   C33       1.0  0.40823621837500385  0.5079605200509066  0.7253688467555695  1.0000
  C   C34       1.0  0.40751690825297066  0.5245608273887673  0.7031360940097877  1.0000
  C   C35       1.0  0.43750687653175424  0.5595598032722842  0.6942104154835121  1.0000
  C   C36       1.0  0.46779358694675016  0.5780132702040829  0.7077526327368602  1.0000
  H   H21       1.0  0.4398180821547269  0.5127259632443739  0.7555018922008868  1.0000
  H   H22       1.0  0.38555546602444796  0.4809608486640328  0.7323006459206195  1.0000
  H   H23       1.0  0.437160447745337  0.5725346900357668  0.6769947085548725  1.0000
  H   H24       1.0  0.4908028890617443  0.6051185854791145  0.7009168021887647  1.0000
  C   C37       1.0  0.394582673276913  0.703862636121149  0.6693844210372584  1.0000
  C   C38       1.0  0.4117200577894279  0.7036110113604371  0.6901382718457095  1.0000
  C   C39       1.0  0.451270507959458  0.7069807959341906  0.6887820541705191  1.0000
  C   C40       1.0  0.4740077495717231  0.7112746049872254  0.6666397387182672  1.0000
  C   C41       1.0  0.45701688810671215  0.711895480286035  0.6459035188792516  1.0000
  C   C42       1.0  0.4172430408382082  0.7078492267560154  0.6472960008486207  1.0000
  H   H25       1.0  0.39448199630518793  0.7004519069460602  0.707210205684315  1.0000
  H   H26       1.0  0.4643087203642194  0.706696775167673  0.7048084621293509  1.0000
  H   H27       1.0  0.47450062527928755  0.7152399672743789  0.6287382863561899  1.0000
  H   H28       1.0  0.40409243727753247  0.7080034567686404  0.6311976359858278  1.0000
  C   C43       1.0  0.316945465610758  0.4444501382730916  0.21851360294192124  1.0000
  C   C44       1.0  0.34522340712584143  0.47152135249464444  0.20046943291711433  1.0000
  C   C45       1.0  0.3319108841791346  0.4852471429070277  0.1817049625974115  1.0000
  C   C46       1.0  0.2902608691572475  0.4710450159547207  0.18036103136069995  1.0000
  C   C47       1.0  0.2618708846186599  0.4435426809433747  0.19825575162570247  1.0000
  C   C48       1.0  0.2751528464102763  0.4306955057177043  0.21756214322398226  1.0000
  H   H29       1.0  0.37757051963262983  0.4822186661837196  0.20110301204028264  1.0000
  H   H30       1.0  0.3540975612565008  0.5065926947330894  0.16815292230049575  1.0000
  H   H31       1.0  0.22959015228537427  0.43257953547245287  0.19736950836297967  1.0000
  H   H32       1.0  0.25313737658079194  0.4097118855487078  0.2314201104229371  1.0000
  C   C49       1.0  0.24360538486769562  0.6220416055080106  0.2093024230852109  1.0000
  C   C50       1.0  0.27324880229686666  0.6578034197463022  0.20594446393136515  1.0000
  C   C51       1.0  0.3027256801201522  0.6723336498975778  0.18532665227626044  1.0000
  C   C52       1.0  0.3042399957667663  0.6505614663252887  0.16881581986294478  1.0000
  C   C53       1.0  0.274270844169621  0.6149288039690284  0.17198809885441874  1.0000
  C   C54       1.0  0.24320275960268709  0.6010688066759137  0.191819826851025  1.0000
  H   H33       1.0  0.2731335481819933  0.6744232937399228  0.21903924308047643  1.0000
  H   H34       1.0  0.3248124321534279  0.7002472276261648  0.18248558936645143  1.0000
  H   H35       1.0  0.27472052633805233  0.5982009266392843  0.1589882740287653  1.0000
  H   H36       1.0  0.21936244493338228  0.5738614382296928  0.19381785197244913  1.0000
  C   C55       1.0  0.21695229312021588  0.5349765883182305  0.3357589847258272  1.0000
  C   C56       1.0  0.19027222400558055  0.525618281805961  0.3190222328533066  1.0000
  C   C57       1.0  0.17769607992913158  0.4925298889800669  0.3111402953759091  1.0000
  C   C58       1.0  0.1934152778943853  0.46955490228595526  0.31897530238407923  1.0000
  C   C59       1.0  0.2209904897818423  0.479368962165097  0.3352076255754537  1.0000
  C   C60       1.0  0.23195314637732473  0.5116303495635479  0.34402237306369127  1.0000
  H   H37       1.0  0.17832890232185689  0.5433606760703373  0.3126723798064598  1.0000
  H   H38       1.0  0.15575219684558786  0.48470240507241336  0.2989790345663121  1.0000
  H   H39       1.0  0.23301500997601926  0.46162644913490297  0.34148980012401026  1.0000
  H   H40       1.0  0.25217525256797335  0.5184561175167867  0.35718152218587734  1.0000
  C   C61       1.0  0.5228904178482269  0.6809087981023898  0.2021077455446546  1.0000
  C   C62       1.0  0.48955550322325464  0.6486758282156205  0.21313148063890006  1.0000
  C   C63       1.0  0.4692250464259806  0.6220288542561175  0.1996086504770637  1.0000
  C   C64       1.0  0.48273761361924206  0.6273197555392205  0.1751344455240802  1.0000
  C   C65       1.0  0.5150504534165589  0.6600154697004119  0.16397982806006722  1.0000
  C   C66       1.0  0.5347556248490608  0.686968449517722  0.1774132504978288  1.0000
  H   H41       1.0  0.4794592675581602  0.6442131017634584  0.2320414238827545  1.0000
  H   H42       1.0  0.4438634158393884  0.5969238410326321  0.20824568406942287  1.0000
  H   H43       1.0  0.525654595385593  0.6641452125378791  0.1450683287106897  1.0000
  H   H44       1.0  0.5602624554370509  0.7120174929265585  0.16879225952626184  1.0000
  C   C67       1.0  0.47363552756820676  0.5393706427234459  0.3001628478911209  1.0000
  C   C68       1.0  0.44279257508257036  0.5106931044686283  0.29229096382272957  1.0000
  C   C69       1.0  0.4052027581189444  0.4899014131418411  0.30708085172677824  1.0000
  C   C70       1.0  0.39881082368896736  0.4968948225676966  0.3300969246960799  1.0000
  C   C71       1.0  0.42994703094850933  0.5252197746381594  0.33814135695263814  1.0000
  C   C72       1.0  0.4671401970685509  0.5468720160616836  0.3230192941164307  1.0000
  H   H45       1.0  0.4476113089997713  0.5048278709262627  0.2746253404275979  1.0000
  H   H46       1.0  0.3812533413632247  0.4684806759364648  0.30058111512968605  1.0000
  H   H47       1.0  0.4251376521679256  0.5306525040875728  0.35595551523844027  1.0000
  H   H48       1.0  0.4910368328282966  0.5689225164715324  0.3292035046186362  1.0000
  C   C73       1.0  0.4501253763550708  0.696669304699217  0.31741888804860147  1.0000
  C   C74       1.0  0.4638398346073054  0.7114549121597354  0.2933147648426637  1.0000
  C   C75       1.0  0.4389182913943947  0.7198547317431774  0.279749325465951  1.0000
  C   C76       1.0  0.3996655416009122  0.7124499038954593  0.29002659855633217  1.0000
  C   C77       1.0  0.38569321521999894  0.6973876738412478  0.31410283873453526  1.0000
  C   C78       1.0  0.41125903913585327  0.6901172612922334  0.32792216858476636  1.0000
  H   H49       1.0  0.4937965149505985  0.7167216624623282  0.28504797485249156  1.0000
  H   H50       1.0  0.44994297587204996  0.7317243631373916  0.26119656407809955  1.0000
  H   H51       1.0  0.3554786090086099  0.6918930321469073  0.32215088088957616  1.0000
  H   H52       1.0  0.4005859685852956  0.6787424342106944  0.3465824246688751  1.0000
  C   C79       1.0  0.1808400958604299  0.7531158982372729  0.379158985672514  1.0000
  C   C80       1.0  0.20535989293920714  0.736366815541301  0.37468021282634906  1.0000
  C   C81       1.0  0.20652315474700908  0.7228512088175015  0.35333454594097186  1.0000
  C   C82       1.0  0.182171986385327  0.7250415122872637  0.3366572454906036  1.0000
  C   C83       1.0  0.1578676649479119  0.7420204449499026  0.34108898882272526  1.0000
  C   C84       1.0  0.15751298464298252  0.7563938580817319  0.36217633304496744  1.0000
  H   H53       1.0  0.22372371087277973  0.7340456370033396  0.3877187628899882  1.0000
  H   H54       1.0  0.2258622601645178  0.710382929758202  0.34996391707689334  1.0000
  H   H55       1.0  0.13889322045807884  0.7437328832981314  0.3282565315075192  1.0000
  H   H56       1.0  0.13853978841565856  0.7692994356913413  0.36548836893976  1.0000
  C   C85       1.0  0.22752360515958298  0.03456199128008214  0.38826919054516684  1.0000
  C   C86       1.0  0.26201926008618104  0.03381216569784179  0.37663716060785535  1.0000
  C   C87       1.0  0.2691169988435992  0.004290192938363808  0.38220657451726464  1.0000
  C   C88       1.0  0.24115151726476272  0.9749969816334839  0.39898855702789837  1.0000
  C   C89       1.0  0.20685380460679065  0.9758328011439378  0.4107234520475512  1.0000
  C   C90       1.0  0.20021776806962086  0.005622607968468393  0.4055280282626008  1.0000
  H   H57       1.0  0.2833769698866672  0.05615979144204308  0.36331859903635677  1.0000
  H   H58       1.0  0.2958584203506588  0.00390210724318687  0.37315269837242004  1.0000
  H   H59       1.0  0.18593370377857213  0.9538932460283577  0.42426282004568866  1.0000
  H   H60       1.0  0.17387959737194175  0.00588669433933788  0.41487853605058617  1.0000
  C   C91       1.0  0.1533357531162392  0.20451532816038845  0.37981443227302253  1.0000
  C   C92       1.0  0.14928221590634083  0.23581972407951024  0.37501894449851525  1.0000
  C   C93       1.0  0.179441637844357  0.26564790354220497  0.35914619956022975  1.0000
  C   C94       1.0  0.21354590198808407  0.26406861469371834  0.3477933146618481  1.0000
  C   C95       1.0  0.21750965417402968  0.23273626708419035  0.3525902280395212  1.0000
  C   C96       1.0  0.18766126008229653  0.2031224139590251  0.36865689991341355  1.0000
  H   H61       1.0  0.12275755640226597  0.23703136791671475  0.38362407965061873  1.0000
  H   H62       1.0  0.17605136384149253  0.28963122960149057  0.3554764064206149  1.0000
  H   H63       1.0  0.2438352418272467  0.23135995229424544  0.34385357232876523  1.0000
  H   H64       1.0  0.19107087421360155  0.17914463901988684  0.3722469694429294  1.0000
  C   C97       1.0  0.9410764377464786  0.7841526866629307  0.37421753847686434  1.0000
  C   C98       1.0  0.9543259303887852  0.8203957863777877  0.36624122730559805  1.0000
  C   C99       1.0  0.99529763375692  0.8450622071871492  0.3651345834165334  1.0000
  C   C100      1.0  0.023062199840113866  0.8337329050229052  0.37250744950409154  1.0000
  C   C101      1.0  0.010045118030740156  0.7974003434099344  0.3802791716294245  1.0000
  C   C102      1.0  0.9690155085663427  0.7725067596990013  0.38093070605054674  1.0000
  H   H65       1.0  0.9328798312082873  0.8294914696772978  0.36091083909510757  1.0000
  H   H66       1.0  0.005126905152516397  0.8729711154890606  0.3588496429409223  1.0000
  H   H67       1.0  0.03150333625923017  0.7884690312875058  0.38573334281879745  1.0000
  H   H68       1.0  0.9587353064181477  0.7444642945988769  0.3872190014754595  1.0000
  C   C103      1.0  0.936459369323303  0.9379349946877198  0.39538318928084826  1.0000
  C   C104      1.0  0.9312741614941298  0.9215821538591074  0.4187654582794284  1.0000
  C   C105      1.0  0.9603393956099906  0.9378025368291752  0.4333631580524486  1.0000
  C   C106      1.0  0.9949589325195388  0.9703260379181656  0.42461106941362325  1.0000
  C   C107      1.0  0.9993963407463357  0.9876864660193081  0.401547881609556  1.0000
  C   C108      1.0  0.9701288034417535  0.9713780383261786  0.38688654661487804  1.0000
  H   H69       1.0  0.904579430790957  0.8965275125496216  0.4256443890394334  1.0000
  H   H70       1.0  0.9559314054624273  0.9251285226204238  0.4515121552800741  1.0000
  H   H71       1.0  0.025449235854177975  0.013356353500376226  0.3949125786726289  1.0000
  H   H72       1.0  0.9737287246681081  0.9843774148433844  0.3689097659526944  1.0000
  C   C109      1.0  0.7032579441904565  0.7538672966433394  0.36902952754152046  1.0000
  C   C110      1.0  0.6668126477477498  0.7241508912375189  0.3669862468676921  1.0000
  C   C111      1.0  0.6581465641842377  0.7149815382217408  0.3444965973186831  1.0000
  C   C112      1.0  0.6860343679645303  0.7355257536457159  0.3240164210606294  1.0000
  C   C113      1.0  0.7223579635583539  0.7652890077427718  0.32607061750880967  1.0000
  C   C114      1.0  0.730740581029864  0.7746987076988585  0.3484994728600607  1.0000
  H   H73       1.0  0.6456136989035943  0.7078438842439571  0.382881796461411  1.0000
  H   H74       1.0  0.6303129730396577  0.6917024550046351  0.34304708896409536  1.0000
  H   H75       1.0  0.7439003445177144  0.781379269428781  0.3102304101815632  1.0000
  H   H76       1.0  0.7584522258885581  0.7981453237454358  0.3498664724227006  1.0000
  C   C115      1.0  0.22713572152733777  0.7897084228735427  0.6973833887223496  1.0000
  C   C116      1.0  0.2625519793005482  0.8029037694762984  0.6805559429160197  1.0000
  C   C117      1.0  0.27157786200198336  0.8314732349851851  0.6623183174811154  1.0000
  C   C118      1.0  0.24509425034210697  0.8467672458478324  0.6606528836247376  1.0000
  C   C119      1.0  0.2102537805515765  0.8341715769062276  0.677843248563866  1.0000
  C   C120      1.0  0.2014173695075225  0.8058187240801928  0.696181312222723  1.0000
  H   H77       1.0  0.2825887920769322  0.7907015891936636  0.6813028254452433  1.0000
  H   H78       1.0  0.29868683258171413  0.8411952324730724  0.6491281478368858  1.0000
  H   H79       1.0  0.1900813340518196  0.8461931884590963  0.6769973742607839  1.0000
  H   H80       1.0  0.17430804211993872  0.7960548826247624  0.7093731221189807  1.0000
  C   C121      1.0  0.16240365256096334  0.9077345142584822  0.5283515807636613  1.0000
  C   C122      1.0  0.12563992814950903  0.8787817313206159  0.5397031721024798  1.0000
  C   C123      1.0  0.10129836735959281  0.8531270090865685  0.5266035559515414  1.0000
  C   C124      1.0  0.11363394889545042  0.8563785876333169  0.5021518529644239  1.0000
  C   C125      1.0  0.1507072246870039  0.8850218388865584  0.4909231228008153  1.0000
  C   C126      1.0  0.17510539802107747  0.910487760809627  0.5040541838425419  1.0000
  H   H81       1.0  0.11592200841305804  0.8761239013217376  0.5585596630838685  1.0000
  H   H82       1.0  0.07328055318396993  0.8305186333225512  0.5355108904351653  1.0000
  H   H83       1.0  0.16083039064121288  0.887409562461395  0.47216946885278976  1.0000
  H   H84       1.0  0.20431828769072824  0.9318095932435871  0.495530343371415  1.0000
  C   C127      1.0  0.12409482631826182  0.15216973846624327  0.5384356802270875  1.0000
  C   C128      1.0  0.15494012758856382  0.14426882562887236  0.5449108237082116  1.0000
  C   C129      1.0  0.17155246883866843  0.12837702144200788  0.5297950504552345  1.0000
  C   C130      1.0  0.1571058044535292  0.12013375273144763  0.5083162185985521  1.0000
  C   C131      1.0  0.12612144139109902  0.12788561668606369  0.5020438848949382  1.0000
  C   C132      1.0  0.10969505968425661  0.14393405233737752  0.5170196543115304  1.0000
  H   H85       1.0  0.16647415824774467  0.15087601506603715  0.5613848307197281  1.0000
  H   H86       1.0  0.19596483321280045  0.12297408613448632  0.5346485143591861  1.0000
  H   H87       1.0  0.11496410485508357  0.12191798677705593  0.4855737471430347  1.0000
  H   H88       1.0  0.08571424643137823  0.14987665810872267  0.5120276592188148  1.0000
  C   C133      1.0  0.20393498160283463  0.08903582643625056  0.6283715504970679  1.0000
  C   C134      1.0  0.22162883172675438  0.0680942127230569  0.6205643324920735  1.0000
  C   C135      1.0  0.20246236071883567  0.031045578384346628  0.6285882473981017  1.0000
  C   C136      1.0  0.1656251364265545  0.01495540094634773  0.6444535918365857  1.0000
  C   C137      1.0  0.14894949074675423  0.036185954002988296  0.6529874040531665  1.0000
  C   C138      1.0  0.16799915448134375  0.07312544506642242  0.6448906482809781  1.0000
  H   H89       1.0  0.24976789633371785  0.08044645759055992  0.6080058395984981  1.0000
  H   H90       1.0  0.21604612409525767  0.014971017834296774  0.6223702784046596  1.0000
  H   H91       1.0  0.12082051624519237  0.023991073636452365  0.66555265402911  1.0000
  H   H92       1.0  0.1549685479295582  0.08942352082339695  0.6514082492832143  1.0000
  C   C139      1.0  0.1880626463161786  0.2868006838941894  0.665580834569965  1.0000
  C   C140      1.0  0.1982297181213097  0.26839326236163563  0.6833125432334252  1.0000
  C   C141      1.0  0.20909440696733628  0.2826814355837061  0.7042366411908653  1.0000
  C   C142      1.0  0.21017985490272542  0.3154870737192449  0.7074129221349691  1.0000
  C   C143      1.0  0.19975566776450665  0.33369659921728867  0.689742378597041  1.0000
  C   C144      1.0  0.18891997367361021  0.3194546902516365  0.6688600084948728  1.0000
  H   H93       1.0  0.19799267858646555  0.24334017116655637  0.6808502686285427  1.0000
  H   H94       1.0  0.21711457278674143  0.26847326783592834  0.7179061270537972  1.0000
  H   H95       1.0  0.19992798693196961  0.358719169311569  0.6921658106415237  1.0000
  H   H96       1.0  0.18085961958145846  0.33370990491679575  0.6552363060385584  1.0000
  C   C145      1.0  0.8702079711507305  0.8836182894578593  0.5207408241477548  1.0000
  C   C146      1.0  0.8610295990503347  0.8493267111506285  0.5317056384816043  1.0000
  C   C147      1.0  0.8531508861304519  0.8219118224560208  0.5180611773306574  1.0000
  C   C148      1.0  0.8543071597675215  0.8286320319318303  0.4934193971352538  1.0000
  C   C149      1.0  0.8632656883169021  0.8628368462610798  0.4824413257030585  1.0000
  C   C150      1.0  0.871369401254419  0.8903492187632942  0.4960817005673142  1.0000
  H   H97       1.0  0.8595698718753751  0.8438714971460118  0.550743248575171  1.0000
  H   H98       1.0  0.8453365845862301  0.7952948509432803  0.5266804383291938  1.0000
  H   H99       1.0  0.8638119830855664  0.8681087081333386  0.4634863075551129  1.0000
  H   H100      1.0  0.8783653281426334  0.9168366446883256  0.4875267435530011  1.0000
  C   C151      1.0  0.9366857560898078  0.7980739926251291  0.620754873387808  1.0000
  C   C152      1.0  0.9711489327233731  0.8315068770851888  0.6176893357445772  1.0000
  C   C153      1.0  0.009586747029042275  0.8337390127954339  0.6198023744937201  1.0000
  C   C154      1.0  0.013501255319091854  0.8026043466536137  0.6252221751829501  1.0000
  C   C155      1.0  0.9788965612422914  0.7692777551686238  0.62863027311777  1.0000
  C   C156      1.0  0.9405918765364157  0.7670100977966473  0.6263559886263987  1.0000
  H   H101      1.0  0.9682912890948476  0.8555878883136748  0.61341932660748  1.0000
  H   H102      1.0  0.03610425399502426  0.8594540980287197  0.6170922846943956  1.0000
  H   H103      1.0  0.9817095380259852  0.7451141525559366  0.6329154239419497  1.0000
  H   H104      1.0  0.9139783292353542  0.741120911254187  0.6287959443214549  1.0000
  C   C157      1.0  0.007134744112262892  0.9967268585041349  0.6349272895956809  1.0000
  C   C158      1.0  0.04674375725648128  0.019305920485947738  0.6383394376534632  1.0000
  C   C159      1.0  0.05424238450311125  0.0485272213833937  0.6499778482004102  1.0000
  C   C160      1.0  0.022419055442449994  0.05567516561133559  0.6580292796847952  1.0000
  C   C161      1.0  0.9821815261222324  0.031630685599574535  0.6561950971093878  1.0000
  C   C162      1.0  0.9744898388667392  0.001995479668080088  0.6445936555301496  1.0000
  H   H105      1.0  0.07193269620125364  0.014797330360773178  0.6314900393635374  1.0000
  H   H106      1.0  0.08495924492304496  0.06618632473278929  0.6522995041399384  1.0000
  H   H107      1.0  0.9573298553742705  0.036916915441969844  0.6625823199772658  1.0000
  H   H108      1.0  0.9436341730583183  0.9842064914699297  0.6423079825915287  1.0000
  C   C163      1.0  0.7628482449350773  0.8439554115668938  0.6704869844421565  1.0000
  C   C164      1.0  0.725608776868749  0.8364746420207613  0.6840874300939623  1.0000
  C   C165      1.0  0.7009683343747977  0.8025047446171832  0.6977171724071698  1.0000
  C   C166      1.0  0.7136997540510612  0.776048561555017  0.6978622305290113  1.0000
  C   C167      1.0  0.7516206658468285  0.7839935957283817  0.6849546237973239  1.0000
  C   C168      1.0  0.7759578367058585  0.8177350359961175  0.6710847820640271  1.0000
  H   H109      1.0  0.7156128507031672  0.8568564545955198  0.6838290574768188  1.0000
  H   H110      1.0  0.6721165249284334  0.7967544601623213  0.7080002551563498  1.0000
  H   H111      1.0  0.761722290588778  0.7636690445353109  0.6851651583785914  1.0000
  H   H112      1.0  0.8046887696268874  0.8233091045690099  0.6607115370236111  1.0000
  N   N1        1.0  0.3598566278887603  0.6991235439283466  0.9658290922835419  1.0000
  C   C169      1.0  0.3308171839896013  0.6829667442252504  0.9883801085839472  1.0000
  C   C170      1.0  0.382700937161721  0.7382251448994748  0.9648165140946101  1.0000
  C   C171      1.0  0.33713094999628906  0.6913048854014285  0.9454944065579662  1.0000
  C   C172      1.0  0.38880950188976293  0.6839632277658486  0.9645579922411576  1.0000
  H   H113      1.0  0.3124312106383079  0.6535819471791958  0.9893701390066238  1.0000
  H   H114      1.0  0.30893557589320014  0.6942124945895101  0.9901451253665533  1.0000
  H   H115      1.0  0.34690448990630773  0.6873150763944668  0.004147518185676491  1.0000
  H   H116      1.0  0.40464298397433157  0.7511704514029655  0.9478847261104011  1.0000
  H   H117      1.0  0.3617858891615955  0.7505554900138062  0.9657577821817304  1.0000
  H   H118      1.0  0.4004295151151312  0.7450663650411171  0.979829501601802  1.0000
  H   H119      1.0  0.35815279815003576  0.7026560997157627  0.9281705921950437  1.0000
  H   H120      1.0  0.31532356856903887  0.7026876914697567  0.9455730908423314  1.0000
  H   H121      1.0  0.3191679075559873  0.6619830143201983  0.9458486294022806  1.0000
  H   H122      1.0  0.4117602106615607  0.6961081674438594  0.9480052772851889  1.0000
  H   H123      1.0  0.3726560920230796  0.6546983498221975  0.9644813406922021  1.0000
  H   H124      1.0  0.40555103567692297  0.6881383345957219  0.9800529210431854  1.0000
  N   N2        1.0  0.1377037559557237  0.7578208223591297  0.6401272921489254  1.0000
  C   C173      1.0  0.1203008959797438  0.7584310354602711  0.617972269286448  1.0000
  C   C174      1.0  0.1827560719231669  0.7767925686715546  0.6345542243955108  1.0000
  C   C175      1.0  0.12429577260340263  0.7204532385060527  0.6510830607367581  1.0000
  C   C176      1.0  0.12346744190122316  0.7756418165416759  0.6569712848758683  1.0000
  H   H125      1.0  0.13028577087668558  0.7452382539670012  0.6047750488560414  1.0000
  H   H126      1.0  0.12984241728142765  0.7863305256608586  0.6094168759710378  1.0000
  H   H127      1.0  0.08630708102411755  0.7447543304953841  0.6215545627782635  1.0000
  H   H128      1.0  0.19422947380187683  0.8055576432658073  0.6271941166956253  1.0000
  H   H129      1.0  0.1968237213070434  0.775672725252221  0.6507600845406278  1.0000
  H   H130      1.0  0.1946259149800018  0.7649123697387132  0.6212728587899281  1.0000
  H   H131      1.0  0.1345165244018014  0.7061508472640049  0.6388887166229557  1.0000
  H   H132      1.0  0.09044742028059605  0.7054091621294517  0.6556874087975041  1.0000
  H   H133      1.0  0.1371739988429963  0.719279067561434  0.6678368317526885  1.0000
  H   H134      1.0  0.13481978332114508  0.804404401397851  0.6498059800494259  1.0000
  H   H135      1.0  0.13419053860626917  0.7740766300847008  0.6743453090839823  1.0000
  H   H136      1.0  0.08954023910882603  0.7632477787313815  0.6605785112387286  1.0000
  N   N3        1.0  0.9462176673929231  0.7988891311672859  0.5447643395113768  1.0000
  C   C177      1.0  0.9477192332660072  0.7737368478751974  0.5640711021837315  1.0000
  C   C178      1.0  0.9314541214897818  0.8222705140720623  0.5551930053202141  1.0000
  C   C179      1.0  0.9180959314237546  0.7786082426462978  0.5288915735537151  1.0000
  C   C180      1.0  0.9875985056884667  0.8210571493381595  0.531031075469323  1.0000
  H   H137      1.0  0.9174780285744011  0.7580857138481483  0.5757242000202824  1.0000
  H   H138      1.0  0.9700996410579381  0.7881542007643105  0.575729864316325  1.0000
  H   H139      1.0  0.9569484094902401  0.7545434926007907  0.5569064290299413  1.0000
  H   H140      1.0  0.9318660744202636  0.8429121737715438  0.5413365577943413  1.0000
  H   H141      1.0  0.8995040082036444  0.8067068942624158  0.5647448650925077  1.0000
  H   H142      1.0  0.9505562793279656  0.8363203579333929  0.5683547754589724  1.0000
  H   H143      1.0  0.928710649441645  0.7612592291304838  0.5202121916335634  1.0000
  H   H144      1.0  0.9150818440034261  0.7967444680398412  0.5146074881220765  1.0000
  H   H145      1.0  0.8868267037784339  0.7610772654506738  0.5389298040343898  1.0000
  H   H146      1.0  0.9876528699890735  0.8405956530706639  0.5164964441109573  1.0000
  H   H147      1.0  2.6979700580298527e-06  0.8044011281885585  0.5228963778046001  1.0000
  H   H148      1.0  0.009379275815260213  0.836675135514582  0.5426196876285712  1.0000
  N   N4        1.0  0.2438675648134907  0.5167793385903742  0.2376971325398042  1.0000
  C   C181      1.0  0.2676160011896789  0.5489880553807333  0.24813179360914261  1.0000
  C   C182      1.0  0.20083251847894212  0.5098216754157353  0.23984046567298048  1.0000
  C   C183      1.0  0.2459591997289836  0.4857745243130237  0.25057002352908775  1.0000
  C   C184      1.0  0.26096918063190366  0.5224255219368712  0.21230508777352317  1.0000
  H   H149      1.0  0.30018358354113217  0.554938980247602  0.24688370240715624  1.0000
  H   H150      1.0  0.2550666686894627  0.5456639031149373  0.26724558487606137  1.0000
  H   H151      1.0  0.26659077629027284  0.5728680329995307  0.2387760700590545  1.0000
  H   H152      1.0  0.18723590973607163  0.5059803038020503  0.25874273945873294  1.0000
  H   H153      1.0  0.19798424167805484  0.532505253530336  0.2301867908744241  1.0000
  H   H154      1.0  0.18176103047429626  0.485414457132306  0.23248079644837938  1.0000
  H   H155      1.0  0.22673797821359676  0.460644535247291  0.24396853543728372  1.0000
  H   H156      1.0  0.23487379463574642  0.4816872857661381  0.26993992070411343  1.0000
  H   H157      1.0  0.27772428878353694  0.4892429231697926  0.24850209918394522  1.0000
  H   H158      1.0  0.24173752881887545  0.4998698214930201  0.20344033126908742  1.0000
  H   H159      1.0  0.29236072338794306  0.5250181119024304  0.21001659075419749  1.0000
  H   H160      1.0  0.26284953175513914  0.5470552424403944  0.2022931004801685  1.0000
  N   N5        1.0  0.1237973676786  0.6123660109175685  0.36830527397294854  1.0000
  C   C185      1.0  0.10483123046978012  0.5949906585850666  0.34842181955466767  1.0000
  C   C186      1.0  0.1686752287418117  0.6293685520773338  0.3619069421245888  1.0000
  C   C187      1.0  0.11095655495911963  0.5853212735265817  0.3899492560844728  1.0000
  C   C188      1.0  0.11091545436595121  0.6398360579465188  0.3728284210118148  1.0000
  H   H161      1.0  0.11370704302506303  0.6149187288248009  0.33188258533976966  1.0000
  H   H162      1.0  0.07093058861437662  0.5815181766846264  0.35265289779286013  1.0000
  H   H163      1.0  0.11452405600104566  0.5745775459463104  0.3441742108354726  1.0000
  H   H164      1.0  0.17958724543451057  0.6093943050338293  0.3586202034033002  1.0000
  H   H165      1.0  0.17921424524862897  0.6493964218157758  0.3454165232055252  1.0000
  H   H166      1.0  0.18423834247401807  0.6434467918327703  0.37621492655447586  1.0000
  H   H167      1.0  0.12470633788299507  0.5977134134308629  0.4052644651312407  1.0000
  H   H168      1.0  0.12067225705112632  0.5644533229765846  0.3870857700901853  1.0000
  H   H169      1.0  0.07719381979880324  0.5716143131578915  0.3952397983728994  1.0000
  H   H170      1.0  0.11839537071761366  0.6595771543025739  0.3564251761615373  1.0000
  H   H171      1.0  0.12648448167516466  0.6551227279276205  0.38673101558312334  1.0000
  H   H172      1.0  0.07740583396406513  0.6278115353318465  0.3787314954323317  1.0000
  N   N6        1.0  0.014592952854237895  0.901617276368562  0.673511298103706  1.0000
  C   C189      1.0  0.036936338528217094  0.9145584456260637  0.648904596466142  1.0000
  C   C190      1.0  0.9886638622097738  0.9192641758595806  0.6779175062376732  1.0000
  C   C191      1.0  0.044188466261327886  0.9103080379290713  0.6904122928937895  1.0000
  C   C192      1.0  0.9887750741926925  0.8624851690705588  0.6766869962584534  1.0000
  H   H173      1.0  0.058853381856568854  0.903678885189512  0.6455187327749933  1.0000
  H   H174      1.0  0.05478393718220098  0.9442342275923062  0.645407205237355  1.0000
  H   H175      1.0  0.015757760488632977  0.9066703637456565  0.6356051254938092  1.0000
  H   H176      1.0  0.9703999813013005  0.9094577394479394  0.6960969750173084  1.0000
  H   H177      1.0  0.007392300325064882  0.9487761964475641  0.6761158021307639  1.0000
  H   H178      1.0  0.9670465607358167  0.9144177298678943  0.6648877582556812  1.0000
  H   H179      1.0  0.02856938865797609  0.900733819748567  0.7092068392736399  1.0000
  H   H180      1.0  0.06405374152081378  0.9397114586840559  0.6884056450832499  1.0000
  H   H181      1.0  0.06492665452926571  0.8980952842818402  0.6872629476828667  1.0000
  H   H182      1.0  0.9720121181636059  0.8515424519000196  0.6951976402519178  1.0000
  H   H183      1.0  0.007385307638611227  0.8484875662151699  0.672817196041891  1.0000
  H   H184      1.0  0.965569592696776  0.8551678987725225  0.6644861336039078  1.0000
  N   N7        1.0  0.13696768075412818  0.0217286224706719  0.5709815183161092  1.0000
  C   C193      1.0  0.14402741070259623  0.051855746192135205  0.5840236247688761  1.0000
  C   C194      1.0  0.09446801102262567  0.9933204933559999  0.5784218861981587  1.0000
  C   C195      1.0  0.16522500835293782  0.007133846453969109  0.576467627949478  1.0000
  C   C196      1.0  0.14412714375649463  0.034440566760863045  0.5450939509692552  1.0000
  H   H185      1.0  0.17618649687039917  0.07341881423062666  0.5795067748777838  1.0000
  H   H186      1.0  0.137949765011936  0.042982304273742306  0.6036040913750288  1.0000
  H   H187      1.0  0.12397299601387649  0.06413237496455741  0.5799277324936432  1.0000
  H   H188      1.0  0.08809520410047782  0.9700307382150949  0.5690637005330346  1.0000
  H   H189      1.0  0.08817869449678126  0.9831888314684777  0.597912241826722  1.0000
  H   H190      1.0  0.07201991643003308  0.003114429506003228  0.5747305070668113  1.0000
  H   H191      1.0  0.19764377125513  0.02814359065505065  0.5725135612487541  1.0000
  H   H192      1.0  0.16218125004805656  0.9855265325255328  0.5660296411381842  1.0000
  H   H193      1.0  0.15894120622929264  0.9953525374166788  0.5956154466829486  1.0000
  H   H194      1.0  0.12345716237125308  0.045787527673349794  0.54026736339175  1.0000
  H   H195      1.0  0.1389895435044105  0.012407996043482345  0.5346709991270622  1.0000
  H   H196      1.0  0.17598637423507124  0.0558497219109978  0.5389572874711327  1.0000
  N   N8        1.0  0.5376944890698413  0.566629758735479  0.20854693886907147  1.0000
  C   C197      1.0  0.5568565388489045  0.5478119430635922  0.2215693335286843  1.0000
  C   C198      1.0  0.49305257102544847  0.5478602710565625  0.2165384690774412  1.0000
  C   C199      1.0  0.5463700044834349  0.5671085299983807  0.18268106163847328  1.0000
  C   C200      1.0  0.5544913340858691  0.6037510381754928  0.21340281391914684  1.0000
  H   H197      1.0  0.5905855326690342  0.5613634122304465  0.21619677582344043  1.0000
  H   H198      1.0  0.5449303517193562  0.5197127815513843  0.21835184104956037  1.0000
  H   H199      1.0  0.550657887095369  0.5469313896606793  0.2411434517010127  1.0000
  H   H200      1.0  0.4773559224547634  0.5600108542238681  0.20609286997513962  1.0000
  H   H201      1.0  0.47962955300452786  0.5192632169138228  0.21431046932228656  1.0000
  H   H202      1.0  0.48526055327006  0.5487846083656684  0.2356962233271859  1.0000
  H   H203      1.0  0.5324447499501666  0.5813557668070496  0.17237920041155808  1.0000
  H   H204      1.0  0.5336632178298191  0.5395774222545687  0.17828217199716453  1.0000
  H   H205      1.0  0.579761309201081  0.5810100914659189  0.176027390808781  1.0000
  H   H206      1.0  0.5427322010652561  0.6194064186815965  0.20271647280519645  1.0000
  H   H207      1.0  0.5883639314328221  0.6181050326724004  0.20898404948413782  1.0000
  H   H208      1.0  0.546229096921861  0.604533507735544  0.2325031617126905  1.0000
  N   N9        1.0  0.3630038672502195  0.6070330862191959  0.7876783044759932  1.0000
  C   C201      1.0  0.38299694129824197  0.6452622198219337  0.7901423761973045  1.0000
  C   C202      1.0  0.3821681370288244  0.5883839589790255  0.800860399099353  1.0000
  C   C203      1.0  0.3677631484143844  0.6035748287775495  0.7622154747014475  1.0000
  C   C204      1.0  0.31907253622945586  0.5907841998275667  0.7974548425544435  1.0000
  H   H209      1.0  0.36910731614030756  0.6601668861950392  0.780612952518194  1.0000
  H   H210      1.0  0.41615217363188  0.6583940632250066  0.7827462995191629  1.0000
  H   H211      1.0  0.38051913724633846  0.6488789465549495  0.809170932801751  1.0000
  H   H212      1.0  0.3677846044733216  0.5594861803799914  0.7993122248216186  1.0000
  H   H213      1.0  0.41537023251975685  0.6000463666049611  0.7939382421069013  1.0000
  H   H214      1.0  0.3790635964426148  0.5903904007107508  0.8201889704307977  1.0000
  H   H215      1.0  0.35368148942090005  0.6174465514053168  0.751758567474831  1.0000
  H   H216      1.0  0.3528923740858944  0.5749853618289521  0.7597822513342677  1.0000
  H   H217      1.0  0.4005816031549267  0.6153231219992616  0.7542737265395775  1.0000
  H   H218      1.0  0.3030480740735571  0.5620021215463079  0.7956601407908686  1.0000
  H   H219      1.0  0.3035780754704423  0.6043242469880623  0.7880740840987733  1.0000
  H   H220      1.0  0.31414124246910546  0.5922554870151863  0.8167389635789838  1.0000
  N   N10       1.0  0.06564449989704335  0.20579189349007507  0.6956010872885687  1.0000
  C   C205      1.0  0.05598866000528924  0.2164833063002761  0.6725350983172925  1.0000
  C   C206      1.0  0.09418645547123083  0.19068505205363423  0.691391604085641  1.0000
  C   C207      1.0  0.027746275153422095  0.178445951574583  0.7108786999761871  1.0000
  C   C208      1.0  0.08475576001468421  0.23742611644662195  0.707482090274148  1.0000
  H   H221      1.0  0.035009173447605235  0.22855615840345012  0.6748994920804418  1.0000
  H   H222      1.0  0.04116801572318729  0.193134254428161  0.6632202639502521  1.0000
  H   H223      1.0  0.08415136159854786  0.23659924484242736  0.6603769307297701  1.0000
  H   H224      1.0  0.10332865257600687  0.18327371377732105  0.7082457199751422  1.0000
  H   H225      1.0  0.08026563833280398  0.16618497629476306  0.6830450135646475  1.0000
  H   H226      1.0  0.12248277511238626  0.2101491606122834  0.679235373950454  1.0000
  H   H227      1.0  0.034022726469477016  0.16986161118836188  0.7284334743148069  1.0000
  H   H228      1.0  0.0129886794665377  0.15407570245085708  0.702422551865606  1.0000
  H   H229      1.0  0.005179688944147776  0.18868031619140907  0.7142644499144263  1.0000
  H   H230      1.0  0.11295889947728255  0.2587691705227915  0.6961232374714963  1.0000
  H   H231      1.0  0.09365830702295264  0.23066580909841183  0.7246172373841759  1.0000
  H   H232      1.0  0.06382821577738595  0.24920489580291041  0.711338160549094  1.0000
  N   N11       1.0  0.4864314018784995  0.7907406840776307  0.7332969407522726  1.0000
  C   C209      1.0  0.5235524688098714  0.8008224137501967  0.7444932099933641  1.0000
  C   C210      1.0  0.47083434709315763  0.8168788303369411  0.7362051922153414  1.0000
  C   C211      1.0  0.4549381072220545  0.7547456353882429  0.7449070958893522  1.0000
  C   C212      1.0  0.49635766695723427  0.7905211804658513  0.7076493203872699  1.0000
  H   H233      1.0  0.5365699334447961  0.7820371671398553  0.742286409281214  1.0000
  H   H234      1.0  0.5167527585865367  0.8000245169821293  0.7640378062980664  1.0000
  H   H235      1.0  0.5477086232521773  0.8281578743050239  0.7366385924994402  1.0000
  H   H236      1.0  0.4423284614750795  0.8097438537346829  0.7283564650354628  1.0000
  H   H237      1.0  0.4632398489515535  0.8177888132893646  0.755393435218209  1.0000
  H   H238      1.0  0.4935220507470721  0.8443252475367924  0.727520375339411  1.0000
  H   H239      1.0  0.4472962892564476  0.7538571986163618  0.7643975730930027  1.0000
  H   H240      1.0  0.4654921546680674  0.7342818001770035  0.7428278316135841  1.0000
  H   H241      1.0  0.42609072784659413  0.7466578202633027  0.7373498328372771  1.0000
  H   H242      1.0  0.5193408764209302  0.8174427744590991  0.698215394257795  1.0000
  H   H243      1.0  0.4687143011472907  0.7821198456707006  0.6988013768842862  1.0000
  H   H244      1.0  0.509201336170816  0.7717281770742033  0.7047918419784646  1.0000
  N   N12       1.0  0.338191487304131  0.3811223331255911  0.6782439405755207  1.0000
  C   C213      1.0  0.30172709797309777  0.3812486068793505  0.6699615374822571  1.0000
  C   C214      1.0  0.3663457717098699  0.4174671641739802  0.682110262026666  1.0000
  C   C215      1.0  0.3589221529189118  0.3697642741085433  0.6600578684504281  1.0000
  C   C216      1.0  0.3255883527625332  0.3559553120896928  0.7008589857236749  1.0000
  H   H245      1.0  0.30999851377624144  0.4011652896473098  0.6535671468272551  1.0000
  H   H246      1.0  0.2842673041162816  0.38791869613028906  0.683797730498448  1.0000
  H   H247      1.0  0.2805613678297875  0.3545817669526856  0.6659198608687764  1.0000
  H   H248      1.0  0.39417161992587074  0.41850583399884134  0.6885346659370066  1.0000
  H   H249      1.0  0.3763296549671161  0.4373722922952878  0.6655076657470032  1.0000
  H   H250      1.0  0.35148164307991403  0.42687126833921357  0.6956129454529328  1.0000
  H   H251      1.0  0.38676975964798566  0.36956896426147506  0.6656349767632487  1.0000
  H   H252      1.0  0.36841027748173777  0.38801918684372483  0.6427111373710316  1.0000
  H   H253      1.0  0.33846068138936214  0.34231364671618436  0.656872483686104  1.0000
  H   H254      1.0  0.3027709755275921  0.32856617131037513  0.6989168580324546  1.0000
  H   H255      1.0  0.3110078947426247  0.3644243965815848  0.7151797210081761  1.0000
  H   H256      1.0  0.35203975021146033  0.3541591139557133  0.707338339166347  1.0000
  N   N13       1.0  0.36212154619284737  0.5826766152895081  0.3183369369809803  1.0000
  C   C217      1.0  0.3317628823101912  0.5916296632292786  0.33045398971232576  1.0000
  C   C218      1.0  0.38019121544705553  0.605783643204137  0.2948494823976207  1.0000
  C   C219      1.0  0.3418073722947536  0.5447930201294466  0.3151006408666804  1.0000
  C   C220      1.0  0.39463386964545344  0.5884953738433889  0.33297333251432104  1.0000
  H   H257      1.0  0.31758359818592746  0.5748615947408329  0.34830892371629874  1.0000
  H   H258      1.0  0.30672795516324664  0.5873277092664884  0.3199242432484246  1.0000
  H   H259      1.0  0.34564602612015016  0.6200138031762152  0.3331097500357852  1.0000
  H   H260      1.0  0.3563739780364178  0.6028324063691555  0.2835795428858454  1.0000
  H   H261      1.0  0.3965221818223115  0.6344765150290211  0.29677866011370985  1.0000
  H   H262      1.0  0.4027308621151882  0.5992427751244999  0.28504096578521554  1.0000
  H   H263      1.0  0.3637874029610144  0.5369113371748601  0.30611717349164236  1.0000
  H   H264      1.0  0.31676802543084587  0.539245006372102  0.3043663122135822  1.0000
  H   H265      1.0  0.32792555418057434  0.5266349592656862  0.33253955191286516  1.0000
  H   H266      1.0  0.4086639442600726  0.6161160199945491  0.33721441858937223  1.0000
  H   H267      1.0  0.4196162370888748  0.584627313440723  0.3235263004047957  1.0000
  H   H268      1.0  0.3826598272017747  0.5696245385486594  0.35015141933543803  1.0000
  N   N14       1.0  0.10087305528094102  0.9773652371556051  0.3647994607724331  1.0000
  C   C221      1.0  0.10866078596500629  0.00962173218624307  0.3482082772832522  1.0000
  C   C222      1.0  0.06059210739240409  0.9479369646593775  0.36306294766810426  1.0000
  C   C223      1.0  0.10118327892548372  0.9852516272496501  0.389371288931837  1.0000
  C   C224      1.0  0.13312038366762158  0.9667902448066383  0.3586766353579031  1.0000
  H   H269      1.0  0.13894837431494445  0.03237110782397923  0.3490644286549894  1.0000
  H   H270      1.0  0.085075773704547  0.01850071543352949  0.352590093605221  1.0000
  H   H271      1.0  0.10837852078451682  0.0046044585685036665  0.3294694675975255  1.0000
  H   H272      1.0  0.05341229400528404  0.9235950201805369  0.3758149596824173  1.0000
  H   H273      1.0  0.03557165987229049  0.955234647606436  0.3671062725568945  1.0000
  H   H274      1.0  0.05954857432987128  0.9404335495364301  0.3449338956580222  1.0000
  H   H275      1.0  0.09787899891063014  0.9623555548814708  0.40234231676939425  1.0000
  H   H276      1.0  0.07584944553511097  0.9912692432878447  0.39512205176357434  1.0000
  H   H277      1.0  0.12997929595449134  0.009022825881474406  0.3907727728209488  1.0000
  H   H278      1.0  0.1333774317700998  0.959946347444125  0.3403883448597657  1.0000
  H   H279      1.0  0.12845322587129127  0.9427936273804726  0.3710886179025798  1.0000
  H   H280      1.0  0.16396261146877775  0.9886086403155836  0.3596186000399399  1.0000
  N   N15       1.0  0.18584348884992224  0.2226073126134606  0.4521035952936357  1.0000
  C   C225      1.0  0.19260684084705235  0.2566469970460757  0.46007773547588043  1.0000
  C   C226      1.0  0.20362139254468953  0.20475785990293296  0.46730918920499515  1.0000
  C   C227      1.0  0.20553545062280099  0.22988560520361306  0.42706443043784426  1.0000
  C   C228      1.0  0.14152546721756845  0.1991581352432769  0.45394350963166413  1.0000
  H   H281      1.0  0.17928153012966866  0.2706348086898968  0.44902651694831686  1.0000
  H   H282      1.0  0.22575186585316556  0.27512087463334217  0.45876554598583874  1.0000
  H   H283      1.0  0.17825398959293262  0.25214494362891265  0.4789607597582883  1.0000
  H   H284      1.0  0.23716757560812343  0.22134689330706722  0.4660275467439871  1.0000
  H   H285      1.0  0.18998150890294083  0.19949522096500613  0.4864048315319806  1.0000
  H   H286      1.0  0.1982705331625891  0.1785648740821159  0.4621039894092411  1.0000
  H   H287      1.0  0.19981394202298083  0.20468866377134645  0.4201901220171832  1.0000
  H   H288      1.0  0.23915406938723793  0.24677297053462705  0.42495467764641404  1.0000
  H   H289      1.0  0.19347514877820304  0.244089760042816  0.41519162830441  1.0000
  H   H290      1.0  0.1352397491362896  0.17277464840157322  0.4487852365312519  1.0000
  H   H291      1.0  0.12737198834153032  0.21103081285249156  0.441850147226299  1.0000
  H   H292      1.0  0.1253486431356941  0.19409030175642739  0.47240110291964915  1.0000
  N   N16       1.0  0.24315137125709163  0.024434674206365015  0.4716711165047257  1.0000
  C   C229      1.0  0.23712415887019897  0.053346273596022585  0.48089836314715745  1.0000
  C   C230      1.0  0.2642356015311109  0.011572875797443394  0.4878896224456051  1.0000
  C   C231      1.0  0.2680950895258014  0.038187084017418896  0.4476898652066166  1.0000
  C   C232      1.0  0.20302833445631638  0.9945819079747223  0.4702023335847883  1.0000
  H   H293      1.0  0.22158047555458202  0.06384168060780719  0.4689354221675305  1.0000
  H   H294      1.0  0.2666798632377741  0.07630326858156766  0.48245295594631427  1.0000
  H   H295      1.0  0.21792416651246357  0.04386150863942584  0.4988165955280667  1.0000
  H   H296      1.0  0.294513053882902  0.03338964975096435  0.48965682530501964  1.0000
  H   H297      1.0  0.2460295245578242  0.0006455296317525987  0.5061091233632454  1.0000
  H   H298      1.0  0.2693573865395367  0.9897878217989885  0.48138521312108856  1.0000
  H   H299      1.0  0.2723448528841069  0.01682851878151224  0.4398454668721588  1.0000
  H   H300      1.0  0.2989241731191575  0.06025062480401796  0.4481861133722839  1.0000
  H   H301      1.0  0.2535006547427823  0.048891731315349074  0.4351490656335309  1.0000
  H   H302      1.0  0.20647275475988627  0.9726091646342891  0.46281326103366816  1.0000
  H   H303      1.0  0.1859522757876783  0.0033788935671327613  0.4584583693288713  1.0000
  H   H304      1.0  0.18367502778833103  0.9830823246176098  0.48807161144788347  1.0000
  N   N17       1.0  0.002455162885605988  0.06660354179108383  0.5748880080630655  1.0000
  C   C233      1.0  0.0401357481067286  0.06258896188497697  0.5725733569372375  1.0000
  C   C234      1.0  0.966523585540631  0.03086208635749676  0.5801947018594428  1.0000
  C   C235      1.0  0.0008892872921564265  0.086061885705272  0.5523526714710537  1.0000
  C   C236      1.0  0.002401722299542719  0.08695642763121171  0.5944234369468723  1.0000
  H   H305      1.0  0.06776677389497832  0.08910161648649896  0.5690141342351861  1.0000
  H   H306      1.0  0.041620646926880056  0.04793795794758083  0.5577227912325691  1.0000
  H   H307      1.0  0.04185555616538372  0.0476104420396528  0.5892427212214645  1.0000
  H   H308      1.0  0.9374329513788672  0.03271913125594742  0.5824293795392349  1.0000
  H   H309      1.0  0.9654257726908642  0.014872876252463566  0.5657067091670862  1.0000
  H   H310      1.0  0.9669695105764448  0.01522821880028924  0.5968962089236508  1.0000
  H   H311      1.0  0.972576274168543  0.08918629982238695  0.5534288705687346  1.0000
  H   H312      1.0  0.0016376293964093236  0.07183502330785141  0.5371074652388941  1.0000
  H   H313      1.0  0.027232032653603966  0.11335556114929043  0.5480073534213156  1.0000
  H   H314      1.0  0.9740752086444932  0.08995469546064878  0.5971192239650875  1.0000
  H   H315      1.0  0.028834189065263027  0.11429068041584395  0.590741407181761  1.0000
  H   H316      1.0  0.0046174834855103875  0.07353915644665693  0.6115726131605327  1.0000
  N   N18       1.0  0.29923230617806684  0.4826763992863186  0.07243032655026388  1.0000
  C   C237      1.0  0.30534796914049717  0.4909457854618576  0.04614463588166141  1.0000
  C   C238      1.0  0.2902457202688225  0.5093145337227762  0.08287997845560144  1.0000
  C   C239      1.0  0.3367646689726985  0.48394452280753886  0.08006695728178767  1.0000
  C   C240      1.0  0.26466316733736567  0.4466964739712318  0.08074060558268108  1.0000
  H   H317      1.0  0.3321828356610916  0.5174294946119673  0.039369225573801805  1.0000
  H   H318      1.0  0.27840832969585066  0.49193171326814655  0.03971169983349533  1.0000
  H   H319      1.0  0.31097388561494504  0.47078534163255426  0.03760806567749341  1.0000
  H   H320      1.0  0.26254974598624825  0.5097502938894837  0.07725896771556606  1.0000
  H   H321      1.0  0.2851628795723029  0.503773669465903  0.10273085002829378  1.0000
  H   H322      1.0  0.3160071079728141  0.5366164315547688  0.07721683621816826  1.0000
  H   H323      1.0  0.3447512278839214  0.4643482547541888  0.07245520492842761  1.0000
  H   H324      1.0  0.333282638816658  0.47800497538979064  0.09983932247956406  1.0000
  H   H325      1.0  0.3633857993219869  0.5109447771738423  0.07416933873732953  1.0000
  H   H326      1.0  0.2591576672067731  0.4400019861343555  0.10056510801082283  1.0000
  H   H327      1.0  0.270461557988403  0.4257652306227504  0.0734173974790781  1.0000
  H   H328      1.0  0.23592763759209395  0.444916632279412  0.07519213842325938  1.0000
  N   N19       1.0  0.27745458933681455  0.3106486915343634  0.2525728306409252  1.0000
  C   C241      1.0  0.30737202412627784  0.33185263659486597  0.26724833727835673  1.0000
  C   C242      1.0  0.29339157248713366  0.28979770439102953  0.23978613778684527  1.0000
  C   C243      1.0  0.2707225762721608  0.3350115093669761  0.23518918692756458  1.0000
  C   C244      1.0  0.23847595258472665  0.28605787579749326  0.26816638929506803  1.0000
  H   H329      1.0  0.31312790440923455  0.3145505974233258  0.2808050028234198  1.0000
  H   H330      1.0  0.29589496133436666  0.3474906822176527  0.2771669316475886  1.0000
  H   H331      1.0  0.33704460614761667  0.3513196237091875  0.25620242704332125  1.0000
  H   H332      1.0  0.2715457897725464  0.2733989369462543  0.22853987667811934  1.0000
  H   H333      1.0  0.3228629166588983  0.30764664668907266  0.22794978746709987  1.0000
  H   H334      1.0  0.2989040220806336  0.27129825094927457  0.25248968426296  1.0000
  H   H335      1.0  0.2997046839903863  0.35441782595011234  0.22344062491930913  1.0000
  H   H336      1.0  0.25884890505564906  0.3512200175332533  0.2443146801757916  1.0000
  H   H337      1.0  0.2483903157556524  0.3201158398087078  0.22369297541062927  1.0000
  H   H338      1.0  0.21500262991478336  0.26945579380498  0.2578329226265203  1.0000
  H   H339      1.0  0.22573663640130182  0.3009405472092098  0.2782302044672629  1.0000
  H   H340      1.0  0.2426343160777924  0.26772430453459944  0.2817972125990997  1.0000
  N   N20       1.0  0.7731504506538545  0.6943318279516837  0.35858977101622597  1.0000
  C   C245      1.0  0.7755039846506583  0.6823019423322729  0.3833481159307809  1.0000
  C   C246      1.0  0.7979685256985201  0.6846739479147812  0.34180913623771275  1.0000
  C   C247      1.0  0.7891160495908252  0.7334723777747083  0.3545898852820133  1.0000
  C   C248      1.0  0.7301641251878  0.6772316778683168  0.3546506233399227  1.0000
  H   H341      1.0  0.7572111918878602  0.6893748871927258  0.39645994757468855  1.0000
  H   H342      1.0  0.8075358055865126  0.6951583968153654  0.3869781345700728  1.0000
  H   H343      1.0  0.7639611815659796  0.652879343574915  0.38705368786310135  1.0000
  H   H344      1.0  0.786821155560201  0.6552773520674889  0.3442193812513812  1.0000
  H   H345      1.0  0.7971925194283261  0.6938319156122922  0.32298320923301604  1.0000
  H   H346      1.0  0.830587448446276  0.6973337580263975  0.3444960248552712  1.0000
  H   H347      1.0  0.7855990349162647  0.7434794662286426  0.3366193815954084  1.0000
  H   H348      1.0  0.8221414625987006  0.7474186785849093  0.355899962064254  1.0000
  H   H349      1.0  0.7729781669561212  0.7418599247330385  0.36806866277258454  1.0000
  H   H350      1.0  0.7108259810212371  0.6839160283042676  0.36727704090281293  1.0000
  H   H351      1.0  0.7170700073975389  0.6476313711052953  0.3571811802431877  1.0000
  H   H352      1.0  0.7271146251129383  0.68643285239442  0.3363010843631126  1.0000
  N   N21       1.0  0.3167058259528575  0.5863917243466705  0.6828590610554421  1.0000
  C   C249      1.0  0.32611539515127685  0.6081645541141802  0.6591096774989287  1.0000
  C   C250      1.0  0.3528379087954252  0.5822068336216617  0.6878851532259447  1.0000
  C   C251      1.0  0.28195548012720933  0.5508481293835812  0.6832054140208876  1.0000
  C   C252      1.0  0.3059075165839447  0.6043243195823644  0.7011707458876253  1.0000
  H   H353      1.0  0.3328736701003945  0.5948110419732232  0.6447616125475367  1.0000
  H   H354      1.0  0.3531892963300606  0.6346314332924783  0.6579215161723235  1.0000
  H   H355      1.0  0.3002756004385218  0.6133980073066881  0.655166081987581  1.0000
  H   H356      1.0  0.3467528636243603  0.5654423691341736  0.705502221107696  1.0000
  H   H357      1.0  0.36185975652753405  0.5688810751379985  0.6743138951139799  1.0000
  H   H358      1.0  0.3797014656943638  0.608523585419781  0.6878132345452835  1.0000
  H   H359      1.0  0.25408269005792034  0.5528636526539134  0.6794625046478597  1.0000
  H   H360      1.0  0.27379255891307147  0.5338567946016612  0.7009049679676477  1.0000
  H   H361      1.0  0.2890617280636282  0.5361917808006004  0.6698924335947996  1.0000
  H   H362      1.0  0.2795812321527044  0.6089610763048869  0.6974309341962769  1.0000
  H   H363      1.0  0.33174174745156476  0.6309495400506602  0.7017225822664598  1.0000
  H   H364      1.0  0.2970956653791503  0.5879906502780089  0.7192265925732942  1.0000
  N   N22       1.0  0.4269340138247195  0.7113451050306728  0.19705339902899865  1.0000
  C   C253      1.0  0.39605167119307055  0.7080521125379934  0.21679819550103716  1.0000
  C   C254      1.0  0.4676883480260791  0.7277948767047274  0.20436231785542017  1.0000
  C   C255      1.0  0.426568431424399  0.7340754020598719  0.17579098093453596  1.0000
  C   C256      1.0  0.41751070043347627  0.6755147419189804  0.1913144368700153  1.0000
  H   H365      1.0  0.4014674708891303  0.7346516010260771  0.22120733511429372  1.0000
  H   H366      1.0  0.3964147087472886  0.6919907392344998  0.2333439375985658  1.0000
  H   H367      1.0  0.3646844914651815  0.6947821291666838  0.2124114248476861  1.0000
  H   H368      1.0  0.4756477119492097  0.7547253801841064  0.2090399145472767  1.0000
  H   H369      1.0  0.4691714929949633  0.7112537427576305  0.22030047234467673  1.0000
  H   H370      1.0  0.4919931903288104  0.7309212723112634  0.18993096519567837  1.0000
  H   H371      1.0  0.3962176993689999  0.7225540546261452  0.16983658194570528  1.0000
  H   H372      1.0  0.44922432237213583  0.7366632529647363  0.16050085343885248  1.0000
  H   H373      1.0  0.4336935594638209  0.7613818529812056  0.17938397598517078  1.0000
  H   H374      1.0  0.3871204078374953  0.662609220340723  0.18542583097250082  1.0000
  H   H375      1.0  0.4170820701297278  0.6575148913909691  0.20700474282493397  1.0000
  H   H376      1.0  0.44050721288177  0.6769324128039459  0.17664860513437755  1.0000
  N   N23       1.0  0.21780027437350163  0.627795151237994  0.8436965731681209  1.0000
  C   C257      1.0  0.23900715536263134  0.6621441924277137  0.8524479989807899  1.0000
  C   C258      1.0  0.24827670776653138  0.6184038431572513  0.8322579428022496  1.0000
  C   C259      1.0  0.19243536400315264  0.6311615003835924  0.8261291345373962  1.0000
  C   C260      1.0  0.19159433399270565  0.599343408977803  0.8638747829066783  1.0000
  H   H377      1.0  0.21698228965092245  0.669857588077633  0.8615224028200521  1.0000
  H   H378      1.0  0.25862979670913033  0.6842363137925014  0.8375491639093954  1.0000
  H   H379      1.0  0.2591677424409406  0.6608214529708908  0.8653732292236976  1.0000
  H   H380      1.0  0.23326294144844986  0.5924512972309574  0.8255850823618189  1.0000
  H   H381      1.0  0.2684429726472105  0.6390935200918434  0.8168191149183767  1.0000
  H   H382      1.0  0.2677199557450093  0.6154622531109865  0.8450328522676459  1.0000
  H   H383      1.0  0.21140261755355114  0.6522100462745001  0.8105419501081714  1.0000
  H   H384      1.0  0.16897959232335014  0.6381988008408845  0.8340482655414493  1.0000
  H   H385      1.0  0.1763918063026698  0.6057654975065978  0.8189727864639801  1.0000
  H   H386      1.0  0.20985323372665138  0.5961302908671473  0.8774435655786674  1.0000
  H   H387      1.0  0.17593831195867732  0.5729426550592194  0.8578430989738675  1.0000
  H   H388      1.0  0.16779465654371162  0.6051138292633107  0.8728628097236055  1.0000
  N   N24       1.0  0.9909374530660622  0.8531728834911207  0.4459080199983267  1.0000
  C   C261      1.0  0.9552127664549928  0.8525058594321879  0.4602925729957189  1.0000
  C   C262      1.0  0.9785845348128012  0.819700957922554  0.43584535526408236  1.0000
  C   C263      1.0  0.021909986527929304  0.856619617371139  0.46125692655873046  1.0000
  C   C264      1.0  0.008521799801053165  0.8839278257324601  0.4263157660208229  1.0000
  H   H389      1.0  0.9640946379847709  0.8760511207435726  0.46964919656851434  1.0000
  H   H390      1.0  0.9389054047512858  0.8279944125080017  0.4738663325135331  1.0000
  H   H391      1.0  0.9325312545516372  0.8529978754959483  0.4491304574560692  1.0000
  H   H392      1.0  0.005374127497079995  0.8188754585362203  0.42589023123782266  1.0000
  H   H393      1.0  0.9634819148947925  0.795719807318774  0.44996391015939224  1.0000
  H   H394      1.0  0.9569167139243885  0.8168597809296511  0.42311107336592  1.0000
  H   H395      1.0  0.04928187568921283  0.8572536609820394  0.4510374716032741  1.0000
  H   H396      1.0  0.009967746349804907  0.8335092162811804  0.47593660407466115  1.0000
  H   H397      1.0  0.032319531009563196  0.8815665471792111  0.4692009626547336  1.0000
  H   H398      1.0  0.9857756845987549  0.8823161658486322  0.4144502522661062  1.0000
  H   H399      1.0  0.0352985786485398  0.8848656101518505  0.41507348125741633  1.0000
  H   H400      1.0  0.01864844677740174  0.9096894447362464  0.4332667240876907  1.0000
  N   N25       1.0  0.2888161402011149  0.8644319010737668  0.3721182949356864  1.0000
  C   C265      1.0  0.27121500685396815  0.8526037227250961  0.39765254739091654  1.0000
  C   C266      1.0  0.33061784493769175  0.868190336141702  0.36867157408842205  1.0000
  C   C267      1.0  0.29015966977410423  0.899238207373343  0.3640387700317183  1.0000
  C   C268      1.0  0.2632675529509714  0.8376309979836042  0.35817965289691467  1.0000
  H   H401      1.0  0.2892866181468315  0.8722716918819687  0.40880018803895946  1.0000
  H   H402      1.0  0.26928466139105384  0.8262239861148587  0.40440495849850194  1.0000
  H   H403      1.0  0.2396685273947469  0.8493277402476809  0.4008001110605457  1.0000
  H   H404      1.0  0.33059189743680323  0.8423734008093658  0.37473878675082556  1.0000
  H   H405      1.0  0.34476208380797513  0.8768712746994423  0.34956374150655783  1.0000
  H   H406      1.0  0.3506931504573592  0.8882731041754259  0.3789316910811771  1.0000
  H   H407      1.0  0.30365130547247854  0.9092802208149674  0.3449144798093603  1.0000
  H   H408      1.0  0.30839533687357507  0.9199075260028965  0.37457161257765803  1.0000
  H   H409      1.0  0.2590652631323028  0.8972889371311827  0.3662408149379322  1.0000
  H   H410      1.0  0.274968174148977  0.845865841041105  0.3387456639122009  1.0000
  H   H411      1.0  0.23114179331449536  0.8332686520021949  0.3609166157231271  1.0000
  H   H412      1.0  0.2621716253590735  0.8112225395265756  0.36359994694192926  1.0000
  N   N26       1.0  0.5871882525012082  0.7679370618546697  0.3493554345843654  1.0000
  C   C269      1.0  0.5582271183873491  0.7734837885716653  0.33550843318263107  1.0000
  C   C270      1.0  0.5915287668844861  0.7866355172577901  0.37019379229805977  1.0000
  C   C271      1.0  0.6274797099627195  0.782286247737314  0.3341788131486164  1.0000
  C   C272      1.0  0.571475384584369  0.7292925133897142  0.357632623104649  1.0000
  H   H413      1.0  0.5541745368318177  0.7595965000958012  0.3197216501117975  1.0000
  H   H414      1.0  0.5688431763787578  0.8023046065652613  0.3289833229816225  1.0000
  H   H415      1.0  0.5273387569778499  0.7624977394157778  0.3463388649072933  1.0000
  H   H416      1.0  0.6132388367665428  0.782917515804525  0.38101711078418304  1.0000
  H   H417      1.0  0.603413942425992  0.8158971668695784  0.3646326939163181  1.0000
  H   H418      1.0  0.5617405421668197  0.7763950957042915  0.3820944749085069  1.0000
  H   H419      1.0  0.6505620598083727  0.7801859591999215  0.3444362351445236  1.0000
  H   H420      1.0  0.639413773815044  0.8109876544217416  0.3266751708988576  1.0000
  H   H421      1.0  0.6260640947818591  0.767532491865973  0.31894430434934234  1.0000
  H   H422      1.0  0.5914050556344665  0.7241052560246003  0.36910126983214003  1.0000
  H   H423      1.0  0.5694736252205486  0.7145127455701618  0.34238276501438397  1.0000
  H   H424      1.0  0.5402340290127802  0.7172189267230449  0.36815967871975686  1.0000
  N   N27       1.0  0.44040670618847755  0.5145323938337198  0.8228498136613381  1.0000
  C   C273      1.0  0.47403681228827066  0.5439255513602406  0.805861924260721  1.0000
  C   C274      1.0  0.4554273604398091  0.4906988775541786  0.8340449495236866  1.0000
  C   C275      1.0  0.4067807621537424  0.49398129774644695  0.8100125130239004  1.0000
  C   C276      1.0  0.42541158063866463  0.5294827677823012  0.8414832289395494  1.0000
  H   H425      1.0  0.5000589411072905  0.560186956288804  0.8148168460181562  1.0000
  H   H426      1.0  0.4638221600859601  0.5624138077026601  0.7969444271725453  1.0000
  H   H427      1.0  0.48611928856353653  0.5336607450782934  0.7914936420815017  1.0000
  H   H428      1.0  0.4306751945509381  0.46808335697076997  0.8468574662788251  1.0000
  H   H429      1.0  0.4672350161833415  0.4791337061751357  0.8204512779346144  1.0000
  H   H430      1.0  0.4807098108754995  0.5053755335045776  0.8439893168919498  1.0000
  H   H431      1.0  0.39543235612534144  0.5112965374753381  0.8007185013415529  1.0000
  H   H432      1.0  0.38023833685634534  0.4721495570350085  0.8223199072972958  1.0000
  H   H433      1.0  0.4165653469967762  0.48141028230189725  0.7962623010333283  1.0000
  H   H434      1.0  0.45000240333382785  0.5452807886387077  0.8515358654957064  1.0000
  H   H435      1.0  0.4000056473387287  0.5081494360284328  0.8546847386117881  1.0000
  H   H436      1.0  0.4138613471209985  0.547668763895299  0.8337486804964962  1.0000
  N   N28       1.0  0.6555094681341076  0.7584196300284537  0.6360029520790814  1.0000
  C   C277      1.0  0.6405942072796958  0.768936309400938  0.657241919065769  1.0000
  C   C278      1.0  0.6281155359687782  0.7204598105246403  0.6352101547160748  1.0000
  C   C279      1.0  0.6972820502381599  0.7633747463019555  0.6373192375834379  1.0000
  C   C280      1.0  0.6559922800056804  0.780960954299734  0.6143690351471313  1.0000
  H   H437      1.0  0.6603850533181312  0.7974819373316382  0.6583607479291549  1.0000
  H   H438      1.0  0.6400857986451468  0.7525592074341632  0.6738932880005437  1.0000
  H   H439      1.0  0.6090634325951844  0.7653672355447422  0.6569835172160932  1.0000
  H   H440      1.0  0.6277856345501791  0.7028135103461437  0.6511367706751603  1.0000
  H   H441      1.0  0.5960324932255875  0.7155909008666007  0.6349489079703745  1.0000
  H   H442      1.0  0.6378830672317863  0.7116798190469379  0.6191651693585997  1.0000
  H   H443      1.0  0.7098181753115198  0.7559895405767987  0.6215194213597812  1.0000
  H   H444      1.0  0.6979156236414243  0.7466241527238782  0.6534630778391884  1.0000
  H   H445      1.0  0.7186397927453482  0.7916907971917044  0.6382683805819808  1.0000
  H   H446      1.0  0.6671572476940207  0.7738325656070412  0.5979465509441501  1.0000
  H   H447      1.0  0.6764497207345105  0.809781950131022  0.614524460289979  1.0000
  H   H448      1.0  0.62488086960295  0.7778939750364622  0.6129472507595318  1.0000
