data_image0
_chemical_formula_structural       SH2CHCNFeH5CHCFeS2FeS2FeSFeHS2H7FeHFeSCSCS2H3SCHS3FeS2FeS2FeSFeS3FeS2FeSHFeSFeS3FeHSH3CH4C5H2FeH2SH3SHC6H4FeCHCFeHC3SC6H6SH2C7H7SH4CHC6HSH2C6H5C5FeCH2S2NHCH2CHC4H2S2HFeHCH2NHCH2CHS2H3NCN2HNC5FeH3CHCHC4H7FeHCH2NCNC4H7SCH2C3H2NC4H13CH9NH2C2FeSCHSHCH2NC4H12CFeH3C2H2FeH2CSCH6SH6CHCHCH3CH5CHCSCHC3H5CHC2HC2HFeS2FeSFeS2H2CFeS2FeS2FeSFeS3H2CFeSFeS2H3FeS2FeSHFeSFeS3HC3HCHCHSH2FeH4SHNH3CHC6H4C5H7C6H4CH4C4HC6H4C6H4C2HC4H2C6H5CH5SHCH2C2HSHCH5NHCFeCH2NC4H12CH4CH3NSC2H6S2FeCSCS2H2NH7SH2CSH3NSC3H7C4HCHNC3HCH2CFeC3NC4H12CH4C2NH2FeH6FeHCNH2SCH8CHSNH2CSHFeS2FeSCHSHC2HCFeSFeS2H3SFeHSFe2S2FeHFeS3FeS2FeS2Fe2S5HS2FeS2FeS2FeSFeS3HC7H6CH2CHC2SCH5FeHSC3HC2H3C6H4C6H4C6H4C5H2FeCH2CHSH4CHCHCHC5H2C4H2CSH2CH2C6H4NC4H12NHCH3FeHC2H11CH2CSNCH2NC4H15C2SHCH3C2H2CH2C3H3CH4CHCH2NHCHFeHC3H2SNHCHSCSHC5HSN2SCHCH3SHSH2FeHNH2NSHCFeHNFeCHCH2C2SH3C2HCH4C2HCHC2HFeCSCH3NCH4CH2CFeH3NSC2HSNH6SC2FeSH2SH3CH2CH2C2H3C3H3CH7CH3C2H2C2FeSHCHC3H4CH4FeSCFeS2HNHFeSHCS3Fe2S2CSHFeCFeSHSCHCHFeSHCHCHSH3FeSHCFeS4H2S2H2FeS2FeS2HFeS2FeSFeSFeS3HCH3CH2C6H4CH4CHCH2C5H3C6H7NC2HCH2CHCHCFeC2FeCH3C3SH2SC7H5C9H7C2HC4H2CHSH2CHCH3FeNSCH2CH3C3FeHSHSCHCH3CHFe2HSFeSNCHC2NC3HCH3CHFeNC2H2SC2NC2H2SCH5CH6C2H3NH3CSC3NH2C3HNHCHSH3CHNC4H17CH3NH6FeCH3C2H5C4H2CH2SCH3S2CHCH4SC2H5CH4SH8SC2SHCSCH2CH2FeHCSC2H2NH3C2H2CNH2FeHFeH2SHCHCSHFeS2FeSFeCH2CHC2SCFeSHCHSFeSFeS2FeHSHCFeS2NCH3FeSHFeS2FeSHFeSFeS3HCHC6H4C2H2CSHFeHCHC4H5C3FeH4C6H4CH2C4H2CHN2H2CHCHCH5C3HCH2C3FeH4S2H3C6H4FeCSH7SNC4H12SCSHC2FeSCNHCHCHCH6SCH2FeH3CNH2CH2SCNHCHC4H2SH3CSFeH2CFeSNC4H12NC2H2S2H2C2HCFeHSCHCSCHSHNC2H3CH3SHCHSCHCHSH2CHCH5SH4CFeCH2CH2CHCHC2HCFeH2SHCHSHCFeHS2C2SH5NFeCH2CH3C2H3FeSCHSCS2FeS2FeSHFeSFeS2CHSH3FeS2FeS2FeSFeS3CH7FeCH3C2H6FeHC7H4CH3C6H3C2HC2H5C2HCH2C6H8SCH5CHCHSC3HCH2C5H2CH2CHC4HCH2CH6CH6NH7FeC3H5C2HC2NC2HNHSC2HN2HCHCHFeH4CH2CHCHCH5NC3HSFeCHSNC4H12SH2S2HC2H2NHCH3CHS2H2CH2SHFeSNC2HCSHCHC2HCS2H2C3HCH3CHCH2SNCSHSCH4C2HCSCH4FeHC2HCFeH5CSCFeS2FeS2FeSFeS3CH4SCH2SFeS2FeSHS3HFeSFeSHSFeS2FeS2FeSFeS3CSHSFeSFeSH2NCH2FeSHCSH3CFeC6H3C7H2CHC6H5C6H4SC2HC4H5SHCSHC6H5CH2C2H2CH3NCSH2NCNFeC6H4C6H3C4HCH3CHC2H2CFeC6H6C5H2NC3NCH11CSCSCHFeCHCH2SHNC2H4N2CH2CH7FeCH7CH2CFeC2HSH6CH2NH2NHSHC3HNHCH5CFeH3SCH4CH7SC3SH5CH3C2H2FeH6CH2SHCH5CFeH8SHCSCH2CH4CH3CFeCS2CH4SHCHCHCH2CHSCHCSH2SHCH3S2CSHCHSC2H3C2HFe2HSCH2CH5NSCFeSHFeS2FeS2FeSFeS4NSHFe2S2FeS2FeSFeS4C6H4CNC2NH3C3H3C6HFeH2C4HCH4C6H4C6H4C6H4SCSCNCSHCHFeH2SHSHCHCN2S2H2CH4C2HCNC4H12NC4H12CH2CH2S2C2FeHCSH2NC4H12FeH7SFeH2SHFeH3CH4C2H2CH2SCFeH4CH4SH2S2C2H3CH3C2H3SHCHC2SCSCH5CSC4H2FeHCHCH2SH3C2HCFeCH8CH2CHCHFeCH2SC2H5CHSCHNFeS2FeS2FeSCHS4FeSFeSCFeS2FeSFeS3HCSHC4HCHCHNCH5NHC3H2CHCH2S2H4C3H2CH6FeH3FeNHCHC3H2SCHSH8CNH2C2H2SHC3HC2H2CHCHC3FeHC6H4C3H2SCFeSH2C6H8CSC2H2SFeCH2CHNH2C2H4CHSH2FeH2CHC2HNHCH5CH3CHCHCHCSHCH6CHNSFeCH4FeCHSFeCHSC2H6C2SH2SH3CHCHCH3C2HNHCNC4H12CHNC3HCH8SHSHSH2C3H3C4H2FeH2C2HSCSHSH2CHFe2H3CHC2S2FeSCHCFeS2FeSFeS3H2SFeCSHSFeSHCHCFeCNSFeS2FeH4C2H2SFe2HSFeS2C2HS2H4NCHSCHC2HC2HC2H4FeCNC2H2CHCSH2C2H2SHC6H5CSH7C3H3SC3SC2H2CH3CHC5HSC6H4CH4NH2CHCHC2S3HC2H2C4HCHC2HNSH5CH6C2HCH2C3H2FeHC2SCHCS4H2SC3H3FeHSHFeSCSFeSCH3CH2FeHFeCH2CFeHNH2C3H4SNH2CSH2FeH5CNCHCHS2H3NCHCH6CH2C3HNC4H11NC4H11SC3SHCH7CH4C2H2S2CH3CH2NFeS2FeS2FeSFeS5HCFeS2H2S2CHSHFeS2FeSFeSFeS5H4SCH2SHFe2H2CH2FeSFeSC2NCSHC6H4C6H7C6H4FeH2CSH3FeH2SC6H4C6H3C6H5SH2C3SH2CHC2H2C2HFeC2HSFe2H2FeCNC4H12CHCHCHC2FeHC2H4CNC4H2C2H6NC4H12S2CSHFeHS2CSNC4H7CH4SCH6CHCHNC4SH12SHSH3CHSCH2CHFeHC4NH2NCSHCHCHSFeSFeS2FeHFeS4FeS2FeS2HCFeS3H3SH2SH2CHS3HC2H2C2HC4H3FeS2FeS2FeSFeS4C7H3CSH2SH7CH2FeCH2C2HCFeC7H4SHSH2CHSC4H2C7H4C2H2C3HC2HN2HC6H4CH2C2H3SNC2FeC4H2NH4FeSCHC2H2CH3CHSH3SCSH2N2CH2NC4H13C3SCH3CFeCFeCFeH2FeCHFeH8C3H5CNHNC4H13C2HC2H5CHCH4FeH4CH4SNCFeCH2C2NC4H4SCH5CH3NH2C4HSH2C2FeSCHCH6C2H5CHSCFeHS2H2C4H3FeCNH2CH4FeH5CH5SFeH4C5SH5SHC3HCH7CHC3HFe3S2FeS2FeSFeS3H4FeS2H2FeSCSHCHCH10C2SC3HC2H3FeS2FeSFeSFeSH2FeHSC6H3C6H5SCH3SH4C3HCH3SH2C2NHNH2CHS2C6H4C3H3C5H2CHC3HCH3NCSCSH2CH4CSH3FeCFeH2NH2FeCH6FeH4SCFeNFeHSH3CH3CHSH3CH3CHCHCH5CH3CH2NC2HCNSH6CSCHNC4H12CHSHCHCSNC2HCHN2H2C3H4C2HC2H2SNCHC2H4CSH6FeH2NHCSCHCHCH6C2H4C2HCH2CHSH14CHCHC2FeCHCH3CSCH5SCS2H2CS2CH5FeSFe2S2FeS2FeSFeS3FeS2FeS2FeSH2S2CFeS2HS2FeHSFeS2FeS2FeSFeS3C3H3SNSHCH2NC6H4CFeH2CH3C4SH3CNH4NHCSHCH5CHCHC6H4C5H3C6H4C6H7CHSC6H2C2H7CHCH3CHC6H5SCH6NH6CSHFeH2NH2CH13CH4CH4C2SHCSH2NHFeC3HFeCHCH3NC4H4SFeH3C2H6SFeH2CHCH2SHCFeHCH2SHCH2CHCH2C3H4FeHFeH3CFeH2CH3CNHNH3CHC2HSHCHSNH3SCFe2HSCHC2NH2C2HCSHCFeSCSHFeSFeS2HFeS4FeCS2H3SHSFeS2C2NCFeCHSC2SH2FeCSFe2SFe2H2S2HS2H3SHC2FeNH6C2HSH2SH4CHFeS2H2FeHCFeS3C3H3CH8C2NH2CNSFeHCHC3H3C2SH3C2H4C2H3C2HCHCSH2C3H4FeHCSFeHSHCH3SFeCHCFeH2C2HSC2H2C7H7SH2CH2C6H4NH4SC2HC3HCH2SC5H2CH3FeHC3H3CHC2H8CHCSHCH3SCH4CSHCNCSHFeH2FeCH2SH2NC4H9C2HC2HCH2C4SH4NC4H8CHNCSH3CNC4H3CH2FeCNHCSH2CH2C2HCHCH3SFeHCH2C2HC2H5CHC3H2CH3NCNHCH5FeHC3H2CH2CFeSCHFeS2FeS2FeSFeS3H8C2H2FeSFeHSHSFeS2FeS2FeCFeS3HSHSCFeSFeSH5CHFeS2NHFeSHCH3FeSHSH3CH2SH7C7H4C6H4C6H5SC8H2SCS2H2NSH4SC4H10C2H2C2SHC6H4C2H2C2HCH3CHCFeH2C9H3C2H6C3H4C2H2C2NCHC4H4FeCHNHC3H3NSCH6NC4H13CH2CHCH2CHSH7CHNC2H7FeC2NHSNFeH2C2H3NCHNCHSCFeCHS2NH3C2HC2HC3H3CFeSH2FeCFeNCH2CHSH2CSCHFeH3CHNH2S3NSH2FeH3CFeHCHS2HCH2CHFeSCH2CHCH2CHCH3C2H2CHCH4C2HCHCHNHCH
_chemical_formula_sum              "S768 H3072 C1920 N192 Fe384"
_cell_length_a       68.9322
_cell_length_b       69.83
_cell_length_c       70.4428
_cell_angle_alpha    76.2552
_cell_angle_beta     75.3629
_cell_angle_gamma    76.1623

_space_group_name_H-M_alt    "P 1"
_space_group_IT_number       1

loop_
  _space_group_symop_operation_xyz
  'x, y, z'

loop_
  _atom_site_type_symbol
  _atom_site_label
  _atom_site_symmetry_multiplicity
  _atom_site_fract_x
  _atom_site_fract_y
  _atom_site_fract_z
  _atom_site_occupancy
  S   S1        1.0  0.38573  0.00086  0.25994  1.0000
  H   H1        1.0  0.49459  0.09477  0.28846  1.0000
  H   H2        1.0  0.06240  0.03278  0.15002  1.0000
  C   C1        1.0  0.15361  0.09214  0.18986  1.0000
  H   H3        1.0  0.19593  0.18700  0.39168  1.0000
  C   C2        1.0  0.43589  0.99968  0.04217  1.0000
  N   N1        1.0  0.16816  0.17579  0.39711  1.0000
  Fe  Fe1       1.0  0.49048  0.19778  0.39391  1.0000
  H   H4        1.0  0.13759  0.12223  0.22454  1.0000
  H   H5        1.0  0.14048  0.09726  0.18215  1.0000
  H   H6        1.0  0.05431  0.17482  0.40777  1.0000
  H   H7        1.0  0.18441  0.18022  0.41756  1.0000
  H   H8        1.0  0.18047  0.98776  0.24790  1.0000
  C   C3        1.0  0.49550  0.07842  0.29456  1.0000
  H   H9        1.0  0.34277  0.01900  0.45739  1.0000
  C   C4        1.0  0.01442  0.03813  0.15530  1.0000
  Fe  Fe2       1.0  0.41245  0.05572  0.33252  1.0000
  S   S2        1.0  0.43553  0.04832  0.35187  1.0000
  S   S3        1.0  0.42239  0.05225  0.30037  1.0000
  Fe  Fe3       1.0  0.37823  0.07033  0.36511  1.0000
  S   S4        1.0  0.39814  0.06421  0.38745  1.0000
  S   S5        1.0  0.34475  0.08290  0.37159  1.0000
  Fe  Fe4       1.0  0.42072  0.07786  0.36167  1.0000
  S   S6        1.0  0.44161  0.09948  0.35940  1.0000
  Fe  Fe5       1.0  0.41106  0.03552  0.37563  1.0000
  H   H10       1.0  0.39133  0.17183  0.41213  1.0000
  S   S7        1.0  0.39953  0.08620  0.34019  1.0000
  S   S8        1.0  0.38920  0.04066  0.35543  1.0000
  H   H11       1.0  0.07237  0.18978  0.37405  1.0000
  H   H12       1.0  0.08042  0.18451  0.27924  1.0000
  H   H13       1.0  0.17884  0.09520  0.21205  1.0000
  H   H14       1.0  0.48996  0.04170  0.29442  1.0000
  H   H15       1.0  0.11671  0.18914  0.37354  1.0000
  H   H16       1.0  0.38921  0.99292  0.36267  1.0000
  H   H17       1.0  0.48568  0.02885  0.18506  1.0000
  Fe  Fe6       1.0  0.09062  0.17202  0.46098  1.0000
  H   H18       1.0  0.02065  0.02936  0.20327  1.0000
  Fe  Fe7       1.0  0.35799  0.99970  0.01034  1.0000
  S   S9        1.0  0.03952  0.19748  0.07288  1.0000
  C   C5        1.0  0.14211  0.11844  0.20933  1.0000
  S   S10       1.0  0.07963  0.16023  0.43935  1.0000
  C   C6        1.0  0.15537  0.19615  0.39578  1.0000
  S   S11       1.0  0.27510  0.98810  0.45719  1.0000
  S   S12       1.0  0.45516  0.01204  0.06535  1.0000
  H   H19       1.0  0.03076  0.08032  0.15658  1.0000
  H   H20       1.0  0.38293  0.23553  0.39270  1.0000
  H   H21       1.0  0.05527  0.19600  0.41748  1.0000
  S   S13       1.0  0.30758  0.01375  0.33199  1.0000
  C   C7        1.0  0.02076  0.05672  0.14862  1.0000
  H   H22       1.0  0.07005  0.22006  0.26336  1.0000
  S   S14       1.0  0.49536  0.01929  0.09155  1.0000
  S   S15       1.0  0.32543  0.01426  0.27495  1.0000
  S   S16       1.0  0.00617  0.02796  0.13869  1.0000
  Fe  Fe8       1.0  0.06463  0.13123  0.17303  1.0000
  S   S17       1.0  0.04531  0.11965  0.20267  1.0000
  S   S18       1.0  0.05994  0.16419  0.15892  1.0000
  Fe  Fe9       1.0  0.09607  0.09252  0.17400  1.0000
  S   S19       1.0  0.07973  0.07848  0.20378  1.0000
  S   S20       1.0  0.12477  0.07663  0.15621  1.0000
  Fe  Fe10      1.0  0.05150  0.09075  0.19112  1.0000
  S   S21       1.0  0.03099  0.06762  0.19916  1.0000
  Fe  Fe11      1.0  0.07519  0.10833  0.21251  1.0000
  S   S22       1.0  0.07973  0.10894  0.24310  1.0000
  S   S23       1.0  0.06821  0.10339  0.16055  1.0000
  S   S24       1.0  0.09420  0.12128  0.18371  1.0000
  Fe  Fe12      1.0  0.08508  0.20449  0.31605  1.0000
  S   S25       1.0  0.09868  0.17218  0.31471  1.0000
  S   S26       1.0  0.05173  0.21658  0.32562  1.0000
  Fe  Fe13      1.0  0.12568  0.21795  0.30205  1.0000
  S   S27       1.0  0.14327  0.18700  0.29875  1.0000
  H   H23       1.0  0.46331  0.07993  0.32574  1.0000
  Fe  Fe14      1.0  0.11775  0.18437  0.28533  1.0000
  S   S28       1.0  0.12102  0.17593  0.25533  1.0000
  Fe  Fe15      1.0  0.12276  0.17748  0.32825  1.0000
  S   S29       1.0  0.13457  0.15523  0.35344  1.0000
  S   S30       1.0  0.10221  0.21641  0.28586  1.0000
  S   S31       1.0  0.10716  0.20860  0.33246  1.0000
  Fe  Fe16      1.0  0.30224  0.00170  0.45414  1.0000
  H   H24       1.0  0.35146  0.02189  0.04861  1.0000
  S   S32       1.0  0.29751  0.03509  0.45046  1.0000
  H   H25       1.0  0.17514  0.21873  0.41725  1.0000
  H   H26       1.0  0.37662  0.18372  0.39336  1.0000
  H   H27       1.0  0.46154  0.15122  0.38320  1.0000
  C   C8        1.0  0.04621  0.19029  0.40973  1.0000
  H   H28       1.0  0.39474  0.02645  0.42981  1.0000
  H   H29       1.0  0.44183  0.00580  0.35719  1.0000
  H   H30       1.0  0.07359  0.21063  0.38426  1.0000
  H   H31       1.0  0.35733  0.03606  0.43963  1.0000
  C   C9        1.0  0.11939  0.15717  0.37726  1.0000
  C   C10       1.0  0.11282  0.17567  0.38361  1.0000
  C   C11       1.0  0.09628  0.15912  0.41608  1.0000
  C   C12       1.0  0.10270  0.14077  0.40959  1.0000
  C   C13       1.0  0.11464  0.13972  0.39043  1.0000
  H   H32       1.0  0.09847  0.12728  0.41944  1.0000
  H   H33       1.0  0.11980  0.12538  0.38564  1.0000
  Fe  Fe17      1.0  0.31764  0.99734  0.30628  1.0000
  H   H34       1.0  0.35854  0.03123  0.46553  1.0000
  H   H35       1.0  0.36164  0.22440  0.40738  1.0000
  S   S33       1.0  0.41393  0.00508  0.39554  1.0000
  H   H36       1.0  0.48558  0.23138  0.01433  1.0000
  H   H37       1.0  0.45552  0.07244  0.27793  1.0000
  H   H38       1.0  0.11690  0.09259  0.21460  1.0000
  S   S34       1.0  0.17865  0.00273  0.20232  1.0000
  H   H39       1.0  0.49680  0.01087  0.03577  1.0000
  C   C14       1.0  0.09019  0.12826  0.24654  1.0000
  C   C15       1.0  0.09612  0.14336  0.23059  1.0000
  C   C16       1.0  0.10579  0.15772  0.23347  1.0000
  C   C17       1.0  0.10894  0.15752  0.25245  1.0000
  C   C18       1.0  0.10245  0.14279  0.26855  1.0000
  C   C19       1.0  0.09324  0.12811  0.26555  1.0000
  H   H40       1.0  0.09350  0.14384  0.21597  1.0000
  H   H41       1.0  0.11069  0.16916  0.22097  1.0000
  H   H42       1.0  0.10493  0.14243  0.28321  1.0000
  H   H43       1.0  0.08866  0.11647  0.27797  1.0000
  Fe  Fe18      1.0  0.47349  0.20254  0.43677  1.0000
  C   C20       1.0  0.44307  0.99492  0.06000  1.0000
  H   H44       1.0  0.15495  0.12615  0.20085  1.0000
  C   C21       1.0  0.37690  0.98825  0.37543  1.0000
  Fe  Fe19      1.0  0.45363  0.17891  0.41687  1.0000
  H   H45       1.0  0.04513  0.22862  0.25758  1.0000
  C   C22       1.0  0.17206  0.22724  0.33874  1.0000
  C   C23       1.0  0.16534  0.08836  0.22032  1.0000
  C   C24       1.0  0.03102  0.19461  0.27468  1.0000
  S   S35       1.0  0.43414  0.15525  0.42183  1.0000
  C   C25       1.0  0.16323  0.02257  0.18926  1.0000
  C   C26       1.0  0.16821  0.02781  0.16844  1.0000
  C   C27       1.0  0.15618  0.04434  0.15838  1.0000
  C   C28       1.0  0.13903  0.05551  0.16909  1.0000
  C   C29       1.0  0.13377  0.04994  0.18987  1.0000
  C   C30       1.0  0.14596  0.03362  0.19995  1.0000
  H   H46       1.0  0.18160  0.01941  0.16010  1.0000
  H   H47       1.0  0.16035  0.04860  0.14229  1.0000
  H   H48       1.0  0.12063  0.05843  0.19824  1.0000
  H   H49       1.0  0.48230  0.99989  0.22527  1.0000
  H   H50       1.0  0.48193  0.04645  0.31951  1.0000
  H   H51       1.0  0.38754  0.01999  0.02888  1.0000
  S   S36       1.0  0.46005  0.19924  0.38717  1.0000
  H   H52       1.0  0.49789  0.04943  0.20287  1.0000
  H   H53       1.0  0.27191  0.00744  0.21171  1.0000
  C   C31       1.0  0.02061  0.03707  0.18802  1.0000
  C   C32       1.0  0.04498  0.18851  0.09690  1.0000
  C   C33       1.0  0.04384  0.16854  0.10618  1.0000
  C   C34       1.0  0.04877  0.16072  0.12506  1.0000
  C   C35       1.0  0.05450  0.17301  0.13489  1.0000
  C   C36       1.0  0.05560  0.19299  0.12561  1.0000
  C   C37       1.0  0.05100  0.20070  0.10660  1.0000
  H   H54       1.0  0.03911  0.15907  0.09874  1.0000
  H   H55       1.0  0.04773  0.14536  0.13219  1.0000
  H   H56       1.0  0.05993  0.20256  0.13323  1.0000
  H   H57       1.0  0.05178  0.21614  0.09963  1.0000
  H   H58       1.0  0.40563  0.19950  0.37297  1.0000
  H   H59       1.0  0.25354  0.03045  0.46676  1.0000
  H   H60       1.0  0.06348  0.16725  0.28428  1.0000
  S   S37       1.0  0.47697  0.04384  0.14088  1.0000
  H   H61       1.0  0.38164  0.20780  0.43333  1.0000
  H   H62       1.0  0.23162  0.04890  0.47452  1.0000
  H   H63       1.0  0.02189  0.20466  0.26394  1.0000
  H   H64       1.0  0.09046  0.05122  0.13228  1.0000
  C   C38       1.0  0.45097  0.14109  0.38637  1.0000
  H   H65       1.0  0.29653  0.99576  0.40482  1.0000
  C   C39       1.0  0.41187  0.03714  0.29038  1.0000
  C   C40       1.0  0.39600  0.02716  0.30156  1.0000
  C   C41       1.0  0.38753  0.01608  0.29242  1.0000
  C   C42       1.0  0.39530  0.01465  0.27225  1.0000
  C   C43       1.0  0.41150  0.02416  0.26141  1.0000
  C   C44       1.0  0.41960  0.03548  0.27036  1.0000
  H   H66       1.0  0.39031  0.02799  0.31713  1.0000
  S   S38       1.0  0.09908  0.20228  0.45297  1.0000
  H   H67       1.0  0.41759  0.02309  0.24587  1.0000
  H   H68       1.0  0.43185  0.04309  0.26164  1.0000
  C   C45       1.0  0.33175  0.06901  0.39313  1.0000
  C   C46       1.0  0.31398  0.07875  0.40431  1.0000
  C   C47       1.0  0.30360  0.06815  0.42186  1.0000
  C   C48       1.0  0.31050  0.04760  0.42793  1.0000
  C   C49       1.0  0.32793  0.03762  0.41641  1.0000
  C   C50       1.0  0.33882  0.04842  0.39920  1.0000
  H   H69       1.0  0.30849  0.09465  0.39966  1.0000
  H   H70       1.0  0.29014  0.07592  0.43070  1.0000
  H   H71       1.0  0.33325  0.02175  0.42101  1.0000
  H   H72       1.0  0.35254  0.04083  0.39058  1.0000
  H   H73       1.0  0.36874  0.04690  0.08073  1.0000
  C   C51       1.0  0.10160  0.17659  0.40319  1.0000
  C   C52       1.0  0.17288  0.16955  0.37754  1.0000
  C   C53       1.0  0.43889  0.11517  0.37678  1.0000
  C   C54       1.0  0.42391  0.11443  0.39442  1.0000
  C   C55       1.0  0.42262  0.12682  0.40803  1.0000
  Fe  Fe20      1.0  0.31344  0.99089  0.26619  1.0000
  C   C56       1.0  0.32697  0.04293  0.98226  1.0000
  H   H74       1.0  0.41349  0.10414  0.39768  1.0000
  H   H75       1.0  0.41118  0.12593  0.42175  1.0000
  S   S39       1.0  0.11540  0.23249  0.01394  1.0000
  S   S40       1.0  0.35686  0.03305  0.00419  1.0000
  N   N2        1.0  0.14785  0.09649  0.21032  1.0000
  H   H76       1.0  0.49736  0.20265  0.98389  1.0000
  C   C57       1.0  0.03295  0.22382  0.39383  1.0000
  H   H77       1.0  0.17005  0.07180  0.22135  1.0000
  H   H78       1.0  0.46398  0.12930  0.35924  1.0000
  C   C58       1.0  0.39543  0.20565  0.42122  1.0000
  H   H79       1.0  0.15643  0.21372  0.32394  1.0000
  C   C59       1.0  0.13033  0.08701  0.22183  1.0000
  C   C60       1.0  0.47024  0.07697  0.27690  1.0000
  C   C61       1.0  0.01481  0.02812  0.17494  1.0000
  C   C62       1.0  0.15807  0.21817  0.44752  1.0000
  H   H80       1.0  0.03124  0.18904  0.42011  1.0000
  H   H81       1.0  0.02865  0.22063  0.43902  1.0000
  S   S41       1.0  0.11850  0.15648  0.47319  1.0000
  S   S42       1.0  0.15646  0.19286  0.45129  1.0000
  H   H82       1.0  0.39846  0.00956  0.06974  1.0000
  Fe  Fe21      1.0  0.47015  0.00348  0.09221  1.0000
  H   H83       1.0  0.03949  0.18012  0.37769  1.0000
  C   C63       1.0  0.06405  0.18324  0.28341  1.0000
  H   H84       1.0  0.47943  0.07111  0.16436  1.0000
  H   H85       1.0  0.15092  0.20096  0.41051  1.0000
  N   N3        1.0  0.04370  0.20355  0.39040  1.0000
  H   H86       1.0  0.40604  0.19203  0.42698  1.0000
  C   C64       1.0  0.48674  0.01462  0.22352  1.0000
  H   H87       1.0  0.09684  0.00786  0.18563  1.0000
  H   H88       1.0  0.39427  0.04598  0.06610  1.0000
  C   C65       1.0  0.47789  0.05048  0.30454  1.0000
  H   H89       1.0  0.11167  0.00238  0.16191  1.0000
  S   S43       1.0  0.48354  0.20080  0.46569  1.0000
  S   S44       1.0  0.48512  0.17532  0.42240  1.0000
  H   H90       1.0  0.40779  0.00265  0.44080  1.0000
  H   H91       1.0  0.23285  0.99766  0.22827  1.0000
  H   H92       1.0  0.14173  0.22224  0.47713  1.0000
  N   N4        1.0  0.48757  0.23446  0.98277  1.0000
  C   C66       1.0  0.21826  0.99310  0.22898  1.0000
  N   N5        1.0  0.39022  0.20363  0.40278  1.0000
  N   N6        1.0  0.37505  0.00731  0.44989  1.0000
  H   H93       1.0  0.36391  0.00123  0.37647  1.0000
  N   N7        1.0  0.37554  0.03131  0.05623  1.0000
  C   C67       1.0  0.38233  0.01154  0.06837  1.0000
  C   C68       1.0  0.35382  0.03367  0.05553  1.0000
  C   C69       1.0  0.38802  0.03268  0.03571  1.0000
  C   C70       1.0  0.37803  0.04741  0.06526  1.0000
  C   C71       1.0  0.39439  0.01493  0.44383  1.0000
  Fe  Fe22      1.0  0.44882  0.22423  0.40477  1.0000
  H   H94       1.0  0.47322  0.02660  0.22101  1.0000
  H   H95       1.0  0.14201  0.02952  0.21606  1.0000
  H   H96       1.0  0.25674  0.05106  0.47583  1.0000
  C   C72       1.0  0.03165  0.19532  0.38074  1.0000
  H   H97       1.0  0.05317  0.20139  0.23729  1.0000
  C   C73       1.0  0.30277  0.99734  0.35496  1.0000
  H   H98       1.0  0.40425  0.03238  0.03546  1.0000
  C   C74       1.0  0.16020  0.22751  0.32513  1.0000
  C   C75       1.0  0.37593  0.22193  0.39588  1.0000
  C   C76       1.0  0.40896  0.20112  0.38709  1.0000
  C   C77       1.0  0.15701  0.16148  0.41243  1.0000
  H   H99       1.0  0.16362  0.20750  0.38493  1.0000
  H   H100      1.0  0.14262  0.16065  0.40853  1.0000
  H   H101      1.0  0.16633  0.14603  0.41413  1.0000
  H   H102      1.0  0.15282  0.16591  0.42735  1.0000
  H   H103      1.0  0.09661  0.19080  0.40820  1.0000
  H   H104      1.0  0.16622  0.09975  0.18047  1.0000
  H   H105      1.0  0.02932  0.20510  0.36619  1.0000
  Fe  Fe23      1.0  0.12538  0.18729  0.46781  1.0000
  H   H106      1.0  0.11714  0.02104  0.17240  1.0000
  C   C78       1.0  0.04286  0.22680  0.46027  1.0000
  H   H107      1.0  0.19759  0.16095  0.40348  1.0000
  H   H108      1.0  0.06143  0.17578  0.24878  1.0000
  N   N8        1.0  0.47585  0.07231  0.29664  1.0000
  C   C79       1.0  0.18739  0.17597  0.40267  1.0000
  N   N9        1.0  0.08999  0.03030  0.16019  1.0000
  C   C80       1.0  0.07349  0.02136  0.15791  1.0000
  C   C81       1.0  0.08104  0.04623  0.17211  1.0000
  C   C82       1.0  0.10090  0.03907  0.14028  1.0000
  C   C83       1.0  0.10453  0.01468  0.17048  1.0000
  H   H109      1.0  0.05044  0.21138  0.46408  1.0000
  H   H110      1.0  0.07962  0.00908  0.14919  1.0000
  H   H111      1.0  0.05789  0.18678  0.29866  1.0000
  H   H112      1.0  0.38241  0.04679  0.02572  1.0000
  H   H113      1.0  0.09309  0.05322  0.17410  1.0000
  H   H114      1.0  0.07011  0.05839  0.16477  1.0000
  H   H115      1.0  0.11352  0.04585  0.14151  1.0000
  S   S45       1.0  0.05921  0.22634  0.02268  1.0000
  C   C84       1.0  0.02613  0.05604  0.18157  1.0000
  H   H116      1.0  0.07783  0.19361  0.24377  1.0000
  H   H117      1.0  0.06464  0.01502  0.17269  1.0000
  C   C85       1.0  0.38068  0.18581  0.40695  1.0000
  C   C86       1.0  0.44100  0.99040  0.36403  1.0000
  C   C87       1.0  0.06398  0.20480  0.37728  1.0000
  H   H118      1.0  0.14104  0.19671  0.39100  1.0000
  H   H119      1.0  0.37519  0.00852  0.30094  1.0000
  N   N10       1.0  0.10305  0.17603  0.05529  1.0000
  C   C88       1.0  0.09873  0.19349  0.06515  1.0000
  C   C89       1.0  0.09292  0.18142  0.03807  1.0000
  C   C90       1.0  0.09513  0.15908  0.06968  1.0000
  C   C91       1.0  0.12534  0.17029  0.04823  1.0000
  H   H120      1.0  0.10569  0.18992  0.07852  1.0000
  H   H121      1.0  0.08202  0.19844  0.07030  1.0000
  H   H122      1.0  0.10470  0.20650  0.05478  1.0000
  H   H123      1.0  0.09602  0.16872  0.03008  1.0000
  H   H124      1.0  0.07603  0.18560  0.04295  1.0000
  H   H125      1.0  0.09821  0.19446  0.02708  1.0000
  H   H126      1.0  0.10184  0.15503  0.08325  1.0000
  H   H127      1.0  0.09845  0.14548  0.06292  1.0000
  H   H128      1.0  0.07825  0.16295  0.07479  1.0000
  H   H129      1.0  0.12921  0.15717  0.04065  1.0000
  H   H130      1.0  0.13346  0.16624  0.06084  1.0000
  H   H131      1.0  0.13161  0.18290  0.03731  1.0000
  H   H132      1.0  0.12896  0.12505  0.20185  1.0000
  C   C92       1.0  0.49930  0.01712  0.18790  1.0000
  H   H133      1.0  0.34384  0.03269  0.07071  1.0000
  H   H134      1.0  0.49640  0.21585  0.34759  1.0000
  H   H135      1.0  0.37323  0.06252  0.05636  1.0000
  H   H136      1.0  0.35879  0.99174  0.43821  1.0000
  H   H137      1.0  0.42013  0.18749  0.39181  1.0000
  H   H138      1.0  0.10775  0.02754  0.13075  1.0000
  H   H139      1.0  0.31979  0.03149  0.99305  1.0000
  H   H140      1.0  0.16146  0.09143  0.23580  1.0000
  H   H141      1.0  0.39667  0.02191  0.45554  1.0000
  N   N11       1.0  0.05262  0.19686  0.26874  1.0000
  H   H142      1.0  0.30272  0.01901  0.37228  1.0000
  H   H143      1.0  0.15871  0.16999  0.37248  1.0000
  C   C93       1.0  0.27595  0.99135  0.21647  1.0000
  C   C94       1.0  0.28026  0.98917  0.08522  1.0000
  Fe  Fe24      1.0  0.48211  0.01843  0.12430  1.0000
  S   S46       1.0  0.29317  0.00067  0.24330  1.0000
  C   C95       1.0  0.30131  0.00380  0.37272  1.0000
  H   H144      1.0  0.46851  0.09332  0.27052  1.0000
  S   S47       1.0  0.44117  0.20396  0.43434  1.0000
  H   H145      1.0  0.02065  0.06447  0.13337  1.0000
  C   C96       1.0  0.43621  0.14012  0.40414  1.0000
  H   H146      1.0  0.18175  0.15393  0.37819  1.0000
  H   H147      1.0  0.01754  0.22347  0.40367  1.0000
  N   N12       1.0  0.33794  0.06341  0.32272  1.0000
  C   C97       1.0  0.35563  0.07360  0.31721  1.0000
  C   C98       1.0  0.33595  0.05644  0.30517  1.0000
  C   C99       1.0  0.31913  0.07760  0.32948  1.0000
  C   C100      1.0  0.34096  0.04603  0.33911  1.0000
  H   H148      1.0  0.35754  0.07911  0.33009  1.0000
  H   H149      1.0  0.35384  0.08681  0.30490  1.0000
  H   H150      1.0  0.37013  0.06336  0.31211  1.0000
  H   H151      1.0  0.32265  0.04881  0.30876  1.0000
  H   H152      1.0  0.33375  0.06914  0.29247  1.0000
  H   H153      1.0  0.34977  0.04551  0.29981  1.0000
  H   H154      1.0  0.30550  0.07034  0.33376  1.0000
  H   H155      1.0  0.31632  0.09098  0.31757  1.0000
  H   H156      1.0  0.32012  0.08304  0.34280  1.0000
  H   H157      1.0  0.32758  0.03844  0.34400  1.0000
  H   H158      1.0  0.34290  0.05075  0.35243  1.0000
  H   H159      1.0  0.35462  0.03468  0.33443  1.0000
  C   C101      1.0  0.37293  0.99805  0.43391  1.0000
  Fe  Fe25      1.0  0.04634  0.22754  0.05509  1.0000
  H   H160      1.0  0.48204  0.06889  0.26602  1.0000
  H   H161      1.0  0.49007  0.01522  0.23800  1.0000
  H   H162      1.0  0.12521  0.09039  0.23721  1.0000
  C   C102      1.0  0.49631  0.23475  0.99980  1.0000
  C   C103      1.0  0.06160  0.19171  0.24876  1.0000
  H   H163      1.0  0.40295  0.21876  0.41857  1.0000
  H   H164      1.0  0.02391  0.19835  0.28975  1.0000
  Fe  Fe26      1.0  0.35506  0.99231  0.27348  1.0000
  H   H165      1.0  0.27918  0.00487  0.08530  1.0000
  H   H166      1.0  0.13415  0.07040  0.22320  1.0000
  C   C104      1.0  0.45233  0.12863  0.37281  1.0000
  S   S48       1.0  0.45527  0.00519  0.12428  1.0000
  C   C105      1.0  0.02660  0.06567  0.16170  1.0000
  H   H167      1.0  0.34828  0.04834  0.04628  1.0000
  H   H168      1.0  0.38147  0.99896  0.06158  1.0000
  H   H169      1.0  0.42018  0.99044  0.02386  1.0000
  H   H170      1.0  0.37246  0.00915  0.41972  1.0000
  H   H171      1.0  0.37282  0.00968  0.08376  1.0000
  H   H172      1.0  0.15888  0.07576  0.18997  1.0000
  S   S49       1.0  0.48024  0.22496  0.40839  1.0000
  H   H173      1.0  0.06263  0.21496  0.36271  1.0000
  H   H174      1.0  0.04790  0.22202  0.28319  1.0000
  H   H175      1.0  0.36657  0.18704  0.41883  1.0000
  H   H176      1.0  0.43831  0.01347  0.03179  1.0000
  H   H177      1.0  0.18195  0.17953  0.36576  1.0000
  H   H178      1.0  0.17754  0.21323  0.34791  1.0000
  C   C106      1.0  0.05394  0.21783  0.26818  1.0000
  H   H179      1.0  0.07254  0.04032  0.18724  1.0000
  C   C107      1.0  0.21156  0.98738  0.26497  1.0000
  H   H180      1.0  0.30643  0.98810  0.06062  1.0000
  C   C108      1.0  0.35767  0.02412  0.45329  1.0000
  H   H181      1.0  0.01630  0.19403  0.39032  1.0000
  H   H182      1.0  0.02958  0.17891  0.27528  1.0000
  H   H183      1.0  0.44467  0.07929  0.31224  1.0000
  C   C109      1.0  0.37523  0.99206  0.46847  1.0000
  H   H184      1.0  0.37170  0.22104  0.38192  1.0000
  H   H185      1.0  0.34831  0.98744  0.35571  1.0000
  H   H186      1.0  0.04152  0.23050  0.40121  1.0000
  H   H187      1.0  0.47251  0.20998  0.99901  1.0000
  H   H188      1.0  0.46338  0.04532  0.30615  1.0000
  C   C110      1.0  0.03060  0.23206  0.44598  1.0000
  H   H189      1.0  0.22654  0.99099  0.26475  1.0000
  C   C111      1.0  0.48313  0.21434  0.98466  1.0000
  S   S50       1.0  0.24730  0.99078  0.11645  1.0000
  C   C112      1.0  0.49815  0.05117  0.14484  1.0000
  H   H190      1.0  0.01058  0.01352  0.18005  1.0000
  C   C113      1.0  0.45977  0.08333  0.31057  1.0000
  C   C114      1.0  0.16820  0.22728  0.42900  1.0000
  C   C115      1.0  0.29786  0.99063  0.39115  1.0000
  H   H191      1.0  0.49588  0.00244  0.18768  1.0000
  H   H192      1.0  0.45797  0.09988  0.30536  1.0000
  H   H193      1.0  0.20630  0.00696  0.22777  1.0000
  H   H194      1.0  0.19998  0.00154  0.26522  1.0000
  H   H195      1.0  0.03075  0.23433  0.37963  1.0000
  C   C116      1.0  0.14936  0.22935  0.46269  1.0000
  H   H196      1.0  0.15566  0.22848  0.98856  1.0000
  C   C117      1.0  0.34533  0.04667  0.98423  1.0000
  C   C118      1.0  0.49488  0.06467  0.15778  1.0000
  H   H197      1.0  0.41663  0.21425  0.38358  1.0000
  C   C119      1.0  0.02160  0.12838  0.60523  1.0000
  C   C120      1.0  0.35839  0.01284  0.94877  1.0000
  H   H198      1.0  0.33294  0.00047  0.93315  1.0000
  Fe  Fe27      1.0  0.36792  0.01459  0.73916  1.0000
  S   S51       1.0  0.33843  0.03649  0.73762  1.0000
  S   S52       1.0  0.39760  0.02512  0.72386  1.0000
  Fe  Fe28      1.0  0.33013  0.02497  0.77072  1.0000
  S   S53       1.0  0.31618  0.04775  0.79112  1.0000
  Fe  Fe29      1.0  0.32593  0.01098  0.73359  1.0000
  S   S54       1.0  0.31127  0.01358  0.70703  1.0000
  S   S55       1.0  0.36040  0.00451  0.77239  1.0000
  H   H199      1.0  0.23983  0.06976  0.66674  1.0000
  H   H200      1.0  0.34261  0.01378  0.95797  1.0000
  C   C121      1.0  0.02184  0.05702  0.65289  1.0000
  Fe  Fe30      1.0  0.35623  0.09214  0.86394  1.0000
  S   S56       1.0  0.32354  0.10169  0.87800  1.0000
  S   S57       1.0  0.36668  0.06638  0.84672  1.0000
  Fe  Fe31      1.0  0.37032  0.11969  0.88413  1.0000
  S   S58       1.0  0.33842  0.13086  0.90032  1.0000
  S   S59       1.0  0.39981  0.12881  0.88473  1.0000
  Fe  Fe32      1.0  0.33462  0.09874  0.90602  1.0000
  S   S60       1.0  0.31481  0.08308  0.93299  1.0000
  Fe  Fe33      1.0  0.32970  0.13298  0.87115  1.0000
  S   S61       1.0  0.30636  0.15805  0.85821  1.0000
  S   S62       1.0  0.36719  0.08708  0.89259  1.0000
  S   S63       1.0  0.36183  0.12385  0.85429  1.0000
  H   H201      1.0  0.20409  0.07022  0.68600  1.0000
  H   H202      1.0  0.45077  0.13889  0.91062  1.0000
  C   C122      1.0  0.45385  0.01691  0.65118  1.0000
  Fe  Fe34      1.0  0.43599  0.21565  0.91490  1.0000
  S   S64       1.0  0.40796  0.20168  0.92029  1.0000
  Fe  Fe35      1.0  0.09273  0.21233  0.77038  1.0000
  S   S65       1.0  0.23961  0.21081  0.91445  1.0000
  S   S66       1.0  0.04674  0.07354  0.66621  1.0000
  H   H203      1.0  0.38897  0.99817  0.92076  1.0000
  H   H204      1.0  0.23233  0.03316  0.52875  1.0000
  H   H205      1.0  0.49286  0.00565  0.63235  1.0000
  Fe  Fe36      1.0  0.06669  0.13200  0.68781  1.0000
  S   S67       1.0  0.09679  0.13512  0.66723  1.0000
  S   S68       1.0  0.05281  0.15377  0.70935  1.0000
  Fe  Fe37      1.0  0.06097  0.09915  0.66778  1.0000
  S   S69       1.0  0.09071  0.10063  0.64561  1.0000
  H   H206      1.0  0.02894  0.08804  0.61413  1.0000
  Fe  Fe38      1.0  0.10303  0.10144  0.67194  1.0000
  S   S70       1.0  0.13117  0.08141  0.68137  1.0000
  Fe  Fe39      1.0  0.08119  0.13405  0.64318  1.0000
  S   S71       1.0  0.08046  0.15928  0.61640  1.0000
  S   S72       1.0  0.07390  0.09822  0.69441  1.0000
  S   S73       1.0  0.05048  0.13262  0.66342  1.0000
  H   H207      1.0  0.24272  0.12864  0.90185  1.0000
  C   C123      1.0  0.13880  0.22521  0.83215  1.0000
  C   C124      1.0  0.02440  0.07445  0.65783  1.0000
  C   C125      1.0  0.02109  0.19806  0.86121  1.0000
  H   H208      1.0  0.11185  0.01827  0.66225  1.0000
  C   C126      1.0  0.46028  0.12656  0.94684  1.0000
  H   H209      1.0  0.03356  0.04361  0.65408  1.0000
  C   C127      1.0  0.24556  0.11860  0.91615  1.0000
  H   H210      1.0  0.10125  0.20254  0.63848  1.0000
  S   S74       1.0  0.19296  0.03001  0.62119  1.0000
  H   H211      1.0  0.45880  0.12779  0.96263  1.0000
  H   H212      1.0  0.05073  0.22321  0.66791  1.0000
  Fe  Fe40      1.0  0.05856  0.23427  0.79896  1.0000
  H   H213      1.0  0.44200  0.02365  0.66303  1.0000
  H   H214      1.0  0.27746  0.99650  0.73517  1.0000
  H   H215      1.0  0.25029  0.15629  0.91345  1.0000
  H   H216      1.0  0.36739  0.99803  0.95453  1.0000
  S   S75       1.0  0.11552  0.22935  0.77329  1.0000
  H   H217      1.0  0.46893  0.01997  0.68141  1.0000
  N   N13       1.0  0.26071  0.12483  0.92380  1.0000
  H   H218      1.0  0.09639  0.17755  0.64286  1.0000
  H   H219      1.0  0.34667  0.03763  0.90405  1.0000
  H   H220      1.0  0.10851  0.11464  0.56750  1.0000
  C   C128      1.0  0.03687  0.09489  0.59910  1.0000
  H   H221      1.0  0.48351  0.16641  0.92441  1.0000
  C   C129      1.0  0.17478  0.04351  0.63803  1.0000
  C   C130      1.0  0.17300  0.03701  0.65864  1.0000
  C   C131      1.0  0.15916  0.04853  0.67185  1.0000
  C   C132      1.0  0.14683  0.06645  0.66452  1.0000
  C   C133      1.0  0.14804  0.07261  0.64394  1.0000
  C   C134      1.0  0.16213  0.06121  0.63070  1.0000
  H   H222      1.0  0.18262  0.02344  0.66445  1.0000
  H   H223      1.0  0.15809  0.04370  0.68780  1.0000
  H   H224      1.0  0.13865  0.08652  0.63820  1.0000
  H   H225      1.0  0.16342  0.06629  0.61475  1.0000
  C   C135      1.0  0.08753  0.15352  0.59226  1.0000
  C   C136      1.0  0.08341  0.16867  0.57591  1.0000
  C   C137      1.0  0.08815  0.16434  0.55658  1.0000
  C   C138      1.0  0.10146  0.12973  0.56985  1.0000
  C   C139      1.0  0.09673  0.13406  0.58917  1.0000
  H   H226      1.0  0.07634  0.18377  0.57820  1.0000
  H   H227      1.0  0.10028  0.12237  0.60162  1.0000
  H   H228      1.0  0.05029  0.18909  0.64732  1.0000
  H   H229      1.0  0.47365  0.11449  0.94315  1.0000
  H   H230      1.0  0.08468  0.17604  0.54407  1.0000
  H   H231      1.0  0.34875  0.00074  0.90854  1.0000
  H   H232      1.0  0.03057  0.18426  0.86705  1.0000
  C   C140      1.0  0.28859  0.17351  0.87365  1.0000
  C   C141      1.0  0.29064  0.17315  0.89299  1.0000
  C   C142      1.0  0.27573  0.18503  0.90524  1.0000
  C   C143      1.0  0.25866  0.19724  0.89826  1.0000
  C   C144      1.0  0.25683  0.19799  0.87878  1.0000
  C   C145      1.0  0.27180  0.18617  0.86650  1.0000
  H   H233      1.0  0.30370  0.16376  0.89850  1.0000
  H   H234      1.0  0.27733  0.18462  0.92023  1.0000
  H   H235      1.0  0.24369  0.20735  0.87328  1.0000
  H   H236      1.0  0.27019  0.18656  0.85151  1.0000
  C   C146      1.0  0.32677  0.06928  0.95261  1.0000
  H   H237      1.0  0.02695  0.09614  0.58844  1.0000
  H   H238      1.0  0.23838  0.14684  0.93861  1.0000
  H   H239      1.0  0.45997  0.02943  0.64004  1.0000
  H   H240      1.0  0.08827  0.17655  0.67951  1.0000
  C   C147      1.0  0.34534  0.07275  0.95434  1.0000
  C   C148      1.0  0.29178  0.00256  0.70403  1.0000
  C   C149      1.0  0.06320  0.21957  0.65501  1.0000
  C   C150      1.0  0.48112  0.15204  0.93478  1.0000
  H   H241      1.0  0.35249  0.08424  0.94358  1.0000
  C   C151      1.0  0.40113  0.15020  0.89344  1.0000
  C   C152      1.0  0.41944  0.15762  0.88761  1.0000
  C   C153      1.0  0.42153  0.17385  0.89514  1.0000
  C   C154      1.0  0.40546  0.18251  0.90894  1.0000
  C   C155      1.0  0.38709  0.17524  0.91463  1.0000
  C   C156      1.0  0.38485  0.15926  0.90682  1.0000
  H   H242      1.0  0.43201  0.15082  0.87710  1.0000
  H   H243      1.0  0.43555  0.17963  0.89028  1.0000
  H   H244      1.0  0.37455  0.18188  0.92528  1.0000
  H   H245      1.0  0.37072  0.15366  0.91149  1.0000
  C   C157      1.0  0.09056  0.17817  0.74054  1.0000
  C   C158      1.0  0.06950  0.18523  0.74255  1.0000
  C   C159      1.0  0.05810  0.17734  0.73323  1.0000
  C   C160      1.0  0.06760  0.16238  0.72178  1.0000
  C   C161      1.0  0.08867  0.15532  0.71976  1.0000
  C   C162      1.0  0.10006  0.16319  0.72910  1.0000
  H   H246      1.0  0.06196  0.19672  0.75134  1.0000
  H   H247      1.0  0.04182  0.18292  0.73489  1.0000
  H   H248      1.0  0.09620  0.14378  0.71105  1.0000
  H   H249      1.0  0.48773  0.02447  0.65880  1.0000
  C   C163      1.0  0.41981  0.00689  0.72633  1.0000
  C   C164      1.0  0.25304  0.14557  0.92743  1.0000
  H   H250      1.0  0.25098  0.10303  0.91315  1.0000
  C   C165      1.0  0.34683  0.03524  0.92022  1.0000
  C   C166      1.0  0.35443  0.06167  0.97034  1.0000
  C   C167      1.0  0.44446  0.16134  0.93854  1.0000
  C   C168      1.0  0.02846  0.20956  0.84269  1.0000
  H   H251      1.0  0.23706  0.00351  0.48984  1.0000
  H   H252      1.0  0.01091  0.10517  0.66018  1.0000
  C   C169      1.0  0.32949  0.05212  0.80773  1.0000
  C   C170      1.0  0.34660  0.03843  0.81300  1.0000
  C   C171      1.0  0.35752  0.04280  0.82536  1.0000
  C   C172      1.0  0.35138  0.06083  0.83271  1.0000
  C   C173      1.0  0.33397  0.07432  0.82785  1.0000
  C   C174      1.0  0.32308  0.06995  0.81543  1.0000
  H   H253      1.0  0.35142  0.02446  0.80757  1.0000
  H   H254      1.0  0.37090  0.03224  0.82913  1.0000
  H   H255      1.0  0.32910  0.08828  0.83336  1.0000
  H   H256      1.0  0.30980  0.08060  0.81153  1.0000
  H   H257      1.0  0.27501  0.99204  0.66642  1.0000
  C   C175      1.0  0.43902  0.01248  0.71988  1.0000
  H   H258      1.0  0.26418  0.15075  0.93312  1.0000
  H   H259      1.0  0.44638  0.12157  0.94594  1.0000
  H   H260      1.0  0.49220  0.00198  0.67683  1.0000
  H   H261      1.0  0.27476  0.23390  0.86713  1.0000
  H   H262      1.0  0.44003  0.02806  0.71388  1.0000
  S   S76       1.0  0.24220  0.99286  0.63526  1.0000
  H   H263      1.0  0.04353  0.20456  0.83429  1.0000
  C   C176      1.0  0.45695  0.99793  0.72121  1.0000
  H   H264      1.0  0.24425  0.05278  0.51196  1.0000
  H   H265      1.0  0.47594  0.21383  0.97234  1.0000
  C   C177      1.0  0.28013  0.12399  0.90887  1.0000
  C   C178      1.0  0.37977  0.01318  0.91582  1.0000
  H   H266      1.0  0.47175  0.00225  0.71643  1.0000
  S   S77       1.0  0.10905  0.19334  0.49825  1.0000
  H   H267      1.0  0.06349  0.16962  0.66362  1.0000
  C   C179      1.0  0.12583  0.01615  0.65030  1.0000
  H   H268      1.0  0.06924  0.19578  0.68991  1.0000
  H   H269      1.0  0.49513  0.14063  0.93107  1.0000
  H   H270      1.0  0.28629  0.10847  0.90599  1.0000
  H   H271      1.0  0.23368  0.06120  0.64720  1.0000
  H   H272      1.0  0.21877  0.03065  0.65502  1.0000
  N   N14       1.0  0.35848  0.01519  0.92733  1.0000
  H   H273      1.0  0.27114  0.00659  0.49208  1.0000
  C   C180      1.0  0.48567  0.99379  0.64354  1.0000
  Fe  Fe41      1.0  0.20903  0.99947  0.63398  1.0000
  C   C181      1.0  0.34898  0.99945  0.92454  1.0000
  H   H274      1.0  0.23068  0.11902  0.92701  1.0000
  H   H275      1.0  0.27825  0.13405  0.89432  1.0000
  N   N15       1.0  0.38678  0.06286  0.76398  1.0000
  C   C182      1.0  0.39492  0.04206  0.77310  1.0000
  C   C183      1.0  0.40217  0.07000  0.74656  1.0000
  C   C184      1.0  0.38211  0.07602  0.77883  1.0000
  C   C185      1.0  0.36791  0.06334  0.75739  1.0000
  H   H276      1.0  0.38373  0.03613  0.78625  1.0000
  H   H277      1.0  0.40918  0.04112  0.77822  1.0000
  H   H278      1.0  0.39849  0.03171  0.76232  1.0000
  H   H279      1.0  0.39647  0.08556  0.73913  1.0000
  H   H280      1.0  0.41658  0.06993  0.75100  1.0000
  H   H281      1.0  0.40607  0.06023  0.73517  1.0000
  H   H282      1.0  0.37649  0.09194  0.77232  1.0000
  H   H283      1.0  0.39575  0.07547  0.78482  1.0000
  H   H284      1.0  0.36999  0.07148  0.79179  1.0000
  H   H285      1.0  0.37095  0.05404  0.74577  1.0000
  H   H286      1.0  0.36096  0.07886  0.75098  1.0000
  H   H287      1.0  0.35619  0.05740  0.76999  1.0000
  C   C186      1.0  0.46450  0.14356  0.91238  1.0000
  H   H288      1.0  0.29203  0.12851  0.91409  1.0000
  H   H289      1.0  0.14720  0.20403  0.85786  1.0000
  H   H290      1.0  0.15290  0.00019  0.67380  1.0000
  H   H291      1.0  0.35354  0.04746  0.92220  1.0000
  C   C187      1.0  0.29071  0.00145  0.68464  1.0000
  H   H292      1.0  0.26984  0.09529  0.94044  1.0000
  H   H293      1.0  0.47806  0.13205  0.90772  1.0000
  H   H294      1.0  0.30139  0.23425  0.85723  1.0000
  N   N16       1.0  0.04105  0.11467  0.59921  1.0000
  S   S78       1.0  0.08062  0.20505  0.80352  1.0000
  C   C188      1.0  0.08906  0.19375  0.64090  1.0000
  C   C189      1.0  0.00431  0.05676  0.64632  1.0000
  H   H295      1.0  0.04196  0.12549  0.56773  1.0000
  H   H296      1.0  0.07462  0.22915  0.65305  1.0000
  H   H297      1.0  0.06620  0.11328  0.57386  1.0000
  H   H298      1.0  0.05506  0.13810  0.57857  1.0000
  H   H299      1.0  0.04701  0.10543  0.62893  1.0000
  H   H300      1.0  0.11632  0.15759  0.72747  1.0000
  S   S79       1.0  0.10562  0.18762  0.75196  1.0000
  S   S80       1.0  0.12156  0.21141  0.82946  1.0000
  Fe  Fe42      1.0  0.09980  0.16349  0.50277  1.0000
  C   C190      1.0  0.27722  0.99525  0.72022  1.0000
  S   S81       1.0  0.10186  0.13850  0.52981  1.0000
  C   C191      1.0  0.09706  0.14482  0.55353  1.0000
  S   S82       1.0  0.44549  0.21851  0.94231  1.0000
  S   S83       1.0  0.07102  0.17627  0.49098  1.0000
  H   H301      1.0  0.30185  0.00712  0.67199  1.0000
  H   H302      1.0  0.29351  0.21834  0.88063  1.0000
  N   N17       1.0  0.46261  0.14587  0.93314  1.0000
  H   H303      1.0  0.46612  0.15792  0.90164  1.0000
  H   H304      1.0  0.44559  0.17608  0.92844  1.0000
  H   H305      1.0  0.00276  0.04327  0.64234  1.0000
  H   H306      1.0  0.02425  0.14345  0.60542  1.0000
  H   H307      1.0  0.25006  0.11156  0.95447  1.0000
  H   H308      1.0  0.01120  0.13050  0.59479  1.0000
  H   H309      1.0  0.33067  0.03737  0.92857  1.0000
  S   S84       1.0  0.46819  0.20500  0.89909  1.0000
  H   H310      1.0  0.12099  0.02070  0.63569  1.0000
  H   H311      1.0  0.05125  0.08414  0.59478  1.0000
  C   C192      1.0  0.16350  0.22858  0.85016  1.0000
  S   S85       1.0  0.06092  0.23512  0.48715  1.0000
  H   H312      1.0  0.09326  0.20148  0.67516  1.0000
  H   H313      1.0  0.21425  0.01682  0.68030  1.0000
  H   H314      1.0  0.05736  0.12690  0.61436  1.0000
  N   N18       1.0  0.22504  0.04422  0.67671  1.0000
  S   S86       1.0  0.31473  0.00139  0.76669  1.0000
  C   C193      1.0  0.23258  0.03774  0.69555  1.0000
  C   C194      1.0  0.20428  0.05658  0.68034  1.0000
  C   C195      1.0  0.23892  0.05615  0.66163  1.0000
  H   H315      1.0  0.21925  0.05044  0.51060  1.0000
  H   H316      1.0  0.23257  0.05079  0.70206  1.0000
  H   H317      1.0  0.06922  0.10226  0.60932  1.0000
  H   H318      1.0  0.04428  0.18862  0.67394  1.0000
  H   H319      1.0  0.22306  0.02782  0.70694  1.0000
  H   H320      1.0  0.24853  0.02907  0.69314  1.0000
  H   H321      1.0  0.19337  0.04798  0.69155  1.0000
  C   C196      1.0  0.22440  0.02637  0.66925  1.0000
  C   C197      1.0  0.05423  0.11221  0.61357  1.0000
  C   C198      1.0  0.14958  0.21796  0.84771  1.0000
  C   C199      1.0  0.31758  0.05440  0.96661  1.0000
  H   H322      1.0  0.00861  0.99003  0.53823  1.0000
  C   C200      1.0  0.26423  0.11112  0.94265  1.0000
  H   H323      1.0  0.08306  0.19732  0.62692  1.0000
  N   N19       1.0  0.07262  0.19802  0.65830  1.0000
  C   C201      1.0  0.08126  0.19279  0.67647  1.0000
  C   C202      1.0  0.05692  0.18592  0.66087  1.0000
  C   C203      1.0  0.27548  0.99293  0.68143  1.0000
  H   H324      1.0  0.44900  0.99205  0.68621  1.0000
  C   C204      1.0  0.14331  0.98989  0.67270  1.0000
  H   H325      1.0  0.25472  0.04720  0.65852  1.0000
  H   H326      1.0  0.37728  0.99828  0.48082  1.0000
  C   C205      1.0  0.48015  0.01266  0.66965  1.0000
  Fe  Fe43      1.0  0.10198  0.22378  0.80612  1.0000
  C   C206      1.0  0.05148  0.12324  0.57899  1.0000
  C   C207      1.0  0.01618  0.22727  0.83499  1.0000
  C   C208      1.0  0.23046  0.01388  0.50067  1.0000
  N   N20       1.0  0.15326  0.17321  0.78724  1.0000
  C   C209      1.0  0.16599  0.15323  0.79238  1.0000
  C   C210      1.0  0.15439  0.17834  0.76542  1.0000
  C   C211      1.0  0.16071  0.18844  0.79352  1.0000
  C   C212      1.0  0.13185  0.17282  0.79769  1.0000
  H   H327      1.0  0.16535  0.14891  0.80877  1.0000
  H   H328      1.0  0.18228  0.15297  0.78478  1.0000
  H   H329      1.0  0.16072  0.14142  0.78785  1.0000
  H   H330      1.0  0.14493  0.19334  0.76103  1.0000
  H   H331      1.0  0.17032  0.17866  0.75694  1.0000
  H   H332      1.0  0.14844  0.16739  0.76026  1.0000
  H   H333      1.0  0.15133  0.20369  0.79000  1.0000
  H   H334      1.0  0.17682  0.18923  0.78597  1.0000
  H   H335      1.0  0.15980  0.18517  0.80996  1.0000
  H   H336      1.0  0.13021  0.16931  0.81422  1.0000
  H   H337      1.0  0.12552  0.16170  0.79321  1.0000
  H   H338      1.0  0.12198  0.18764  0.79403  1.0000
  C   C213      1.0  0.26397  0.01716  0.50253  1.0000
  H   H339      1.0  0.16603  0.00312  0.63735  1.0000
  H   H340      1.0  0.27460  0.23341  0.91032  1.0000
  H   H341      1.0  0.48010  0.15442  0.95011  1.0000
  H   H342      1.0  0.27472  0.02744  0.50056  1.0000
  C   C214      1.0  0.15569  0.99324  0.63706  1.0000
  C   C215      1.0  0.00161  0.20450  0.87223  1.0000
  N   N21       1.0  0.24383  0.02828  0.49860  1.0000
  H   H343      1.0  0.27613  0.11504  0.94843  1.0000
  H   H344      1.0  0.23982  0.01673  0.66636  1.0000
  Fe  Fe44      1.0  0.47753  0.21054  0.92536  1.0000
  H   H345      1.0  0.05651  0.22396  0.64141  1.0000
  H   H346      1.0  0.19814  0.06175  0.66639  1.0000
  H   H347      1.0  0.36862  0.06464  0.97186  1.0000
  H   H348      1.0  0.44252  0.16369  0.95404  1.0000
  H   H349      1.0  0.17195  0.22275  0.86199  1.0000
  H   H350      1.0  0.22853  0.00427  0.51585  1.0000
  Fe  Fe45      1.0  0.08179  0.20552  0.48391  1.0000
  H   H351      1.0  0.01338  0.12241  0.62045  1.0000
  C   C216      1.0  0.00919  0.09173  0.65619  1.0000
  N   N22       1.0  0.47030  0.00233  0.65972  1.0000
  H   H352      1.0  0.36504  0.02470  0.95157  1.0000
  H   H353      1.0  0.43017  0.15728  0.93740  1.0000
  S   S87       1.0  0.35639  0.99004  0.73258  1.0000
  C   C217      1.0  0.23449  0.04178  0.51311  1.0000
  H   H354      1.0  0.30321  0.05167  0.96530  1.0000
  H   H355      1.0  0.13533  0.02692  0.65060  1.0000
  H   H356      1.0  0.38040  0.01504  0.89954  1.0000
  H   H357      1.0  0.21504  0.02167  0.49801  1.0000
  H   H358      1.0  0.26267  0.00802  0.51792  1.0000
  H   H359      1.0  0.38738  0.02478  0.91774  1.0000
  H   H360      1.0  0.31170  0.23350  0.89758  1.0000
  H   H361      1.0  0.44607  0.00965  0.64356  1.0000
  C   C218      1.0  0.28948  0.23336  0.87125  1.0000
  H   H362      1.0  0.12975  0.99087  0.68523  1.0000
  S   S88       1.0  0.01399  0.99168  0.60080  1.0000
  N   N23       1.0  0.13724  0.99519  0.65314  1.0000
  H   H363      1.0  0.15180  0.99748  0.62203  1.0000
  H   H364      1.0  0.12166  0.23469  0.90804  1.0000
  C   C219      1.0  0.24647  0.04023  0.47807  1.0000
  S   S89       1.0  0.16343  0.46805  0.22968  1.0000
  H   H365      1.0  0.02088  0.40184  0.30257  1.0000
  Fe  Fe46      1.0  0.03075  0.32426  0.39952  1.0000
  S   S90       1.0  0.04057  0.29476  0.38953  1.0000
  S   S91       1.0  0.05380  0.33389  0.41092  1.0000
  Fe  Fe47      1.0  0.02654  0.31059  0.36336  1.0000
  S   S92       1.0  0.04482  0.30648  0.33293  1.0000
  C   C220      1.0  0.13085  0.29830  0.00313  1.0000
  H   H366      1.0  0.01907  0.24395  0.34551  1.0000
  S   S93       1.0  0.01925  0.34068  0.37203  1.0000
  H   H367      1.0  0.06348  0.28439  0.44313  1.0000
  C   C221      1.0  0.01750  0.36486  0.32227  1.0000
  C   C222      1.0  0.40660  0.26377  0.40890  1.0000
  H   H368      1.0  0.09420  0.28130  0.38502  1.0000
  C   C223      1.0  0.48569  0.43993  0.07271  1.0000
  Fe  Fe48      1.0  0.39847  0.45909  0.02015  1.0000
  S   S94       1.0  0.40114  0.45699  0.05209  1.0000
  Fe  Fe49      1.0  0.37336  0.44634  0.99663  1.0000
  S   S95       1.0  0.34746  0.43109  0.99862  1.0000
  S   S96       1.0  0.40321  0.43218  0.00587  1.0000
  H   H369      1.0  0.04028  0.37706  0.21090  1.0000
  H   H370      1.0  0.01383  0.40751  0.21523  1.0000
  H   H371      1.0  0.03179  0.31465  0.13032  1.0000
  S   S97       1.0  0.29066  0.46243  0.34457  1.0000
  Fe  Fe50      1.0  0.04950  0.27138  0.04925  1.0000
  H   H372      1.0  0.23555  0.29275  0.45914  1.0000
  S   S98       1.0  0.29743  0.46774  0.28536  1.0000
  Fe  Fe51      1.0  0.16949  0.45683  0.20102  1.0000
  Fe  Fe52      1.0  0.16017  0.41595  0.22150  1.0000
  S   S99       1.0  0.15343  0.42340  0.25206  1.0000
  S   S100      1.0  0.15464  0.38680  0.21754  1.0000
  Fe  Fe53      1.0  0.13647  0.45275  0.23822  1.0000
  H   H373      1.0  0.15347  0.47008  0.09122  1.0000
  Fe  Fe54      1.0  0.18125  0.43781  0.24092  1.0000
  S   S101      1.0  0.20409  0.43168  0.26103  1.0000
  S   S102      1.0  0.14097  0.44427  0.20855  1.0000
  S   S103      1.0  0.18950  0.42762  0.21136  1.0000
  Fe  Fe55      1.0  0.33948  0.33270  0.43654  1.0000
  S   S104      1.0  0.30959  0.34383  0.45642  1.0000
  S   S105      1.0  0.36241  0.30613  0.44817  1.0000
  Fe  Fe56      1.0  0.33187  0.36600  0.40170  1.0000
  S   S106      1.0  0.30151  0.37954  0.41842  1.0000
  S   S107      1.0  0.34501  0.37836  0.36967  1.0000
  Fe  Fe57      1.0  0.31716  0.37461  0.44402  1.0000
  Fe  Fe58      1.0  0.29638  0.34797  0.42919  1.0000
  S   S108      1.0  0.26453  0.34262  0.43165  1.0000
  S   S109      1.0  0.34804  0.36327  0.42634  1.0000
  S   S110      1.0  0.32567  0.33458  0.41034  1.0000
  S   S111      1.0  0.13749  0.33677  0.34852  1.0000
  S   S112      1.0  0.17608  0.32487  0.38603  1.0000
  H   H374      1.0  0.07548  0.28035  0.31008  1.0000
  S   S113      1.0  0.04405  0.29980  0.06177  1.0000
  S   S114      1.0  0.06257  0.27333  0.01643  1.0000
  Fe  Fe59      1.0  0.08256  0.39965  0.10726  1.0000
  S   S115      1.0  0.08952  0.39842  0.13688  1.0000
  S   S116      1.0  0.06633  0.42971  0.09354  1.0000
  Fe  Fe60      1.0  0.10218  0.35588  0.10630  1.0000
  S   S117      1.0  0.11157  0.35140  0.13576  1.0000
  S   S118      1.0  0.11013  0.32853  0.09159  1.0000
  Fe  Fe61      1.0  0.08011  0.36860  0.14535  1.0000
  S   S119      1.0  0.06136  0.36046  0.17594  1.0000
  Fe  Fe62      1.0  0.12033  0.38169  0.12454  1.0000
  S   S120      1.0  0.14693  0.39288  0.12852  1.0000
  S   S121      1.0  0.06990  0.37119  0.11691  1.0000
  S   S122      1.0  0.11410  0.38472  0.09399  1.0000
  H   H375      1.0  0.10915  0.25246  0.45979  1.0000
  C   C224      1.0  0.06317  0.27245  0.31791  1.0000
  C   C225      1.0  0.06245  0.30730  0.07047  1.0000
  C   C226      1.0  0.08004  0.29392  0.07499  1.0000
  C   C227      1.0  0.09461  0.30066  0.08132  1.0000
  C   C228      1.0  0.09150  0.32069  0.08359  1.0000
  C   C229      1.0  0.07378  0.33399  0.07937  1.0000
  C   C230      1.0  0.05932  0.32730  0.07284  1.0000
  H   H376      1.0  0.08239  0.27837  0.07368  1.0000
  H   H377      1.0  0.10826  0.29027  0.08466  1.0000
  H   H378      1.0  0.07131  0.34950  0.08091  1.0000
  H   H379      1.0  0.04571  0.33773  0.06943  1.0000
  H   H380      1.0  0.31313  0.45649  0.24566  1.0000
  H   H381      1.0  0.20043  0.30095  0.42476  1.0000
  C   C231      1.0  0.04581  0.28208  0.32971  1.0000
  H   H382      1.0  0.03506  0.37365  0.28349  1.0000
  H   H383      1.0  0.03581  0.27248  0.47276  1.0000
  C   C232      1.0  0.03246  0.39456  0.31189  1.0000
  H   H384      1.0  0.39367  0.34736  0.42420  1.0000
  C   C233      1.0  0.08019  0.44806  0.09276  1.0000
  C   C234      1.0  0.09947  0.44227  0.09759  1.0000
  S   S123      1.0  0.02452  0.26476  0.98914  1.0000
  C   C235      1.0  0.02111  0.25206  0.44060  1.0000
  H   H385      1.0  0.01552  0.45941  0.13794  1.0000
  H   H386      1.0  0.10637  0.42657  0.10071  1.0000
  H   H387      1.0  0.06466  0.44541  0.15415  1.0000
  H   H388      1.0  0.49787  0.23725  0.44209  1.0000
  H   H389      1.0  0.10047  0.43291  0.19134  1.0000
  Fe  Fe63      1.0  0.18735  0.27505  0.36581  1.0000
  H   H390      1.0  0.11063  0.29617  0.36655  1.0000
  S   S124      1.0  0.20380  0.27892  0.38793  1.0000
  C   C236      1.0  0.37816  0.28889  0.43333  1.0000
  C   C237      1.0  0.37586  0.28957  0.41400  1.0000
  C   C238      1.0  0.39014  0.27717  0.40177  1.0000
  H   H391      1.0  0.11192  0.38979  0.21661  1.0000
  C   C239      1.0  0.40843  0.26247  0.42849  1.0000
  C   C240      1.0  0.39427  0.27503  0.44064  1.0000
  H   H392      1.0  0.36330  0.29990  0.40834  1.0000
  H   H393      1.0  0.28250  0.45818  0.20867  1.0000
  H   H394      1.0  0.39612  0.27436  0.45561  1.0000
  C   C241      1.0  0.25705  0.33639  0.41209  1.0000
  C   C242      1.0  0.27128  0.33004  0.39569  1.0000
  C   C243      1.0  0.26458  0.32531  0.38037  1.0000
  C   C244      1.0  0.24370  0.32645  0.38159  1.0000
  C   C245      1.0  0.22949  0.33279  0.39799  1.0000
  C   C246      1.0  0.23617  0.33790  0.41309  1.0000
  H   H395      1.0  0.28743  0.32867  0.39484  1.0000
  H   H396      1.0  0.27563  0.32045  0.36768  1.0000
  H   H397      1.0  0.21335  0.33410  0.39885  1.0000
  H   H398      1.0  0.22510  0.34321  0.42556  1.0000
  C   C247      1.0  0.15375  0.38744  0.19264  1.0000
  C   C248      1.0  0.14445  0.37370  0.18814  1.0000
  C   C249      1.0  0.14211  0.37529  0.16851  1.0000
  C   C250      1.0  0.14983  0.39009  0.15321  1.0000
  C   C251      1.0  0.15992  0.40317  0.15762  1.0000
  C   C252      1.0  0.16148  0.40218  0.17731  1.0000
  H   H399      1.0  0.13873  0.36207  0.19991  1.0000
  H   H400      1.0  0.13467  0.36487  0.16515  1.0000
  H   H401      1.0  0.16648  0.41413  0.14577  1.0000
  H   H402      1.0  0.16895  0.41262  0.18059  1.0000
  C   C253      1.0  0.30866  0.44079  0.35067  1.0000
  C   C254      1.0  0.30916  0.43317  0.37082  1.0000
  C   C255      1.0  0.32133  0.41453  0.37653  1.0000
  C   C256      1.0  0.33274  0.40319  0.36217  1.0000
  C   C257      1.0  0.33302  0.41119  0.34188  1.0000
  C   C258      1.0  0.32105  0.43008  0.33609  1.0000
  H   H403      1.0  0.29983  0.44156  0.38211  1.0000
  H   H404      1.0  0.32176  0.40892  0.39211  1.0000
  H   H405      1.0  0.34195  0.40251  0.33069  1.0000
  H   H406      1.0  0.32074  0.43593  0.32048  1.0000
  C   C259      1.0  0.02998  0.27170  0.33976  1.0000
  C   C260      1.0  0.03385  0.38594  0.19834  1.0000
  C   C261      1.0  0.21777  0.45054  0.26018  1.0000
  C   C262      1.0  0.23174  0.44687  0.27275  1.0000
  C   C263      1.0  0.24258  0.46171  0.27258  1.0000
  H   H407      1.0  0.23405  0.43255  0.28278  1.0000
  H   H408      1.0  0.25310  0.45878  0.28247  1.0000
  Fe  Fe64      1.0  0.01113  0.43524  0.25129  1.0000
  C   C264      1.0  0.01670  0.40869  0.16611  1.0000
  H   H409      1.0  0.00988  0.41728  0.15368  1.0000
  H   H410      1.0  0.09359  0.29427  0.33091  1.0000
  C   C265      1.0  0.38675  0.33536  0.39330  1.0000
  H   H411      1.0  0.20786  0.26339  0.42915  1.0000
  S   S125      1.0  0.19029  0.24457  0.35876  1.0000
  H   H412      1.0  0.09548  0.26273  0.98557  1.0000
  H   H413      1.0  0.37650  0.33061  0.40777  1.0000
  H   H414      1.0  0.47767  0.45218  0.06246  1.0000
  H   H415      1.0  0.08632  0.30916  0.15137  1.0000
  C   C266      1.0  0.08663  0.45322  0.25463  1.0000
  H   H416      1.0  0.08840  0.28693  0.03672  1.0000
  C   C267      1.0  0.21494  0.46912  0.24728  1.0000
  H   H417      1.0  0.05621  0.30540  0.11579  1.0000
  C   C268      1.0  0.03248  0.39207  0.16337  1.0000
  H   H418      1.0  0.41231  0.35837  0.36897  1.0000
  C   C269      1.0  0.07157  0.46854  0.08846  1.0000
  C   C270      1.0  0.06632  0.41823  0.20847  1.0000
  C   C271      1.0  0.05135  0.36342  0.32717  1.0000
  C   C272      1.0  0.32124  0.46239  0.20574  1.0000
  C   C273      1.0  0.04095  0.38060  0.17953  1.0000
  H   H419      1.0  0.01643  0.27908  0.34872  1.0000
  H   H420      1.0  0.21650  0.27824  0.47319  1.0000
  C   C274      1.0  0.00615  0.25171  0.98756  1.0000
  C   C275      1.0  0.07636  0.29243  0.44019  1.0000
  C   C276      1.0  0.09174  0.43224  0.25911  1.0000
  C   C277      1.0  0.07678  0.42064  0.26205  1.0000
  H   H421      1.0  0.10714  0.42497  0.26061  1.0000
  H   H422      1.0  0.38861  0.32409  0.38383  1.0000
  C   C278      1.0  0.01009  0.41447  0.18474  1.0000
  S   S126      1.0  0.41430  0.47773  0.99273  1.0000
  H   H423      1.0  0.41871  0.30551  0.39748  1.0000
  H   H424      1.0  0.29819  0.44299  0.23800  1.0000
  C   C279      1.0  0.02328  0.26667  0.45009  1.0000
  H   H425      1.0  0.11237  0.33229  0.01706  1.0000
  H   H426      1.0  0.20435  0.47214  0.23746  1.0000
  C   C280      1.0  0.07680  0.33550  0.39333  1.0000
  C   C281      1.0  0.09492  0.33294  0.39997  1.0000
  C   C282      1.0  0.11357  0.33325  0.38621  1.0000
  C   C283      1.0  0.11407  0.33695  0.36571  1.0000
  C   C284      1.0  0.09589  0.34000  0.35900  1.0000
  C   C285      1.0  0.07731  0.33892  0.37282  1.0000
  H   H427      1.0  0.09457  0.33059  0.41577  1.0000
  H   H428      1.0  0.12755  0.33099  0.39148  1.0000
  H   H429      1.0  0.09627  0.34270  0.34315  1.0000
  H   H430      1.0  0.06338  0.34085  0.36766  1.0000
  N   N24       1.0  0.18281  0.37701  0.29366  1.0000
  C   C286      1.0  0.16819  0.39520  0.29889  1.0000
  C   C287      1.0  0.20282  0.37702  0.29775  1.0000
  C   C288      1.0  0.18520  0.37702  0.27219  1.0000
  C   C289      1.0  0.17508  0.35892  0.30580  1.0000
  H   H431      1.0  0.17369  0.40914  0.29013  1.0000
  H   H432      1.0  0.16593  0.39564  0.31501  1.0000
  H   H433      1.0  0.15297  0.39584  0.29579  1.0000
  H   H434      1.0  0.21429  0.36356  0.29390  1.0000
  H   H435      1.0  0.20901  0.39057  0.28886  1.0000
  H   H436      1.0  0.20163  0.37699  0.31382  1.0000
  H   H437      1.0  0.17039  0.37721  0.26843  1.0000
  H   H438      1.0  0.19607  0.36348  0.26770  1.0000
  H   H439      1.0  0.19116  0.39045  0.26265  1.0000
  H   H440      1.0  0.15994  0.35845  0.30317  1.0000
  H   H441      1.0  0.17305  0.35843  0.32210  1.0000
  H   H442      1.0  0.18571  0.34487  0.30231  1.0000
  N   N25       1.0  0.10295  0.27299  0.35606  1.0000
  H   H443      1.0  0.07152  0.27345  0.35689  1.0000
  C   C290      1.0  0.41674  0.31746  0.40623  1.0000
  H   H444      1.0  0.06960  0.30789  0.44304  1.0000
  H   H445      1.0  0.37869  0.34993  0.38587  1.0000
  H   H446      1.0  0.24139  0.26587  0.46207  1.0000
  Fe  Fe65      1.0  0.00904  0.28996  0.40489  1.0000
  H   H447      1.0  0.06010  0.37280  0.28698  1.0000
  C   C291      1.0  0.10847  0.29290  0.44765  1.0000
  C   C292      1.0  0.21355  0.26272  0.44277  1.0000
  H   H448      1.0  0.11692  0.29283  0.43193  1.0000
  H   H449      1.0  0.05464  0.34671  0.32929  1.0000
  H   H450      1.0  0.24631  0.29531  0.42298  1.0000
  H   H451      1.0  0.44511  0.44552  0.08437  1.0000
  H   H452      1.0  0.03018  0.45258  0.17584  1.0000
  H   H453      1.0  0.11532  0.41093  0.18220  1.0000
  H   H454      1.0  0.06350  0.27906  0.14499  1.0000
  H   H455      1.0  0.19198  0.29771  0.45134  1.0000
  H   H456      1.0  0.15336  0.27737  0.30494  1.0000
  H   H457      1.0  0.08074  0.40444  0.26574  1.0000
  H   H458      1.0  0.07932  0.31379  0.00946  1.0000
  C   C293      1.0  0.16060  0.25886  0.44053  1.0000
  H   H459      1.0  0.06212  0.28597  0.16838  1.0000
  H   H460      1.0  0.38818  0.46309  0.22189  1.0000
  C   C294      1.0  0.05692  0.42997  0.25975  1.0000
  S   S127      1.0  0.23576  0.32033  0.36224  1.0000
  N   N26       1.0  0.03675  0.37248  0.31383  1.0000
  C   C295      1.0  0.09542  0.31043  0.00107  1.0000
  H   H461      1.0  0.11849  0.31277  0.03764  1.0000
  H   H462      1.0  0.48599  0.46101  0.10008  1.0000
  N   N27       1.0  0.26820  0.39290  0.37259  1.0000
  C   C296      1.0  0.27269  0.40565  0.35262  1.0000
  C   C297      1.0  0.24997  0.38439  0.37451  1.0000
  C   C298      1.0  0.26432  0.40514  0.38813  1.0000
  C   C299      1.0  0.28587  0.37641  0.37517  1.0000
  H   H463      1.0  0.27554  0.39696  0.34051  1.0000
  H   H464      1.0  0.28653  0.41203  0.35069  1.0000
  H   H465      1.0  0.25993  0.41859  0.35026  1.0000
  H   H466      1.0  0.24583  0.37530  0.38970  1.0000
  H   H467      1.0  0.23649  0.39640  0.37202  1.0000
  H   H468      1.0  0.25262  0.37432  0.36361  1.0000
  H   H469      1.0  0.25131  0.41795  0.38648  1.0000
  H   H470      1.0  0.27788  0.41154  0.38730  1.0000
  H   H471      1.0  0.26075  0.39599  0.40342  1.0000
  H   H472      1.0  0.28324  0.36687  0.39030  1.0000
  H   H473      1.0  0.30001  0.38228  0.37339  1.0000
  H   H474      1.0  0.28902  0.36652  0.36404  1.0000
  H   H475      1.0  0.03914  0.28842  0.15959  1.0000
  H   H476      1.0  0.10796  0.26083  0.43390  1.0000
  H   H477      1.0  0.06674  0.43148  0.21449  1.0000
  C   C300      1.0  0.41308  0.47295  0.05942  1.0000
  C   C301      1.0  0.18467  0.45381  0.12455  1.0000
  S   S128      1.0  0.03868  0.41539  0.26188  1.0000
  H   H478      1.0  0.19877  0.45833  0.11453  1.0000
  C   C302      1.0  0.08199  0.48311  0.08966  1.0000
  H   H479      1.0  0.14472  0.25808  0.47122  1.0000
  H   H480      1.0  0.08348  0.29372  0.42401  1.0000
  H   H481      1.0  0.17361  0.27697  0.32965  1.0000
  C   C303      1.0  0.23950  0.48039  0.25984  1.0000
  C   C304      1.0  0.16906  0.24765  0.42540  1.0000
  H   H482      1.0  0.18611  0.43742  0.12548  1.0000
  H   H483      1.0  0.43210  0.31802  0.40818  1.0000
  C   C305      1.0  0.10714  0.28305  0.33487  1.0000
  H   H484      1.0  0.12015  0.29104  0.33148  1.0000
  H   H485      1.0  0.09295  0.42387  0.17281  1.0000
  C   C306      1.0  0.12124  0.25822  0.36064  1.0000
  C   C307      1.0  0.38155  0.47879  0.21770  1.0000
  C   C308      1.0  0.08565  0.38881  0.19534  1.0000
  H   H486      1.0  0.40662  0.48449  0.19281  1.0000
  H   H487      1.0  0.13457  0.26560  0.35803  1.0000
  H   H488      1.0  0.31181  0.43722  0.47139  1.0000
  C   C309      1.0  0.16681  0.46104  0.09753  1.0000
  H   H489      1.0  0.11867  0.25033  0.37649  1.0000
  H   H490      1.0  0.46289  0.47019  0.09061  1.0000
  H   H491      1.0  0.01571  0.28208  0.44622  1.0000
  H   H492      1.0  0.06616  0.36861  0.32103  1.0000
  C   C310      1.0  0.05187  0.45093  0.25518  1.0000
  H   H493      1.0  0.11448  0.27844  0.03948  1.0000
  C   C311      1.0  0.41868  0.48620  0.08630  1.0000
  H   H494      1.0  0.14690  0.44387  0.13224  1.0000
  H   H495      1.0  0.08221  0.25459  0.37556  1.0000
  N   N28       1.0  0.16617  0.46542  0.11724  1.0000
  H   H496      1.0  0.08727  0.39142  0.23296  1.0000
  C   C312      1.0  0.15849  0.26338  0.31444  1.0000
  H   H497      1.0  0.03655  0.45831  0.25353  1.0000
  Fe  Fe66      1.0  0.03879  0.25622  0.01641  1.0000
  H   H498      1.0  0.23407  0.28452  0.40962  1.0000
  C   C313      1.0  0.23911  0.28234  0.42395  1.0000
  C   C314      1.0  0.33588  0.40501  0.98231  1.0000
  C   C315      1.0  0.03236  0.45531  0.13677  1.0000
  H   H499      1.0  0.06772  0.47075  0.15265  1.0000
  H   H500      1.0  0.07681  0.37865  0.20717  1.0000
  S   S129      1.0  0.30969  0.40192  0.45871  1.0000
  N   N29       1.0  0.30245  0.47127  0.21873  1.0000
  H   H501      1.0  0.05654  0.40897  0.22040  1.0000
  C   C316      1.0  0.45370  0.43378  0.09451  1.0000
  H   H502      1.0  0.03787  0.38802  0.14880  1.0000
  S   S130      1.0  0.01697  0.45378  0.22062  1.0000
  C   C317      1.0  0.11004  0.45678  0.09833  1.0000
  S   S131      1.0  0.00698  0.25871  0.42171  1.0000
  H   H503      1.0  0.04732  0.34089  0.15022  1.0000
  C   C318      1.0  0.22914  0.27932  0.45977  1.0000
  C   C319      1.0  0.09777  0.28818  0.36891  1.0000
  C   C320      1.0  0.10450  0.28429  0.02836  1.0000
  C   C321      1.0  0.41966  0.34365  0.37684  1.0000
  C   C322      1.0  0.28450  0.47310  0.21010  1.0000
  H   H504      1.0  0.09241  0.32202  0.03547  1.0000
  S   S132      1.0  0.15635  0.28772  0.38197  1.0000
  N   N30       1.0  0.08706  0.40652  0.20259  1.0000
  N   N31       1.0  0.10978  0.30282  0.01481  1.0000
  S   S133      1.0  0.19241  0.30428  0.34541  1.0000
  C   C323      1.0  0.09942  0.41918  0.18652  1.0000
  H   H505      1.0  0.05287  0.32210  0.17132  1.0000
  C   C324      1.0  0.42513  0.48555  0.04549  1.0000
  H   H506      1.0  0.17638  0.25453  0.41083  1.0000
  H   H507      1.0  0.09968  0.41279  0.22491  1.0000
  H   H508      1.0  0.13244  0.28670  0.99404  1.0000
  S   S134      1.0  0.47345  0.44723  0.15461  1.0000
  H   H509      1.0  0.42791  0.48517  0.02976  1.0000
  S   S135      1.0  0.13752  0.24647  0.29673  1.0000
  H   H510      1.0  0.20034  0.26123  0.45560  1.0000
  H   H511      1.0  0.32126  0.40820  0.99233  1.0000
  Fe  Fe67      1.0  0.16246  0.31729  0.36353  1.0000
  H   H512      1.0  0.45520  0.41917  0.09002  1.0000
  N   N32       1.0  0.09132  0.28205  0.45282  1.0000
  H   H513      1.0  0.10098  0.37978  0.19038  1.0000
  H   H514      1.0  0.08787  0.30181  0.12811  1.0000
  N   N33       1.0  0.22187  0.28079  0.44135  1.0000
  S   S136      1.0  0.35038  0.47157  0.24989  1.0000
  H   H515      1.0  0.08420  0.29971  0.36559  1.0000
  C   C325      1.0  0.03146  0.25180  0.33791  1.0000
  Fe  Fe68      1.0  0.17299  0.29369  0.40271  1.0000
  H   H516      1.0  0.30141  0.44737  0.98025  1.0000
  N   N34       1.0  0.40662  0.33713  0.39639  1.0000
  Fe  Fe69      1.0  0.29616  0.47917  0.31289  1.0000
  C   C326      1.0  0.17673  0.24508  0.34058  1.0000
  H   H517      1.0  0.07074  0.46126  0.13038  1.0000
  C   C327      1.0  0.10125  0.47720  0.09462  1.0000
  H   H518      1.0  0.09886  0.32445  0.99063  1.0000
  H   H519      1.0  0.14767  0.46147  0.14691  1.0000
  C   C328      1.0  0.20565  0.29882  0.43898  1.0000
  C   C329      1.0  0.07904  0.31238  0.13825  1.0000
  S   S137      1.0  0.17792  0.47728  0.17173  1.0000
  H   H520      1.0  0.02026  0.34814  0.32472  1.0000
  H   H521      1.0  0.47688  0.42073  0.12254  1.0000
  H   H522      1.0  0.01148  0.47335  0.16752  1.0000
  C   C330      1.0  0.04568  0.36706  0.29396  1.0000
  C   C331      1.0  0.08137  0.28176  0.47407  1.0000
  H   H523      1.0  0.12566  0.24665  0.35105  1.0000
  C   C332      1.0  0.40995  0.47329  0.07983  1.0000
  H   H524      1.0  0.04528  0.36747  0.34221  1.0000
  H   H525      1.0  0.08886  0.25146  0.34986  1.0000
  H   H526      1.0  0.18437  0.45616  0.13972  1.0000
  H   H527      1.0  0.08632  0.25306  0.45192  1.0000
  C   C333      1.0  0.40324  0.35208  0.40922  1.0000
  C   C334      1.0  0.06167  0.46113  0.14587  1.0000
  H   H528      1.0  0.05847  0.42363  0.19567  1.0000
  C   C335      1.0  0.48507  0.42195  0.10660  1.0000
  H   H529      1.0  0.46201  0.45676  0.11584  1.0000
  C   C336      1.0  0.29980  0.45826  0.23871  1.0000
  C   C337      1.0  0.02819  0.46806  0.16683  1.0000
  H   H530      1.0  0.40762  0.31253  0.42136  1.0000
  Fe  Fe70      1.0  0.20583  0.30952  0.36941  1.0000
  C   C338      1.0  0.09905  0.26123  0.44940  1.0000
  S   S138      1.0  0.10500  0.46804  0.25110  1.0000
  C   C339      1.0  0.08564  0.26260  0.35980  1.0000
  H   H531      1.0  0.10308  0.30886  0.44935  1.0000
  H   H532      1.0  0.27016  0.47980  0.21973  1.0000
  H   H533      1.0  0.38858  0.27815  0.38665  1.0000
  N   N35       1.0  0.47387  0.43826  0.09351  1.0000
  C   C340      1.0  0.09686  0.39984  0.22005  1.0000
  H   H534      1.0  0.25126  0.26862  0.42480  1.0000
  H   H535      1.0  0.03312  0.47796  0.17427  1.0000
  H   H536      1.0  0.07580  0.29722  0.47729  1.0000
  H   H537      1.0  0.07799  0.39326  0.18240  1.0000
  C   C341      1.0  0.06662  0.46253  0.25290  1.0000
  H   H538      1.0  0.02980  0.32435  0.16277  1.0000
  H   H539      1.0  0.04645  0.40099  0.30465  1.0000
  C   C342      1.0  0.04822  0.31575  0.12639  1.0000
  Fe  Fe71      1.0  0.08176  0.24323  0.02536  1.0000
  H   H540      1.0  0.05673  0.47309  0.08452  1.0000
  H   H541      1.0  0.39519  0.36702  0.40250  1.0000
  H   H542      1.0  0.32379  0.47182  0.19053  1.0000
  N   N36       1.0  0.05723  0.31084  0.14431  1.0000
  S   S139      1.0  0.02393  0.25645  0.04872  1.0000
  C   C343      1.0  0.05540  0.29015  0.15481  1.0000
  C   C344      1.0  0.04630  0.32511  0.15775  1.0000
  H   H543      1.0  0.48812  0.42572  0.06715  1.0000
  S   S140      1.0  0.36722  0.47141  0.01343  1.0000
  N   N37       1.0  0.03967  0.46842  0.14601  1.0000
  H   H544      1.0  0.09616  0.29920  0.99188  1.0000
  H   H545      1.0  0.41791  0.35405  0.41170  1.0000
  H   H546      1.0  0.18079  0.46460  0.08653  1.0000
  H   H547      1.0  0.22527  0.24875  0.44464  1.0000
  H   H548      1.0  0.43475  0.34533  0.37855  1.0000
  H   H549      1.0  0.45693  0.24655  0.99675  1.0000
  S   S141      1.0  0.00003  0.31834  0.41736  1.0000
  C   C345      1.0  0.14542  0.23992  0.98057  1.0000
  C   C346      1.0  0.10824  0.31815  0.02672  1.0000
  Fe  Fe72      1.0  0.32279  0.48500  0.27116  1.0000
  S   S142      1.0  0.16181  0.28445  0.43572  1.0000
  H   H550      1.0  0.10618  0.27222  0.01994  1.0000
  H   H551      1.0  0.44417  0.43303  0.10993  1.0000
  S   S143      1.0  0.07053  0.24248  0.05829  1.0000
  H   H552      1.0  0.40064  0.46357  0.09070  1.0000
  H   H553      1.0  0.03599  0.43930  0.14407  1.0000
  H   H554      1.0  0.42255  0.33256  0.36691  1.0000
  C   C347      1.0  0.15103  0.24961  0.45933  1.0000
  H   H555      1.0  0.16657  0.44491  0.09858  1.0000
  H   H556      1.0  0.07876  0.24497  0.30807  1.0000
  C   C348      1.0  0.12467  0.24462  0.98951  1.0000
  H   H557      1.0  0.21101  0.31263  0.43889  1.0000
  H   H558      1.0  0.03967  0.45619  0.12068  1.0000
  C   C349      1.0  0.36277  0.48697  0.22891  1.0000
  C   C350      1.0  0.35195  0.41386  0.98267  1.0000
  H   H559      1.0  0.00652  0.37077  0.31212  1.0000
  H   H560      1.0  0.13539  0.31190  0.99263  1.0000
  H   H561      1.0  0.42106  0.25219  0.43414  1.0000
  C   C351      1.0  0.16995  0.26317  0.32839  1.0000
  C   C352      1.0  0.11155  0.25938  0.97908  1.0000
  C   C353      1.0  0.47105  0.45742  0.10025  1.0000
  H   H562      1.0  0.12493  0.45202  0.10209  1.0000
  H   H563      1.0  0.33497  0.46099  0.21202  1.0000
  H   H564      1.0  0.02647  0.39913  0.32671  1.0000
  C   C354      1.0  0.06500  0.25233  0.31673  1.0000
  H   H565      1.0  0.14205  0.29241  0.01307  1.0000
  H   H566      1.0  0.04915  0.35046  0.29498  1.0000
  H   H567      1.0  0.11113  0.27205  0.32466  1.0000
  H   H568      1.0  0.13357  0.46926  0.12730  1.0000
  H   H569      1.0  0.48715  0.40713  0.10234  1.0000
  H   H570      1.0  0.00981  0.36941  0.33686  1.0000
  H   H571      1.0  0.04929  0.33132  0.11816  1.0000
  C   C355      1.0  0.14779  0.45972  0.13158  1.0000
  H   H572      1.0  0.32052  0.44710  0.20416  1.0000
  H   H573      1.0  0.11965  0.28596  0.45743  1.0000
  H   H574      1.0  0.08101  0.32770  0.13003  1.0000
  C   C356      1.0  0.01878  0.40314  0.20083  1.0000
  C   C357      1.0  0.15340  0.24560  0.31295  1.0000
  H   H575      1.0  0.06256  0.47875  0.24949  1.0000
  H   H576      1.0  0.28584  0.46464  0.24893  1.0000
  C   C358      1.0  0.03474  0.26123  0.46506  1.0000
  C   C359      1.0  0.46848  0.24960  0.98275  1.0000
  Fe  Fe73      1.0  0.46037  0.48024  0.14598  1.0000
  S   S144      1.0  0.42492  0.24947  0.39266  1.0000
  H   H577      1.0  0.47129  0.26500  0.98129  1.0000
  C   C360      1.0  0.04492  0.24137  0.46987  1.0000
  H   H578      1.0  0.13476  0.47916  0.17585  1.0000
  C   C361      1.0  0.32372  0.40538  0.47504  1.0000
  C   C362      1.0  0.04912  0.24199  0.32661  1.0000
  C   C363      1.0  0.22573  0.48394  0.24713  1.0000
  H   H579      1.0  0.28587  0.48289  0.19504  1.0000
  H   H580      1.0  0.32538  0.46875  0.97853  1.0000
  H   H581      1.0  0.41602  0.48643  0.10205  1.0000
  H   H582      1.0  0.49899  0.40781  0.15575  1.0000
  C   C364      1.0  0.49905  0.43913  0.14314  1.0000
  H   H583      1.0  0.43391  0.45682  0.58213  1.0000
  H   H584      1.0  0.24378  0.35556  0.95886  1.0000
  H   H585      1.0  0.00223  0.43118  0.71330  1.0000
  H   H586      1.0  0.37659  0.35102  0.90480  1.0000
  Fe  Fe74      1.0  0.16611  0.48282  0.62474  1.0000
  S   S145      1.0  0.04068  0.36366  0.78455  1.0000
  C   C365      1.0  0.45040  0.42132  0.61068  1.0000
  Fe  Fe75      1.0  0.42743  0.43874  0.84084  1.0000
  S   S146      1.0  0.45838  0.44640  0.83514  1.0000
  S   S147      1.0  0.42272  0.40780  0.85660  1.0000
  H   H587      1.0  0.46304  0.37149  0.80539  1.0000
  N   N38       1.0  0.28793  0.24973  0.88188  1.0000
  H   H588      1.0  0.46146  0.24976  0.97009  1.0000
  Fe  Fe76      1.0  0.45171  0.46292  0.80532  1.0000
  S   S148      1.0  0.47293  0.45902  0.77599  1.0000
  H   H589      1.0  0.07910  0.47808  0.70746  1.0000
  C   C366      1.0  0.22932  0.40245  0.93287  1.0000
  S   S149      1.0  0.42215  0.45274  0.81011  1.0000
  S   S150      1.0  0.41054  0.46571  0.85416  1.0000
  S   S151      1.0  0.01910  0.41118  0.74706  1.0000
  Fe  Fe77      1.0  0.44790  0.25013  0.92702  1.0000
  Fe  Fe78      1.0  0.36863  0.46238  0.55843  1.0000
  S   S152      1.0  0.34454  0.44345  0.56562  1.0000
  S   S153      1.0  0.39598  0.45576  0.57332  1.0000
  C   C367      1.0  0.49689  0.31202  0.84958  1.0000
  S   S154      1.0  0.32660  0.47193  0.52642  1.0000
  H   H590      1.0  0.47889  0.31189  0.87946  1.0000
  Fe  Fe79      1.0  0.32272  0.47252  0.55902  1.0000
  C   C368      1.0  0.45294  0.31913  0.96017  1.0000
  Fe  Fe80      1.0  0.34998  0.44394  0.53268  1.0000
  S   S155      1.0  0.35327  0.41431  0.52306  1.0000
  H   H591      1.0  0.31541  0.47683  0.88753  1.0000
  S   S156      1.0  0.37600  0.46020  0.52601  1.0000
  C   C369      1.0  0.48437  0.30387  0.86716  1.0000
  H   H592      1.0  0.02140  0.42228  0.65263  1.0000
  C   C370      1.0  0.47194  0.40768  0.80248  1.0000
  H   H593      1.0  0.42491  0.33378  0.92325  1.0000
  Fe  Fe81      1.0  0.15345  0.44674  0.61811  1.0000
  S   S157      1.0  0.14141  0.41857  0.63302  1.0000
  H   H594      1.0  0.27664  0.42102  0.51824  1.0000
  C   C371      1.0  0.46267  0.36992  0.92537  1.0000
  H   H595      1.0  0.10263  0.44571  0.63600  1.0000
  C   C372      1.0  0.14207  0.24314  0.81902  1.0000
  H   H596      1.0  0.43975  0.40962  0.66140  1.0000
  S   S158      1.0  0.07861  0.25236  0.80473  1.0000
  H   H597      1.0  0.43987  0.39460  0.64387  1.0000
  H   H598      1.0  0.22049  0.37697  0.91430  1.0000
  H   H599      1.0  0.30139  0.40545  0.51846  1.0000
  Fe  Fe82      1.0  0.09039  0.25646  0.77163  1.0000
  S   S159      1.0  0.09482  0.28657  0.75266  1.0000
  H   H600      1.0  0.27884  0.43793  0.89603  1.0000
  C   C373      1.0  0.33848  0.39225  0.96884  1.0000
  Fe  Fe83      1.0  0.07643  0.41460  0.73388  1.0000
  S   S160      1.0  0.48069  0.24234  0.91228  1.0000
  S   S161      1.0  0.10941  0.41715  0.72537  1.0000
  S   S162      1.0  0.06603  0.38774  0.73094  1.0000
  S   S163      1.0  0.05384  0.43674  0.71789  1.0000
  H   H601      1.0  0.25528  0.43113  0.55002  1.0000
  H   H602      1.0  0.33751  0.44361  0.89557  1.0000
  S   S164      1.0  0.03446  0.40646  0.68973  1.0000
  S   S165      1.0  0.43498  0.27579  0.94362  1.0000
  H   H603      1.0  0.05061  0.44307  0.66692  1.0000
  H   H604      1.0  0.09576  0.28806  0.89653  1.0000
  Fe  Fe84      1.0  0.21855  0.28159  0.88401  1.0000
  S   S166      1.0  0.21070  0.26443  0.91520  1.0000
  S   S167      1.0  0.23761  0.30598  0.87411  1.0000
  Fe  Fe85      1.0  0.19545  0.25838  0.86738  1.0000
  S   S168      1.0  0.18448  0.26018  0.83905  1.0000
  S   S169      1.0  0.18662  0.28710  0.87913  1.0000
  H   H605      1.0  0.49038  0.37772  0.84215  1.0000
  Fe  Fe86      1.0  0.31887  0.38823  0.88931  1.0000
  S   S170      1.0  0.28552  0.38842  0.90231  1.0000
  S   S171      1.0  0.33354  0.39866  0.85751  1.0000
  Fe  Fe87      1.0  0.33167  0.37495  0.92877  1.0000
  S   S172      1.0  0.29978  0.37337  0.94600  1.0000
  Fe  Fe88      1.0  0.29673  0.35918  0.92150  1.0000
  S   S173      1.0  0.27940  0.33345  0.93144  1.0000
  Fe  Fe89      1.0  0.29045  0.40244  0.92583  1.0000
  S   S174      1.0  0.26848  0.42771  0.93902  1.0000
  S   S175      1.0  0.32983  0.35772  0.90632  1.0000
  S   S176      1.0  0.32249  0.40534  0.91085  1.0000
  H   H606      1.0  0.13454  0.46775  0.70510  1.0000
  C   C374      1.0  0.05439  0.34156  0.77609  1.0000
  H   H607      1.0  0.33528  0.48374  0.95524  1.0000
  H   H608      1.0  0.03546  0.28157  0.81131  1.0000
  H   H609      1.0  0.34714  0.47773  0.83629  1.0000
  C   C375      1.0  0.32729  0.48029  0.87394  1.0000
  H   H610      1.0  0.31653  0.43645  0.95935  1.0000
  H   H611      1.0  0.38840  0.39255  0.94704  1.0000
  C   C376      1.0  0.26820  0.32580  0.91519  1.0000
  C   C377      1.0  0.26992  0.33504  0.89509  1.0000
  C   C378      1.0  0.26035  0.32887  0.88273  1.0000
  C   C379      1.0  0.24894  0.31350  0.89036  1.0000
  C   C380      1.0  0.24722  0.30426  0.91047  1.0000
  C   C381      1.0  0.25683  0.31040  0.92282  1.0000
  H   H612      1.0  0.27867  0.34688  0.88902  1.0000
  H   H613      1.0  0.26182  0.33603  0.86715  1.0000
  H   H614      1.0  0.23847  0.29244  0.91653  1.0000
  H   H615      1.0  0.25539  0.30321  0.93839  1.0000
  C   C382      1.0  0.26873  0.45090  0.92252  1.0000
  H   H616      1.0  0.30508  0.46874  0.92607  1.0000
  H   H617      1.0  0.22700  0.41081  0.94516  1.0000
  H   H618      1.0  0.45344  0.40591  0.60744  1.0000
  H   H619      1.0  0.29020  0.48536  0.97510  1.0000
  C   C383      1.0  0.46593  0.37453  0.81914  1.0000
  H   H620      1.0  0.08144  0.29549  0.79263  1.0000
  C   C384      1.0  0.01390  0.42515  0.68351  1.0000
  H   H621      1.0  0.14203  0.28207  0.88852  1.0000
  H   H622      1.0  0.29449  0.38556  0.56186  1.0000
  C   C385      1.0  0.28302  0.26932  0.86867  1.0000
  C   C386      1.0  0.07810  0.30693  0.76219  1.0000
  C   C387      1.0  0.07446  0.30782  0.78246  1.0000
  C   C388      1.0  0.05738  0.34031  0.75601  1.0000
  C   C389      1.0  0.06948  0.32318  0.74902  1.0000
  H   H623      1.0  0.08256  0.45826  0.57441  1.0000
  H   H624      1.0  0.05023  0.35245  0.74583  1.0000
  H   H625      1.0  0.07209  0.32246  0.73337  1.0000
  C   C390      1.0  0.13317  0.41752  0.65881  1.0000
  C   C391      1.0  0.14353  0.42497  0.66931  1.0000
  C   C392      1.0  0.13662  0.42413  0.68997  1.0000
  C   C393      1.0  0.11873  0.41690  0.69987  1.0000
  C   C394      1.0  0.10814  0.40987  0.68925  1.0000
  C   C395      1.0  0.11570  0.40963  0.66888  1.0000
  H   H626      1.0  0.15714  0.43094  0.66158  1.0000
  H   H627      1.0  0.14495  0.42938  0.69820  1.0000
  H   H628      1.0  0.09425  0.40440  0.69670  1.0000
  H   H629      1.0  0.10780  0.40364  0.66083  1.0000
  H   H630      1.0  0.02508  0.31351  0.78883  1.0000
  H   H631      1.0  0.29501  0.27118  0.85481  1.0000
  H   H632      1.0  0.00424  0.46903  0.51544  1.0000
  N   N39       1.0  0.12059  0.26393  0.88915  1.0000
  C   C396      1.0  0.23775  0.46253  0.58648  1.0000
  C   C397      1.0  0.25587  0.46479  0.59062  1.0000
  H   H633      1.0  0.35469  0.37970  0.50724  1.0000
  C   C398      1.0  0.06270  0.32517  0.78939  1.0000
  H   H634      1.0  0.23135  0.35419  0.92929  1.0000
  H   H635      1.0  0.25818  0.46060  0.60581  1.0000
  C   C399      1.0  0.29491  0.43445  0.54031  1.0000
  H   H636      1.0  0.42799  0.38403  0.94949  1.0000
  C   C400      1.0  0.33115  0.42785  0.49302  1.0000
  H   H637      1.0  0.28145  0.28206  0.87628  1.0000
  C   C401      1.0  0.47197  0.28681  0.94076  1.0000
  Fe  Fe90      1.0  0.47610  0.47421  0.65325  1.0000
  C   C402      1.0  0.13485  0.27758  0.87819  1.0000
  C   C403      1.0  0.33609  0.38925  0.48497  1.0000
  Fe  Fe91      1.0  0.03366  0.43630  0.74831  1.0000
  C   C404      1.0  0.13190  0.24540  0.89968  1.0000
  H   H638      1.0  0.12290  0.25156  0.86331  1.0000
  H   H639      1.0  0.47013  0.27858  0.88282  1.0000
  H   H640      1.0  0.44545  0.33158  0.96773  1.0000
  C   C405      1.0  0.27567  0.47019  0.88890  1.0000
  C   C406      1.0  0.44127  0.30683  0.95689  1.0000
  C   C407      1.0  0.45065  0.29072  0.94708  1.0000
  S   S177      1.0  0.36073  0.37147  0.93942  1.0000
  H   H641      1.0  0.32029  0.24913  0.87415  1.0000
  H   H642      1.0  0.20663  0.36332  0.95952  1.0000
  S   S178      1.0  0.22834  0.25451  0.86937  1.0000
  C   C408      1.0  0.13020  0.47638  0.69084  1.0000
  C   C409      1.0  0.39834  0.40459  0.85633  1.0000
  C   C410      1.0  0.38954  0.41333  0.83968  1.0000
  C   C411      1.0  0.36989  0.41088  0.83976  1.0000
  C   C412      1.0  0.35883  0.40008  0.85668  1.0000
  C   C413      1.0  0.36765  0.39141  0.87333  1.0000
  C   C414      1.0  0.38745  0.39346  0.87308  1.0000
  H   H643      1.0  0.39799  0.42168  0.82659  1.0000
  H   H644      1.0  0.36315  0.41755  0.82683  1.0000
  H   H645      1.0  0.35919  0.38324  0.88650  1.0000
  H   H646      1.0  0.39409  0.38688  0.88609  1.0000
  H   H647      1.0  0.47936  0.27452  0.93304  1.0000
  C   C415      1.0  0.15616  0.25362  0.82133  1.0000
  C   C416      1.0  0.16688  0.24645  0.83692  1.0000
  C   C417      1.0  0.24398  0.37179  0.95276  1.0000
  C   C418      1.0  0.11916  0.26980  0.96008  1.0000
  C   C419      1.0  0.45941  0.46773  0.92373  1.0000
  C   C420      1.0  0.44525  0.45507  0.93191  1.0000
  C   C421      1.0  0.43297  0.45233  0.92003  1.0000
  C   C422      1.0  0.43526  0.46190  0.89985  1.0000
  C   C423      1.0  0.00182  0.25281  0.96884  1.0000
  H   H648      1.0  0.25656  0.24944  0.89640  1.0000
  H   H649      1.0  0.42203  0.44251  0.92626  1.0000
  H   H650      1.0  0.42601  0.45951  0.89065  1.0000
  H   H651      1.0  0.46292  0.40876  0.90672  1.0000
  H   H652      1.0  0.46327  0.39540  0.96079  1.0000
  H   H653      1.0  0.47930  0.36332  0.92226  1.0000
  H   H654      1.0  0.47639  0.40957  0.64827  1.0000
  C   C424      1.0  0.49871  0.28294  0.83553  1.0000
  C   C425      1.0  0.05256  0.47485  0.75397  1.0000
  H   H655      1.0  0.25950  0.37264  0.94355  1.0000
  C   C426      1.0  0.34295  0.41159  0.50348  1.0000
  C   C427      1.0  0.30477  0.44952  0.96364  1.0000
  C   C428      1.0  0.47953  0.28495  0.86912  1.0000
  C   C429      1.0  0.32137  0.42469  0.47905  1.0000
  H   H656      1.0  0.28151  0.48560  0.95310  1.0000
  H   H657      1.0  0.45488  0.35790  0.93543  1.0000
  C   C430      1.0  0.44987  0.44172  0.63417  1.0000
  H   H658      1.0  0.20463  0.38712  0.96621  1.0000
  S   S179      1.0  0.38686  0.46414  0.96745  1.0000
  H   H659      1.0  0.00099  0.37536  0.77588  1.0000
  H   H660      1.0  0.07673  0.44236  0.66754  1.0000
  C   C431      1.0  0.46626  0.38225  0.95336  1.0000
  H   H661      1.0  0.26829  0.27102  0.86406  1.0000
  C   C432      1.0  0.26316  0.46877  0.93002  1.0000
  H   H662      1.0  0.46913  0.39841  0.84232  1.0000
  H   H663      1.0  0.45889  0.37030  0.96420  1.0000
  H   H664      1.0  0.43452  0.42843  0.60888  1.0000
  Fe  Fe92      1.0  0.17949  0.26756  0.90924  1.0000
  N   N40       1.0  0.22826  0.38102  0.94070  1.0000
  S   S180      1.0  0.13565  0.47520  0.62792  1.0000
  C   C433      1.0  0.34878  0.44780  0.88168  1.0000
  H   H665      1.0  0.03000  0.29503  0.83144  1.0000
  H   H666      1.0  0.49442  0.40254  0.82990  1.0000
  C   C434      1.0  0.15300  0.25007  0.96129  1.0000
  H   H667      1.0  0.29070  0.44879  0.95901  1.0000
  H   H668      1.0  0.13374  0.46584  0.68028  1.0000
  H   H669      1.0  0.25918  0.40565  0.56329  1.0000
  C   C435      1.0  0.32438  0.45225  0.86094  1.0000
  C   C436      1.0  0.26810  0.47738  0.55558  1.0000
  C   C437      1.0  0.40281  0.47274  0.58446  1.0000
  Fe  Fe93      1.0  0.18390  0.46747  0.58614  1.0000
  H   H670      1.0  0.31377  0.44590  0.87440  1.0000
  S   S181      1.0  0.48293  0.24988  0.85604  1.0000
  H   H671      1.0  0.00125  0.40198  0.79385  1.0000
  S   S182      1.0  0.48807  0.33175  0.95770  1.0000
  C   C438      1.0  0.30009  0.39999  0.55740  1.0000
  H   H672      1.0  0.46163  0.44993  0.62384  1.0000
  C   C439      1.0  0.06592  0.46974  0.63599  1.0000
  H   H673      1.0  0.42914  0.30429  0.90829  1.0000
  H   H674      1.0  0.38483  0.46878  0.74452  1.0000
  H   H675      1.0  0.36012  0.45438  0.88559  1.0000
  C   C440      1.0  0.20785  0.37933  0.95335  1.0000
  H   H676      1.0  0.24774  0.47901  0.53621  1.0000
  Fe  Fe94      1.0  0.21867  0.23751  0.90038  1.0000
  Fe  Fe95      1.0  0.04483  0.39091  0.76034  1.0000
  H   H677      1.0  0.27959  0.48350  0.54366  1.0000
  S   S183      1.0  0.44460  0.44117  0.95627  1.0000
  Fe  Fe96      1.0  0.04142  0.40997  0.71787  1.0000
  S   S184      1.0  0.18651  0.23899  0.89731  1.0000
  N   N41       1.0  0.45307  0.42092  0.63095  1.0000
  C   C441      1.0  0.48375  0.39194  0.83297  1.0000
  H   H678      1.0  0.45739  0.37364  0.91102  1.0000
  C   C442      1.0  0.46694  0.46865  0.73757  1.0000
  C   C443      1.0  0.38791  0.33940  0.89728  1.0000
  N   N42       1.0  0.33863  0.46190  0.86627  1.0000
  C   C444      1.0  0.01141  0.43052  0.66373  1.0000
  C   C445      1.0  0.47395  0.41034  0.63305  1.0000
  C   C446      1.0  0.28585  0.40915  0.52777  1.0000
  H   H679      1.0  0.32293  0.48427  0.92470  1.0000
  C   C447      1.0  0.37093  0.40942  0.96989  1.0000
  H   H680      1.0  0.38007  0.32892  0.93723  1.0000
  H   H681      1.0  0.31597  0.39703  0.54838  1.0000
  H   H682      1.0  0.21764  0.41000  0.92375  1.0000
  C   C448      1.0  0.43631  0.39556  0.93913  1.0000
  H   H683      1.0  0.46910  0.46968  0.93278  1.0000
  Fe  Fe97      1.0  0.44113  0.47461  0.84613  1.0000
  N   N43       1.0  0.07059  0.44765  0.63805  1.0000
  C   C449      1.0  0.27102  0.47235  0.57523  1.0000
  C   C450      1.0  0.46221  0.47443  0.75619  1.0000
  H   H684      1.0  0.01028  0.26102  0.95560  1.0000
  H   H685      1.0  0.36336  0.45381  0.84223  1.0000
  S   S185      1.0  0.01551  0.46622  0.75486  1.0000
  C   C451      1.0  0.23469  0.46781  0.56690  1.0000
  C   C452      1.0  0.27494  0.45163  0.90194  1.0000
  N   N44       1.0  0.28665  0.41575  0.54597  1.0000
  C   C453      1.0  0.01282  0.31822  0.80150  1.0000
  C   C454      1.0  0.43801  0.41030  0.64594  1.0000
  H   H686      1.0  0.46953  0.40573  0.78807  1.0000
  H   H687      1.0  0.15879  0.26737  0.81097  1.0000
  S   S186      1.0  0.05737  0.41614  0.76459  1.0000
  C   C455      1.0  0.35744  0.38762  0.95618  1.0000
  H   H688      1.0  0.42590  0.31989  0.88469  1.0000
  H   H689      1.0  0.29561  0.43989  0.55371  1.0000
  H   H690      1.0  0.16903  0.24645  0.95444  1.0000
  H   H691      1.0  0.44433  0.47918  0.59894  1.0000
  H   H692      1.0  0.48303  0.37633  0.95058  1.0000
  C   C456      1.0  0.26583  0.41949  0.55839  1.0000
  H   H693      1.0  0.28548  0.44663  0.53129  1.0000
  H   H694      1.0  0.05781  0.45884  0.75769  1.0000
  H   H695      1.0  0.00944  0.28387  0.79238  1.0000
  H   H696      1.0  0.13914  0.24877  0.91066  1.0000
  H   H697      1.0  0.10891  0.28140  0.95224  1.0000
  H   H698      1.0  0.47704  0.45450  0.73546  1.0000
  C   C457      1.0  0.05743  0.44141  0.62793  1.0000
  C   C458      1.0  0.23194  0.37043  0.92388  1.0000
  H   H699      1.0  0.40989  0.30167  0.89665  1.0000
  H   H700      1.0  0.07569  0.47497  0.64332  1.0000
  H   H701      1.0  0.06048  0.32607  0.80494  1.0000
  N   N45       1.0  0.45857  0.38778  0.93462  1.0000
  H   H702      1.0  0.27995  0.47080  0.87293  1.0000
  H   H703      1.0  0.30113  0.40452  0.57119  1.0000
  H   H704      1.0  0.12700  0.29157  0.86972  1.0000
  C   C459      1.0  0.41358  0.34195  0.91387  1.0000
  S   S187      1.0  0.03889  0.47229  0.58232  1.0000
  C   C460      1.0  0.30759  0.24810  0.88753  1.0000
  C   C461      1.0  0.37374  0.39608  0.95683  1.0000
  C   C462      1.0  0.13986  0.26517  0.95112  1.0000
  N   N46       1.0  0.40265  0.32801  0.90987  1.0000
  H   H705      1.0  0.24452  0.40429  0.92325  1.0000
  H   H706      1.0  0.08134  0.48182  0.75416  1.0000
  C   C463      1.0  0.39152  0.31789  0.92899  1.0000
  C   C464      1.0  0.41752  0.31283  0.89938  1.0000
  C   C465      1.0  0.09225  0.44116  0.62883  1.0000
  H   H707      1.0  0.35710  0.43363  0.87641  1.0000
  N   N47       1.0  0.48044  0.38838  0.81426  1.0000
  H   H708      1.0  0.13391  0.24885  0.80696  1.0000
  C   C466      1.0  0.32950  0.46953  0.96205  1.0000
  H   H709      1.0  0.48236  0.41861  0.79883  1.0000
  S   S188      1.0  0.48724  0.44104  0.66210  1.0000
  H   H710      1.0  0.42192  0.35006  0.89975  1.0000
  H   H711      1.0  0.48574  0.41812  0.62220  1.0000
  H   H712      1.0  0.34234  0.45672  0.95919  1.0000
  C   C467      1.0  0.07943  0.47304  0.57808  1.0000
  H   H713      1.0  0.09575  0.44787  0.61265  1.0000
  N   N48       1.0  0.12284  0.35062  0.73917  1.0000
  C   C468      1.0  0.10784  0.36009  0.75497  1.0000
  C   C469      1.0  0.14129  0.35969  0.73357  1.0000
  C   C470      1.0  0.11383  0.35395  0.72144  1.0000
  C   C471      1.0  0.12839  0.32880  0.74666  1.0000
  H   H714      1.0  0.09357  0.35386  0.75935  1.0000
  H   H715      1.0  0.10355  0.37662  0.74993  1.0000
  H   H716      1.0  0.11403  0.35764  0.76867  1.0000
  H   H717      1.0  0.13753  0.37619  0.72790  1.0000
  H   H718      1.0  0.14852  0.35749  0.74657  1.0000
  H   H719      1.0  0.15291  0.35301  0.72157  1.0000
  H   H720      1.0  0.12460  0.34670  0.70934  1.0000
  H   H721      1.0  0.10986  0.37025  0.71517  1.0000
  H   H722      1.0  0.09963  0.34766  0.72518  1.0000
  H   H723      1.0  0.13958  0.32109  0.73511  1.0000
  H   H724      1.0  0.11477  0.32154  0.75097  1.0000
  H   H725      1.0  0.13520  0.32564  0.76007  1.0000
  H   H726      1.0  0.36650  0.46976  0.76767  1.0000
  H   H727      1.0  0.10225  0.27235  0.86681  1.0000
  H   H728      1.0  0.24733  0.37115  0.91416  1.0000
  H   H729      1.0  0.22624  0.45655  0.59842  1.0000
  H   H730      1.0  0.06121  0.44659  0.61149  1.0000
  C   C472      1.0  0.11113  0.25877  0.87485  1.0000
  H   H731      1.0  0.33082  0.45734  0.92850  1.0000
  H   H732      1.0  0.39568  0.34728  0.88269  1.0000
  H   H733      1.0  0.09948  0.46346  0.71923  1.0000
  N   N49       1.0  0.31184  0.46863  0.95421  1.0000
  H   H734      1.0  0.42486  0.30980  0.96209  1.0000
  H   H735      1.0  0.19560  0.38610  0.94470  1.0000
  H   H736      1.0  0.04102  0.44782  0.63302  1.0000
  H   H737      1.0  0.26580  0.42497  0.57201  1.0000
  H   H738      1.0  0.27906  0.39545  0.53148  1.0000
  H   H739      1.0  0.40277  0.35345  0.92199  1.0000
  Fe  Fe98      1.0  0.46837  0.23790  0.88746  1.0000
  C   C473      1.0  0.48380  0.29887  0.94456  1.0000
  H   H740      1.0  0.14745  0.27035  0.86730  1.0000
  H   H741      1.0  0.09642  0.42456  0.63009  1.0000
  H   H742      1.0  0.31070  0.43209  0.53132  1.0000
  C   C474      1.0  0.34555  0.39235  0.49924  1.0000
  C   C475      1.0  0.42880  0.48187  0.59694  1.0000
  H   H743      1.0  0.25782  0.46826  0.94592  1.0000
  H   H744      1.0  0.27001  0.26025  0.90852  1.0000
  H   H745      1.0  0.45096  0.38082  0.82810  1.0000
  H   H746      1.0  0.09781  0.45920  0.69567  1.0000
  H   H747      1.0  0.10062  0.24810  0.88248  1.0000
  C   C476      1.0  0.47422  0.31517  0.95415  1.0000
  C   C477      1.0  0.25003  0.47495  0.55141  1.0000
  C   C478      1.0  0.35424  0.46727  0.84835  1.0000
  C   C479      1.0  0.48697  0.27435  0.85336  1.0000
  H   H748      1.0  0.38324  0.30708  0.92662  1.0000
  H   H749      1.0  0.10506  0.48473  0.66498  1.0000
  C   C480      1.0  0.42285  0.46921  0.58748  1.0000
  H   H750      1.0  0.05918  0.42477  0.63073  1.0000
  H   H751      1.0  0.43268  0.40879  0.94652  1.0000
  S   S189      1.0  0.43552  0.24830  0.90107  1.0000
  C   C481      1.0  0.10455  0.27395  0.90389  1.0000
  H   H752      1.0  0.45087  0.44196  0.64964  1.0000
  H   H753      1.0  0.11130  0.27799  0.91487  1.0000
  H   H754      1.0  0.46196  0.47638  0.70742  1.0000
  S   S190      1.0  0.18392  0.45288  0.61824  1.0000
  S   S191      1.0  0.14863  0.27891  0.92741  1.0000
  C   C482      1.0  0.09562  0.47111  0.70448  1.0000
  H   H755      1.0  0.24198  0.37948  0.96547  1.0000
  C   C483      1.0  0.39819  0.48581  0.76784  1.0000
  H   H756      1.0  0.32918  0.44276  0.49600  1.0000
  H   H757      1.0  0.33794  0.37432  0.48206  1.0000
  H   H758      1.0  0.43459  0.45047  0.63187  1.0000
  H   H759      1.0  0.33268  0.43963  0.85318  1.0000
  S   S192      1.0  0.15447  0.45904  0.58546  1.0000
  C   C484      1.0  0.44939  0.47467  0.89173  1.0000
  C   C485      1.0  0.02316  0.28723  0.82347  1.0000
  H   H760      1.0  0.01920  0.32687  0.80906  1.0000
  H   H761      1.0  0.42208  0.41802  0.64488  1.0000
  H   H762      1.0  0.47189  0.35981  0.82806  1.0000
  H   H763      1.0  0.40210  0.30929  0.93898  1.0000
  H   H764      1.0  0.39263  0.47608  0.78224  1.0000
  C   C486      1.0  0.06679  0.43833  0.65947  1.0000
  H   H765      1.0  0.04963  0.47522  0.64261  1.0000
  H   H766      1.0  0.45696  0.41469  0.81081  1.0000
  H   H767      1.0  0.47706  0.39466  0.63052  1.0000
  H   H768      1.0  0.06983  0.42164  0.66161  1.0000
  S   S193      1.0  0.44233  0.48533  0.66166  1.0000
  H   H769      1.0  0.37920  0.32940  0.89412  1.0000
  H   H770      1.0  0.36512  0.47478  0.85179  1.0000
  H   H771      1.0  0.30695  0.26030  0.89551  1.0000
  H   H772      1.0  0.02351  0.47450  0.53864  1.0000
  H   H773      1.0  0.31506  0.46302  0.85075  1.0000
  H   H774      1.0  0.06867  0.47716  0.62004  1.0000
  H   H775      1.0  0.46720  0.41666  0.92751  1.0000
  H   H776      1.0  0.46098  0.42995  0.59903  1.0000
  S   S194      1.0  0.21208  0.46517  0.56139  1.0000
  C   C487      1.0  0.05926  0.48366  0.58178  1.0000
  C   C488      1.0  0.31798  0.46982  0.93235  1.0000
  S   S195      1.0  0.29264  0.47670  0.58125  1.0000
  H   H777      1.0  0.42997  0.40031  0.92533  1.0000
  C   C489      1.0  0.03238  0.48257  0.75184  1.0000
  S   S196      1.0  0.06886  0.24020  0.76556  1.0000
  C   C490      1.0  0.27162  0.24815  0.90010  1.0000
  H   H778      1.0  0.11104  0.47290  0.57715  1.0000
  H   H779      1.0  0.09356  0.26405  0.91252  1.0000
  C   C491      1.0  0.09554  0.48126  0.57974  1.0000
  H   H780      1.0  0.00021  0.32860  0.79499  1.0000
  H   H781      1.0  0.32592  0.38561  0.96859  1.0000
  Fe  Fe99      1.0  0.40848  0.48066  0.82267  1.0000
  H   H782      1.0  0.00175  0.36675  0.81192  1.0000
  C   C492      1.0  0.46122  0.47777  0.90381  1.0000
  S   S197      1.0  0.02486  0.24172  0.81168  1.0000
  C   C493      1.0  0.37296  0.47905  0.75331  1.0000
  C   C494      1.0  0.46906  0.40338  0.92064  1.0000
  H   H783      1.0  0.38343  0.41614  0.97019  1.0000
  H   H784      1.0  0.49639  0.23877  0.95073  1.0000
  N   N50       1.0  0.00576  0.30063  0.81547  1.0000
  H   H785      1.0  0.48576  0.39765  0.91634  1.0000
  H   H786      1.0  0.49823  0.37667  0.78821  1.0000
  H   H787      1.0  0.09199  0.27339  0.48411  1.0000
  C   C495      1.0  0.45850  0.48109  0.72167  1.0000
  C   C496      1.0  0.00054  0.43538  0.69799  1.0000
  H   H788      1.0  0.41115  0.47649  0.75903  1.0000
  H   H789      1.0  0.01839  0.27377  0.83414  1.0000
  C   C497      1.0  0.29515  0.48567  0.95873  1.0000
  N   N51       1.0  0.10845  0.48624  0.69405  1.0000
  H   H790      1.0  0.14427  0.23756  0.88905  1.0000
  H   H791      1.0  0.36050  0.48546  0.74486  1.0000
  Fe  Fe100     1.0  0.41633  0.45206  0.97778  1.0000
  H   H792      1.0  0.06798  0.27425  0.47835  1.0000
  Fe  Fe101     1.0  0.47692  0.69830  0.40749  1.0000
  H   H793      1.0  0.35274  0.53952  0.43108  1.0000
  H   H794      1.0  0.02976  0.53352  0.20176  1.0000
  S   S198      1.0  0.08469  0.70398  0.01181  1.0000
  H   H795      1.0  0.44998  0.55506  0.08509  1.0000
  C   C498      1.0  0.33339  0.51356  0.98257  1.0000
  H   H796      1.0  0.36545  0.51820  0.41966  1.0000
  C   C499      1.0  0.01529  0.53213  0.15939  1.0000
  S   S199      1.0  0.25269  0.49965  0.25891  1.0000
  H   H797      1.0  0.04217  0.49936  0.14101  1.0000
  Fe  Fe102     1.0  0.42594  0.51459  0.15595  1.0000
  S   S200      1.0  0.43801  0.53619  0.12855  1.0000
  S   S201      1.0  0.39656  0.52715  0.17581  1.0000
  Fe  Fe103     1.0  0.44318  0.51068  0.11245  1.0000
  S   S202      1.0  0.44105  0.51592  0.07994  1.0000
  Fe  Fe104     1.0  0.46863  0.52287  0.13639  1.0000
  C   C500      1.0  0.43360  0.49871  0.05194  1.0000
  H   H798      1.0  0.19655  0.68068  0.42640  1.0000
  H   H799      1.0  0.00869  0.62891  0.06254  1.0000
  C   C501      1.0  0.48922  0.57872  0.05926  1.0000
  H   H800      1.0  0.09944  0.55444  0.23524  1.0000
  C   C502      1.0  0.36122  0.53175  0.28788  1.0000
  C   C503      1.0  0.30429  0.49139  0.22053  1.0000
  S   S203      1.0  0.30228  0.51376  0.26137  1.0000
  C   C504      1.0  0.18112  0.68841  0.43318  1.0000
  Fe  Fe105     1.0  0.30126  0.52089  0.29116  1.0000
  S   S204      1.0  0.30618  0.55124  0.29353  1.0000
  H   H801      1.0  0.36169  0.55005  0.01991  1.0000
  C   C505      1.0  0.01518  0.58510  0.09604  1.0000
  H   H802      1.0  0.08776  0.50790  0.22711  1.0000
  S   S205      1.0  0.33159  0.61842  0.37020  1.0000
  Fe  Fe106     1.0  0.32635  0.58732  0.38498  1.0000
  S   S206      1.0  0.32852  0.55901  0.37336  1.0000
  Fe  Fe107     1.0  0.16544  0.68770  0.38602  1.0000
  S   S207      1.0  0.17422  0.71688  0.38487  1.0000
  S   S208      1.0  0.18607  0.65809  0.39515  1.0000
  Fe  Fe108     1.0  0.12245  0.70857  0.37938  1.0000
  H   H803      1.0  0.38821  0.50292  0.27099  1.0000
  S   S209      1.0  0.09360  0.70821  0.37019  1.0000
  H   H804      1.0  0.36323  0.50148  0.26885  1.0000
  C   C506      1.0  0.11561  0.51506  0.24366  1.0000
  Fe  Fe109     1.0  0.14325  0.72352  0.40443  1.0000
  S   S210      1.0  0.15206  0.69923  0.35857  1.0000
  S   S211      1.0  0.13495  0.69382  0.40690  1.0000
  N   N52       1.0  0.10944  0.52640  0.22488  1.0000
  C   C507      1.0  0.40979  0.66063  0.40487  1.0000
  H   H805      1.0  0.33500  0.52186  0.04767  1.0000
  H   H806      1.0  0.35781  0.51985  0.07145  1.0000
  H   H807      1.0  0.18250  0.70310  0.43580  1.0000
  Fe  Fe110     1.0  0.07733  0.70833  0.04373  1.0000
  S   S212      1.0  0.07081  0.68589  0.07254  1.0000
  H   H808      1.0  0.34375  0.55621  0.25909  1.0000
  Fe  Fe111     1.0  0.08302  0.56906  0.09415  1.0000
  S   S213      1.0  0.06462  0.57190  0.12497  1.0000
  S   S214      1.0  0.08577  0.59392  0.06694  1.0000
  Fe  Fe112     1.0  0.09525  0.52346  0.10517  1.0000
  S   S215      1.0  0.07800  0.52231  0.13678  1.0000
  H   H809      1.0  0.47914  0.70962  0.98605  1.0000
  Fe  Fe113     1.0  0.05347  0.54469  0.12355  1.0000
  S   S216      1.0  0.02087  0.54064  0.13343  1.0000
  Fe  Fe114     1.0  0.09086  0.54925  0.13536  1.0000
  S   S217      1.0  0.10533  0.55057  0.16000  1.0000
  S   S218      1.0  0.06958  0.54351  0.09184  1.0000
  S   S219      1.0  0.11030  0.54871  0.10470  1.0000
  H   H810      1.0  0.33793  0.53192  0.26221  1.0000
  C   C508      1.0  0.18517  0.67104  0.46626  1.0000
  H   H811      1.0  0.10247  0.50971  0.25483  1.0000
  C   C509      1.0  0.07572  0.66027  0.07091  1.0000
  C   C510      1.0  0.08012  0.65437  0.05242  1.0000
  C   C511      1.0  0.08351  0.63394  0.05145  1.0000
  C   C512      1.0  0.08270  0.61923  0.06893  1.0000
  C   C513      1.0  0.07849  0.62506  0.08746  1.0000
  C   C514      1.0  0.07486  0.64555  0.08844  1.0000
  H   H812      1.0  0.08076  0.66553  0.03884  1.0000
  H   H813      1.0  0.08674  0.62954  0.03708  1.0000
  H   H814      1.0  0.07796  0.61382  0.10102  1.0000
  H   H815      1.0  0.07152  0.65000  0.10279  1.0000
  C   C515      1.0  0.33149  0.50909  0.41454  1.0000
  C   C516      1.0  0.49522  0.73417  0.46714  1.0000
  H   H816      1.0  0.30025  0.53155  0.43611  1.0000
  H   H817      1.0  0.33089  0.51839  0.39938  1.0000
  C   C517      1.0  0.10105  0.51347  0.21641  1.0000
  S   S220      1.0  0.43135  0.71483  0.44796  1.0000
  H   H818      1.0  0.02275  0.61881  0.10243  1.0000
  Fe  Fe115     1.0  0.43559  0.68964  0.43142  1.0000
  H   H819      1.0  0.37279  0.49706  0.06388  1.0000
  C   C518      1.0  0.38526  0.51350  0.02523  1.0000
  H   H820      1.0  0.17163  0.69174  0.42183  1.0000
  C   C519      1.0  0.22094  0.67379  0.37804  1.0000
  C   C520      1.0  0.21239  0.65804  0.39101  1.0000
  C   C521      1.0  0.22503  0.64181  0.40071  1.0000
  C   C522      1.0  0.24614  0.64132  0.39741  1.0000
  H   H821      1.0  0.21137  0.68629  0.37036  1.0000
  H   H822      1.0  0.21847  0.62962  0.41085  1.0000
  H   H823      1.0  0.25575  0.62890  0.40512  1.0000
  H   H824      1.0  0.34860  0.52332  0.29488  1.0000
  H   H825      1.0  0.34652  0.52015  0.02200  1.0000
  C   C523      1.0  0.12187  0.51045  0.16738  1.0000
  C   C524      1.0  0.12565  0.53006  0.16165  1.0000
  C   C525      1.0  0.14553  0.53332  0.15869  1.0000
  Fe  Fe116     1.0  0.38338  0.48800  0.98501  1.0000
  H   H826      1.0  0.18740  0.68494  0.46990  1.0000
  H   H827      1.0  0.10651  0.50789  0.16964  1.0000
  H   H828      1.0  0.14848  0.54846  0.15422  1.0000
  H   H829      1.0  0.49461  0.53839  0.06762  1.0000
  C   C526      1.0  0.31233  0.55342  0.31573  1.0000
  C   C527      1.0  0.31684  0.57155  0.31720  1.0000
  C   C528      1.0  0.32183  0.57359  0.33475  1.0000
  C   C529      1.0  0.32232  0.55747  0.35094  1.0000
  C   C530      1.0  0.31805  0.53931  0.34932  1.0000
  C   C531      1.0  0.31300  0.53730  0.33185  1.0000
  H   H830      1.0  0.31657  0.58402  0.30469  1.0000
  H   H831      1.0  0.32558  0.58749  0.33564  1.0000
  H   H832      1.0  0.31853  0.52670  0.36168  1.0000
  H   H833      1.0  0.30956  0.52326  0.33091  1.0000
  C   C532      1.0  0.09864  0.71707  0.09434  1.0000
  H   H834      1.0  0.30233  0.50879  0.99021  1.0000
  H   H835      1.0  0.34601  0.57393  0.45013  1.0000
  C   C533      1.0  0.34901  0.51535  0.03761  1.0000
  C   C534      1.0  0.35435  0.50725  0.22335  1.0000
  C   C535      1.0  0.36481  0.51933  0.20693  1.0000
  C   C536      1.0  0.38372  0.51123  0.19588  1.0000
  H   H836      1.0  0.31756  0.50228  0.41973  1.0000
  H   H837      1.0  0.06448  0.72659  0.07930  1.0000
  C   C537      1.0  0.02694  0.73141  0.98044  1.0000
  H   H838      1.0  0.35826  0.53504  0.20274  1.0000
  N   N53       1.0  0.07837  0.72811  0.10286  1.0000
  N   N54       1.0  0.47804  0.56625  0.07659  1.0000
  H   H839      1.0  0.06466  0.70195  0.11055  1.0000
  H   H840      1.0  0.48270  0.53630  0.09354  1.0000
  C   C538      1.0  0.39204  0.49087  0.20123  1.0000
  H   H841      1.0  0.00834  0.68820  0.99961  1.0000
  C   C539      1.0  0.00677  0.51781  0.20081  1.0000
  H   H842      1.0  0.14119  0.69121  0.44935  1.0000
  C   C540      1.0  0.01048  0.70241  0.98992  1.0000
  H   H843      1.0  0.46161  0.55694  0.05920  1.0000
  H   H844      1.0  0.15929  0.66033  0.43608  1.0000
  H   H845      1.0  0.20055  0.66261  0.46027  1.0000
  H   H846      1.0  0.31982  0.50148  0.45464  1.0000
  H   H847      1.0  0.00467  0.59027  0.10945  1.0000
  C   C541      1.0  0.31461  0.53757  0.43027  1.0000
  C   C542      1.0  0.47989  0.56380  0.15729  1.0000
  C   C543      1.0  0.48124  0.57861  0.16716  1.0000
  H   H848      1.0  0.48056  0.72202  0.36475  1.0000
  C   C544      1.0  0.16162  0.51701  0.16151  1.0000
  H   H849      1.0  0.46675  0.55657  0.16198  1.0000
  H   H850      1.0  0.46905  0.58278  0.17941  1.0000
  C   C545      1.0  0.37752  0.63983  0.42252  1.0000
  C   C546      1.0  0.02159  0.52976  0.19232  1.0000
  C   C547      1.0  0.02613  0.53659  0.17158  1.0000
  Fe  Fe117     1.0  0.15792  0.72918  0.35948  1.0000
  H   H851      1.0  0.39784  0.53667  0.26462  1.0000
  H   H852      1.0  0.31517  0.54718  0.44055  1.0000
  H   H853      1.0  0.03778  0.54562  0.16509  1.0000
  H   H854      1.0  0.39933  0.51814  0.02609  1.0000
  S   S221      1.0  0.29618  0.59814  0.40412  1.0000
  S   S222      1.0  0.27335  0.50741  0.30571  1.0000
  H   H855      1.0  0.07473  0.70618  0.13005  1.0000
  H   H856      1.0  0.37916  0.55905  0.25949  1.0000
  H   H857      1.0  0.08865  0.55305  0.21499  1.0000
  C   C548      1.0  0.03356  0.70946  0.41636  1.0000
  C   C549      1.0  0.03376  0.71167  0.39608  1.0000
  C   C550      1.0  0.05232  0.71129  0.38206  1.0000
  C   C551      1.0  0.07067  0.70911  0.38819  1.0000
  C   C552      1.0  0.07043  0.70753  0.40841  1.0000
  C   C553      1.0  0.05190  0.70755  0.42250  1.0000
  H   H858      1.0  0.01970  0.71304  0.39126  1.0000
  H   H859      1.0  0.05247  0.71240  0.36644  1.0000
  H   H860      1.0  0.08456  0.70576  0.41325  1.0000
  H   H861      1.0  0.33986  0.51372  0.23173  1.0000
  Fe  Fe118     1.0  0.34703  0.61725  0.39532  1.0000
  C   C554      1.0  0.38516  0.64920  0.43399  1.0000
  S   S223      1.0  0.34448  0.58495  0.40821  1.0000
  H   H862      1.0  0.24859  0.68530  0.36426  1.0000
  H   H863      1.0  0.42228  0.66854  0.39799  1.0000
  H   H864      1.0  0.40885  0.65208  0.37765  1.0000
  H   H865      1.0  0.07527  0.49889  0.08649  1.0000
  H   H866      1.0  0.03244  0.70699  0.00483  1.0000
  H   H867      1.0  0.29027  0.49869  0.23001  1.0000
  H   H868      1.0  0.44280  0.50853  0.04108  1.0000
  S   S224      1.0  0.44524  0.70836  0.40119  1.0000
  N   N55       1.0  0.33817  0.68754  0.38452  1.0000
  C   C555      1.0  0.32650  0.70829  0.38426  1.0000
  C   C556      1.0  0.32911  0.67686  0.37417  1.0000
  C   C557      1.0  0.33741  0.67691  0.40543  1.0000
  C   C558      1.0  0.35965  0.68805  0.37425  1.0000
  H   H869      1.0  0.33294  0.71667  0.39206  1.0000
  H   H870      1.0  0.31020  0.70842  0.39182  1.0000
  H   H871      1.0  0.32676  0.71677  0.36870  1.0000
  H   H872      1.0  0.33771  0.66117  0.37401  1.0000
  H   H873      1.0  0.31299  0.67594  0.38168  1.0000
  H   H874      1.0  0.32922  0.68447  0.35838  1.0000
  H   H875      1.0  0.32141  0.67697  0.41390  1.0000
  H   H876      1.0  0.34523  0.68369  0.41348  1.0000
  H   H877      1.0  0.34508  0.66094  0.40609  1.0000
  H   H878      1.0  0.36078  0.69662  0.35866  1.0000
  H   H879      1.0  0.36865  0.67266  0.37338  1.0000
  H   H880      1.0  0.36738  0.69498  0.38226  1.0000
  S   S225      1.0  0.37597  0.63050  0.38665  1.0000
  C   C559      1.0  0.37549  0.51057  0.26317  1.0000
  S   S226      1.0  0.45638  0.50316  0.16505  1.0000
  H   H881      1.0  0.16256  0.64715  0.46062  1.0000
  C   C560      1.0  0.40216  0.65124  0.39340  1.0000
  C   C561      1.0  0.24205  0.67317  0.37455  1.0000
  Fe  Fe119     1.0  0.30262  0.62907  0.39121  1.0000
  S   S227      1.0  0.28126  0.65631  0.37859  1.0000
  C   C562      1.0  0.38592  0.64088  0.40211  1.0000
  N   N56       1.0  0.36789  0.53152  0.26625  1.0000
  H   H882      1.0  0.03816  0.62566  0.07804  1.0000
  C   C563      1.0  0.02410  0.71303  0.99293  1.0000
  H   H883      1.0  0.01587  0.71005  0.47490  1.0000
  C   C564      1.0  0.36427  0.54377  0.03537  1.0000
  H   H884      1.0  0.12433  0.71692  0.32888  1.0000
  C   C565      1.0  0.38441  0.54314  0.25751  1.0000
  H   H885      1.0  0.33847  0.50092  0.99354  1.0000
  H   H886      1.0  0.30669  0.50155  0.20572  1.0000
  H   H887      1.0  0.16532  0.49085  0.12982  1.0000
  H   H888      1.0  0.34496  0.49663  0.41287  1.0000
  H   H889      1.0  0.35500  0.54142  0.23995  1.0000
  H   H890      1.0  0.14391  0.67810  0.47405  1.0000
  S   S228      1.0  0.42888  0.49002  0.13912  1.0000
  C   C566      1.0  0.00028  0.52038  0.16790  1.0000
  H   H891      1.0  0.02842  0.57442  0.10129  1.0000
  H   H892      1.0  0.35052  0.49872  0.04156  1.0000
  Fe  Fe120     1.0  0.46428  0.70455  0.45027  1.0000
  H   H893      1.0  0.13910  0.51971  0.20597  1.0000
  H   H894      1.0  0.10444  0.72155  0.43263  1.0000
  H   H895      1.0  0.00720  0.57638  0.09018  1.0000
  C   C567      1.0  0.12743  0.53284  0.21045  1.0000
  N   N57       1.0  0.02191  0.60205  0.08069  1.0000
  H   H896      1.0  0.37858  0.64828  0.44977  1.0000
  H   H897      1.0  0.09719  0.70539  0.08666  1.0000
  C   C568      1.0  0.16937  0.65714  0.44703  1.0000
  H   H898      1.0  0.13490  0.54164  0.21675  1.0000
  H   H899      1.0  0.37784  0.54895  0.03676  1.0000
  S   S229      1.0  0.47580  0.72425  0.42159  1.0000
  C   C569      1.0  0.08102  0.73517  0.45485  1.0000
  N   N58       1.0  0.36732  0.52161  0.03961  1.0000
  H   H900      1.0  0.04635  0.60271  0.09412  1.0000
  C   C570      1.0  0.35141  0.53005  0.42097  1.0000
  H   H901      1.0  0.38817  0.49681  0.02819  1.0000
  C   C571      1.0  0.03587  0.59426  0.06334  1.0000
  C   C572      1.0  0.10087  0.73142  0.44326  1.0000
  C   C573      1.0  0.08689  0.73548  0.32319  1.0000
  C   C574      1.0  0.49077  0.54605  0.08062  1.0000
  H   H902      1.0  0.10751  0.70937  0.10610  1.0000
  H   H903      1.0  0.48010  0.59410  0.05580  1.0000
  S   S230      1.0  0.00130  0.50926  0.22676  1.0000
  H   H904      1.0  0.02799  0.58702  0.05581  1.0000
  H   H905      1.0  0.09585  0.52173  0.20244  1.0000
  H   H906      1.0  0.12752  0.50149  0.24104  1.0000
  C   C575      1.0  0.09364  0.54425  0.22894  1.0000
  S   S231      1.0  0.14175  0.71225  0.99137  1.0000
  Fe  Fe121     1.0  0.31453  0.59776  0.42642  1.0000
  H   H907      1.0  0.18430  0.64861  0.44013  1.0000
  H   H908      1.0  0.05125  0.72158  0.12418  1.0000
  C   C576      1.0  0.03647  0.48919  0.13460  1.0000
  Fe  Fe122     1.0  0.27673  0.49698  0.27689  1.0000
  S   S232      1.0  0.11464  0.49488  0.09649  1.0000
  N   N59       1.0  0.26246  0.60246  0.35643  1.0000
  C   C577      1.0  0.28158  0.60868  0.35619  1.0000
  C   C578      1.0  0.24754  0.62034  0.34977  1.0000
  C   C579      1.0  0.25400  0.59278  0.37695  1.0000
  C   C580      1.0  0.26676  0.58802  0.34287  1.0000
  H   H909      1.0  0.29293  0.59569  0.36182  1.0000
  H   H910      1.0  0.27877  0.62005  0.36577  1.0000
  H   H911      1.0  0.28879  0.61549  0.34085  1.0000
  H   H912      1.0  0.23280  0.61631  0.34994  1.0000
  H   H913      1.0  0.24405  0.63160  0.35962  1.0000
  H   H914      1.0  0.25344  0.62798  0.33432  1.0000
  H   H915      1.0  0.26494  0.57926  0.38243  1.0000
  H   H916      1.0  0.23951  0.58794  0.37773  1.0000
  H   H917      1.0  0.25064  0.60319  0.38760  1.0000
  H   H918      1.0  0.25262  0.58325  0.34239  1.0000
  H   H919      1.0  0.27766  0.57418  0.34773  1.0000
  H   H920      1.0  0.27364  0.59457  0.32730  1.0000
  N   N60       1.0  0.17180  0.67590  0.45169  1.0000
  C   C581      1.0  0.13782  0.49422  0.17101  1.0000
  C   C582      1.0  0.49643  0.72241  0.35794  1.0000
  H   H921      1.0  0.11265  0.49998  0.21283  1.0000
  H   H922      1.0  0.07986  0.53988  0.23977  1.0000
  S   S233      1.0  0.46767  0.67763  0.43651  1.0000
  S   S234      1.0  0.01070  0.70851  0.43432  1.0000
  H   H923      1.0  0.33448  0.51722  0.45934  1.0000
  H   H924      1.0  0.05182  0.70576  0.43820  1.0000
  C   C583      1.0  0.34010  0.56294  0.46250  1.0000
  C   C584      1.0  0.31907  0.56489  0.46997  1.0000
  H   H925      1.0  0.17701  0.51957  0.15905  1.0000
  C   C585      1.0  0.00399  0.61603  0.07421  1.0000
  Fe  Fe123     1.0  0.10935  0.72150  0.00771  1.0000
  H   H926      1.0  0.38310  0.51880  0.00958  1.0000
  S   S235      1.0  0.41014  0.67131  0.44049  1.0000
  C   C586      1.0  0.33361  0.50842  0.44843  1.0000
  H   H927      1.0  0.36512  0.63182  0.42950  1.0000
  C   C587      1.0  0.40132  0.65966  0.42527  1.0000
  S   S236      1.0  0.30189  0.58404  0.45819  1.0000
  C   C588      1.0  0.25473  0.65691  0.38412  1.0000
  H   H928      1.0  0.31348  0.54757  0.41556  1.0000
  S   S237      1.0  0.31822  0.62994  0.41529  1.0000
  H   H929      1.0  0.04254  0.60641  0.05208  1.0000
  N   N61       1.0  0.33277  0.52127  0.42856  1.0000
  C   C589      1.0  0.45875  0.56440  0.07224  1.0000
  C   C590      1.0  0.35361  0.54686  0.47120  1.0000
  H   H930      1.0  0.37391  0.52487  0.29594  1.0000
  H   H931      1.0  0.06930  0.72824  0.45306  1.0000
  H   H932      1.0  0.46503  0.56673  0.10769  1.0000
  C   C591      1.0  0.37083  0.51376  0.06015  1.0000
  H   H933      1.0  0.08883  0.71881  0.32663  1.0000
  H   H934      1.0  0.38978  0.54324  0.24118  1.0000
  H   H935      1.0  0.17885  0.49211  0.10437  1.0000
  S   S238      1.0  0.32386  0.49317  0.29982  1.0000
  H   H936      1.0  0.38493  0.51763  0.06204  1.0000
  C   C592      1.0  0.03269  0.61281  0.08921  1.0000
  H   H937      1.0  0.35134  0.53974  0.40592  1.0000
  S   S239      1.0  0.47470  0.49905  0.11803  1.0000
  C   C593      1.0  0.15772  0.49750  0.16804  1.0000
  H   H938      1.0  0.38130  0.50990  0.24704  1.0000
  C   C594      1.0  0.43042  0.49907  0.07236  1.0000
  H   H939      1.0  0.22327  0.49832  0.23721  1.0000
  S   S240      1.0  0.10387  0.72326  0.04012  1.0000
  H   H940      1.0  0.15280  0.70140  0.46366  1.0000
  H   H941      1.0  0.12305  0.54254  0.19661  1.0000
  C   C595      1.0  0.35043  0.54067  0.25639  1.0000
  H   H942      1.0  0.46399  0.59106  0.09183  1.0000
  C   C596      1.0  0.15156  0.68706  0.46013  1.0000
  H   H943      1.0  0.15143  0.49635  0.11021  1.0000
  H   H944      1.0  0.44870  0.57930  0.06905  1.0000
  H   H945      1.0  0.11646  0.71831  0.29607  1.0000
  H   H946      1.0  0.35081  0.55046  0.04590  1.0000
  H   H947      1.0  0.12194  0.52432  0.25056  1.0000
  S   S241      1.0  0.49515  0.53920  0.12927  1.0000
  H   H948      1.0  0.04894  0.58278  0.06793  1.0000
  H   H949      1.0  0.35532  0.54734  0.29073  1.0000
  H   H950      1.0  0.36987  0.54539  0.46525  1.0000
  H   H951      1.0  0.02001  0.49537  0.13466  1.0000
  C   C597      1.0  0.06673  0.71384  0.11761  1.0000
  Fe  Fe124     1.0  0.44327  0.73259  0.41804  1.0000
  C   C598      1.0  0.11388  0.73500  0.29369  1.0000
  H   H952      1.0  0.48771  0.57700  0.09827  1.0000
  H   H953      1.0  0.49297  0.57197  0.04564  1.0000
  C   C599      1.0  0.31292  0.51801  0.98067  1.0000
  H   H954      1.0  0.02408  0.73272  0.46092  1.0000
  H   H955      1.0  0.04466  0.49009  0.11875  1.0000
  C   C600      1.0  0.01669  0.72548  0.47602  1.0000
  H   H956      1.0  0.31740  0.49047  0.22743  1.0000
  C   C601      1.0  0.47346  0.57574  0.09430  1.0000
  H   H957      1.0  0.10788  0.72735  0.08316  1.0000
  C   C602      1.0  0.12162  0.73363  0.32557  1.0000
  C   C603      1.0  0.49839  0.58781  0.16149  1.0000
  H   H958      1.0  0.34724  0.49605  0.44780  1.0000
  C   C604      1.0  0.49566  0.55825  0.14157  1.0000
  Fe  Fe125     1.0  0.06440  0.73430  0.00605  1.0000
  H   H959      1.0  0.22756  0.61553  0.97905  1.0000
  H   H960      1.0  0.08969  0.73684  0.12476  1.0000
  S   S242      1.0  0.14104  0.73571  0.43166  1.0000
  H   H961      1.0  0.49068  0.73675  0.45301  1.0000
  C   C605      1.0  0.16544  0.48712  0.11530  1.0000
  H   H962      1.0  0.20591  0.60575  0.97841  1.0000
  S   S243      1.0  0.48438  0.49484  0.66853  1.0000
  H   H963      1.0  0.43301  0.51715  0.53442  1.0000
  C   C606      1.0  0.36551  0.50826  0.76857  1.0000
  Fe  Fe126     1.0  0.44668  0.50708  0.63248  1.0000
  H   H964      1.0  0.37785  0.51627  0.55487  1.0000
  S   S244      1.0  0.45209  0.48760  0.86686  1.0000
  S   S245      1.0  0.00525  0.57431  0.69491  1.0000
  C   C607      1.0  0.41500  0.52381  0.88976  1.0000
  C   C608      1.0  0.06889  0.68954  0.90989  1.0000
  S   S246      1.0  0.11118  0.51070  0.58763  1.0000
  H   H965      1.0  0.22662  0.53703  0.58349  1.0000
  H   H966      1.0  0.48166  0.55624  0.65513  1.0000
  H   H967      1.0  0.37824  0.54176  0.54215  1.0000
  H   H968      1.0  0.22869  0.57342  0.97172  1.0000
  H   H969      1.0  0.40047  0.49235  0.91445  1.0000
  N   N62       1.0  0.14645  0.68538  0.69644  1.0000
  Fe  Fe127     1.0  0.11709  0.68698  0.76058  1.0000
  C   C609      1.0  0.06591  0.48788  0.75197  1.0000
  H   H970      1.0  0.24934  0.49308  0.61773  1.0000
  H   H971      1.0  0.33837  0.51787  0.83145  1.0000
  C   C610      1.0  0.15455  0.69657  0.67652  1.0000
  H   H972      1.0  0.08442  0.67781  0.74227  1.0000
  H   H973      1.0  0.25511  0.51774  0.61274  1.0000
  H   H974      1.0  0.21090  0.62899  0.96234  1.0000
  C   C611      1.0  0.03348  0.65440  0.80131  1.0000
  C   C612      1.0  0.07147  0.51119  0.58758  1.0000
  H   H975      1.0  0.49248  0.70195  0.51181  1.0000
  H   H976      1.0  0.40479  0.55313  0.91111  1.0000
  H   H977      1.0  0.31923  0.49117  0.86272  1.0000
  Fe  Fe128     1.0  0.13892  0.48825  0.59533  1.0000
  S   S247      1.0  0.34639  0.49153  0.55441  1.0000
  C   C613      1.0  0.18920  0.73676  0.79972  1.0000
  H   H978      1.0  0.42259  0.52863  0.50153  1.0000
  S   S248      1.0  0.02865  0.68917  0.88011  1.0000
  C   C614      1.0  0.21629  0.51838  0.63340  1.0000
  S   S249      1.0  0.10426  0.69296  0.79148  1.0000
  S   S250      1.0  0.12293  0.65606  0.75306  1.0000
  Fe  Fe129     1.0  0.08040  0.57559  0.68095  1.0000
  S   S251      1.0  0.08898  0.57619  0.70944  1.0000
  S   S252      1.0  0.10088  0.57522  0.65071  1.0000
  Fe  Fe130     1.0  0.03585  0.57551  0.69993  1.0000
  S   S253      1.0  0.04005  0.57664  0.73020  1.0000
  H   H979      1.0  0.44567  0.49744  0.77300  1.0000
  Fe  Fe131     1.0  0.06000  0.59926  0.71397  1.0000
  S   S254      1.0  0.05570  0.62919  0.72341  1.0000
  Fe  Fe132     1.0  0.06835  0.55368  0.72316  1.0000
  S   S255      1.0  0.05297  0.60025  0.68419  1.0000
  S   S256      1.0  0.06267  0.55089  0.69411  1.0000
  C   C615      1.0  0.02491  0.72061  0.82429  1.0000
  H   H980      1.0  0.47870  0.51720  0.70120  1.0000
  S   S257      1.0  0.26056  0.69219  0.89601  1.0000
  H   H981      1.0  0.37715  0.54617  0.89914  1.0000
  H   H982      1.0  0.19296  0.73100  0.93158  1.0000
  H   H983      1.0  0.26751  0.69304  0.85130  1.0000
  Fe  Fe133     1.0  0.27828  0.53566  0.89270  1.0000
  S   S258      1.0  0.30386  0.52922  0.90879  1.0000
  S   S259      1.0  0.27466  0.51052  0.87969  1.0000
  Fe  Fe134     1.0  0.26749  0.58002  0.89589  1.0000
  S   S260      1.0  0.29254  0.57718  0.91205  1.0000
  S   S261      1.0  0.24448  0.60861  0.88929  1.0000
  Fe  Fe135     1.0  0.31160  0.55805  0.89000  1.0000
  S   S262      1.0  0.34501  0.55735  0.87764  1.0000
  Fe  Fe136     1.0  0.28259  0.54861  0.92934  1.0000
  S   S263      1.0  0.28135  0.53832  0.96222  1.0000
  S   S264      1.0  0.28749  0.56340  0.87211  1.0000
  S   S265      1.0  0.25591  0.55257  0.91507  1.0000
  C   C616      1.0  0.49007  0.71789  0.48204  1.0000
  H   H984      1.0  0.08879  0.50961  0.70866  1.0000
  H   H985      1.0  0.19970  0.52519  0.63635  1.0000
  H   H986      1.0  0.29998  0.50027  0.95166  1.0000
  H   H987      1.0  0.11516  0.69466  0.69317  1.0000
  H   H988      1.0  0.05495  0.65336  0.82886  1.0000
  H   H989      1.0  0.43127  0.51962  0.74488  1.0000
  H   H990      1.0  0.39622  0.53198  0.50042  1.0000
  Fe  Fe137     1.0  0.12244  0.72997  0.74343  1.0000
  C   C617      1.0  0.21315  0.50435  0.60644  1.0000
  H   H991      1.0  0.40422  0.54896  0.51111  1.0000
  H   H992      1.0  0.02705  0.53607  0.64024  1.0000
  H   H993      1.0  0.26114  0.50100  0.92286  1.0000
  C   C618      1.0  0.10498  0.50165  0.70634  1.0000
  C   C619      1.0  0.05128  0.68109  0.78272  1.0000
  H   H994      1.0  0.13463  0.73536  0.88290  1.0000
  H   H995      1.0  0.41437  0.53715  0.54428  1.0000
  H   H996      1.0  0.21791  0.50319  0.64309  1.0000
  H   H997      1.0  0.01018  0.50951  0.74545  1.0000
  H   H998      1.0  0.06347  0.68707  0.89719  1.0000
  H   H999      1.0  0.06898  0.64296  0.77747  1.0000
  Fe  Fe138     1.0  0.12857  0.71131  0.78608  1.0000
  H   H1000     1.0  0.42009  0.49773  0.92383  1.0000
  C   C620      1.0  0.05937  0.50868  0.74709  1.0000
  C   C621      1.0  0.25582  0.66917  0.89396  1.0000
  C   C622      1.0  0.23712  0.66763  0.89069  1.0000
  C   C623      1.0  0.23392  0.64901  0.88902  1.0000
  C   C624      1.0  0.24943  0.63188  0.89044  1.0000
  C   C625      1.0  0.26823  0.63349  0.89340  1.0000
  C   C626      1.0  0.27132  0.65203  0.89538  1.0000
  H   H1001     1.0  0.22503  0.68071  0.88976  1.0000
  H   H1002     1.0  0.21930  0.64783  0.88680  1.0000
  H   H1003     1.0  0.28037  0.62046  0.89428  1.0000
  H   H1004     1.0  0.28587  0.65317  0.89780  1.0000
  C   C627      1.0  0.03936  0.51643  0.74433  1.0000
  H   H1005     1.0  0.03422  0.53249  0.74054  1.0000
  H   H1006     1.0  0.07731  0.67483  0.91659  1.0000
  H   H1007     1.0  0.16334  0.65661  0.69012  1.0000
  C   C628      1.0  0.10461  0.64899  0.74392  1.0000
  C   C629      1.0  0.08694  0.66259  0.73999  1.0000
  C   C630      1.0  0.07221  0.65633  0.73348  1.0000
  C   C631      1.0  0.07512  0.63653  0.73063  1.0000
  C   C632      1.0  0.09301  0.62304  0.73414  1.0000
  C   C633      1.0  0.10770  0.62928  0.74079  1.0000
  H   H1008     1.0  0.05842  0.66682  0.73072  1.0000
  H   H1009     1.0  0.09535  0.60773  0.73206  1.0000
  H   H1010     1.0  0.12134  0.61866  0.74380  1.0000
  C   C634      1.0  0.03451  0.70244  0.85554  1.0000
  C   C635      1.0  0.01937  0.71160  0.84449  1.0000
  H   H1011     1.0  0.05090  0.72843  0.90902  1.0000
  C   C636      1.0  0.06046  0.71234  0.82663  1.0000
  C   C637      1.0  0.05501  0.70298  0.84661  1.0000
  H   H1012     1.0  0.07627  0.71303  0.82005  1.0000
  H   H1013     1.0  0.06677  0.69609  0.85513  1.0000
  H   H1014     1.0  0.48412  0.57930  0.67599  1.0000
  H   H1015     1.0  0.19647  0.51054  0.60894  1.0000
  H   H1016     1.0  0.25686  0.60575  0.92914  1.0000
  C   C638      1.0  0.12501  0.69484  0.70340  1.0000
  C   C639      1.0  0.38139  0.52597  0.53992  1.0000
  H   H1017     1.0  0.24076  0.62901  0.93415  1.0000
  C   C640      1.0  0.49295  0.71322  0.97482  1.0000
  H   H1018     1.0  0.28740  0.67989  0.83448  1.0000
  H   H1019     1.0  0.15333  0.67728  0.72573  1.0000
  C   C641      1.0  0.15158  0.51979  0.64889  1.0000
  C   C642      1.0  0.14545  0.52852  0.66595  1.0000
  C   C643      1.0  0.12958  0.54544  0.66683  1.0000
  C   C644      1.0  0.12055  0.55409  0.65030  1.0000
  C   C645      1.0  0.12714  0.54568  0.63311  1.0000
  C   C646      1.0  0.14226  0.52835  0.63259  1.0000
  H   H1020     1.0  0.15262  0.52199  0.67862  1.0000
  H   H1021     1.0  0.12461  0.55202  0.68012  1.0000
  H   H1022     1.0  0.12034  0.55230  0.62024  1.0000
  H   H1023     1.0  0.14667  0.52176  0.61945  1.0000
  H   H1024     1.0  0.10853  0.49497  0.72137  1.0000
  H   H1025     1.0  0.46943  0.53167  0.72068  1.0000
  H   H1026     1.0  0.11849  0.68677  0.71839  1.0000
  H   H1027     1.0  0.35289  0.51577  0.76058  1.0000
  S   S266      1.0  0.36362  0.51215  0.49697  1.0000
  C   C647      1.0  0.34617  0.53264  0.48742  1.0000
  H   H1028     1.0  0.08674  0.50397  0.67649  1.0000
  H   H1029     1.0  0.35880  0.49969  0.78327  1.0000
  H   H1030     1.0  0.02386  0.68974  0.94364  1.0000
  H   H1031     1.0  0.25267  0.50731  0.59274  1.0000
  H   H1032     1.0  0.27820  0.66661  0.80852  1.0000
  C   C648      1.0  0.49646  0.55865  0.65558  1.0000
  H   H1033     1.0  0.06093  0.54445  0.62972  1.0000
  C   C649      1.0  0.44912  0.49271  0.75881  1.0000
  H   H1034     1.0  0.03171  0.65084  0.78730  1.0000
  S   S267      1.0  0.43761  0.49212  0.81559  1.0000
  C   C650      1.0  0.38991  0.50697  0.73734  1.0000
  C   C651      1.0  0.32006  0.54598  0.95391  1.0000
  C   C652      1.0  0.34025  0.54208  0.95640  1.0000
  H   H1035     1.0  0.39632  0.53797  0.93487  1.0000
  C   C653      1.0  0.44555  0.49946  0.72430  1.0000
  H   H1036     1.0  0.31508  0.55846  0.94274  1.0000
  H   H1037     1.0  0.35065  0.55165  0.94717  1.0000
  C   C654      1.0  0.34878  0.52256  0.83784  1.0000
  C   C655      1.0  0.34107  0.53493  0.85213  1.0000
  C   C656      1.0  0.35444  0.54150  0.86009  1.0000
  C   C657      1.0  0.37553  0.53516  0.85415  1.0000
  C   C658      1.0  0.24625  0.50847  0.60870  1.0000
  H   H1038     1.0  0.32480  0.53964  0.85668  1.0000
  H   H1039     1.0  0.38592  0.54036  0.86008  1.0000
  C   C659      1.0  0.22087  0.53750  0.59968  1.0000
  H   H1040     1.0  0.37045  0.52491  0.53113  1.0000
  H   H1041     1.0  0.02705  0.72407  0.48630  1.0000
  C   C660      1.0  0.30633  0.53402  0.96607  1.0000
  H   H1042     1.0  0.37571  0.52093  0.89903  1.0000
  C   C661      1.0  0.14739  0.66428  0.69532  1.0000
  C   C662      1.0  0.49790  0.57171  0.66738  1.0000
  C   C663      1.0  0.49639  0.71452  0.50021  1.0000
  C   C664      1.0  0.17285  0.72888  0.79801  1.0000
  H   H1043     1.0  0.00349  0.71130  0.85134  1.0000
  C   C665      1.0  0.05535  0.50282  0.58637  1.0000
  H   H1044     1.0  0.04058  0.67817  0.82262  1.0000
  H   H1045     1.0  0.01325  0.72722  0.81559  1.0000
  C   C666      1.0  0.37993  0.53041  0.90744  1.0000
  H   H1046     1.0  0.25037  0.58304  0.97260  1.0000
  H   H1047     1.0  0.17858  0.66165  0.48047  1.0000
  H   H1048     1.0  0.31933  0.52374  0.50767  1.0000
  H   H1049     1.0  0.20432  0.54443  0.60180  1.0000
  H   H1050     1.0  0.25021  0.57361  0.95118  1.0000
  H   H1051     1.0  0.12370  0.71075  0.70460  1.0000
  C   C667      1.0  0.00502  0.56936  0.67167  1.0000
  H   H1052     1.0  0.06828  0.52592  0.59128  1.0000
  H   H1053     1.0  0.25207  0.67200  0.80579  1.0000
  H   H1054     1.0  0.25949  0.65464  0.82720  1.0000
  H   H1055     1.0  0.20512  0.59329  0.94881  1.0000
  H   H1056     1.0  0.11261  0.50718  0.66622  1.0000
  H   H1057     1.0  0.37172  0.52021  0.77182  1.0000
  N   N63       1.0  0.23101  0.60255  0.95331  1.0000
  H   H1058     1.0  0.41183  0.51328  0.88175  1.0000
  H   H1059     1.0  0.37333  0.49220  0.58841  1.0000
  H   H1060     1.0  0.22892  0.54764  0.60353  1.0000
  H   H1061     1.0  0.25780  0.71734  0.82129  1.0000
  H   H1062     1.0  0.42252  0.53274  0.92207  1.0000
  H   H1063     1.0  0.39698  0.51895  0.73928  1.0000
  H   H1064     1.0  0.00033  0.53215  0.70432  1.0000
  Fe  Fe139     1.0  0.45098  0.50772  0.67447  1.0000
  C   C668      1.0  0.32515  0.53468  0.49514  1.0000
  C   C669      1.0  0.01512  0.49036  0.53698  1.0000
  C   C670      1.0  0.10293  0.49594  0.67457  1.0000
  H   H1065     1.0  0.23206  0.70067  0.84705  1.0000
  H   H1066     1.0  0.38402  0.51517  0.60429  1.0000
  H   H1067     1.0  0.07993  0.69988  0.90354  1.0000
  H   H1068     1.0  0.48170  0.54269  0.69635  1.0000
  H   H1069     1.0  0.14143  0.65551  0.71024  1.0000
  C   C671      1.0  0.21815  0.60065  0.94019  1.0000
  C   C672      1.0  0.17067  0.71090  0.83213  1.0000
  H   H1070     1.0  0.03814  0.69293  0.78760  1.0000
  C   C673      1.0  0.41479  0.49842  0.60318  1.0000
  C   C674      1.0  0.16349  0.71596  0.81426  1.0000
  N   N64       1.0  0.38163  0.49503  0.75677  1.0000
  C   C675      1.0  0.34705  0.52564  0.97045  1.0000
  C   C676      1.0  0.38323  0.52215  0.84045  1.0000
  H   H1071     1.0  0.22534  0.69179  0.82816  1.0000
  N   N65       1.0  0.05226  0.66248  0.79804  1.0000
  H   H1072     1.0  0.08465  0.65341  0.78764  1.0000
  S   S268      1.0  0.37939  0.49966  0.81513  1.0000
  C   C677      1.0  0.36986  0.51611  0.83206  1.0000
  C   C678      1.0  0.27105  0.68115  0.84215  1.0000
  H   H1073     1.0  0.48926  0.50645  0.74281  1.0000
  N   N66       1.0  0.22417  0.51717  0.61206  1.0000
  N   N67       1.0  0.40138  0.52372  0.90969  1.0000
  H   H1074     1.0  0.17514  0.67921  0.70571  1.0000
  C   C679      1.0  0.44096  0.50526  0.74287  1.0000
  H   H1075     1.0  0.03988  0.51121  0.58911  1.0000
  C   C680      1.0  0.17027  0.72260  0.95781  1.0000
  H   H1076     1.0  0.41431  0.51158  0.55674  1.0000
  Fe  Fe140     1.0  0.48566  0.51626  0.63924  1.0000
  H   H1077     1.0  0.43136  0.51906  0.89086  1.0000
  H   H1078     1.0  0.03166  0.68046  0.92077  1.0000
  H   H1079     1.0  0.16357  0.70079  0.84470  1.0000
  H   H1080     1.0  0.13801  0.66325  0.68498  1.0000
  C   C681      1.0  0.09156  0.50033  0.58458  1.0000
  H   H1081     1.0  0.06784  0.67346  0.81490  1.0000
  H   H1082     1.0  0.04963  0.67834  0.76834  1.0000
  C   C682      1.0  0.15879  0.68590  0.71061  1.0000
  H   H1083     1.0  0.26938  0.66671  0.85272  1.0000
  C   C683      1.0  0.02575  0.50340  0.74710  1.0000
  H   H1084     1.0  0.21855  0.50306  0.59041  1.0000
  C   C684      1.0  0.24042  0.58231  0.96266  1.0000
  H   H1085     1.0  0.36916  0.52980  0.92219  1.0000
  H   H1086     1.0  0.39954  0.51722  0.83604  1.0000
  H   H1087     1.0  0.01028  0.51193  0.67739  1.0000
  H   H1088     1.0  0.27684  0.70317  0.80472  1.0000
  H   H1089     1.0  0.15800  0.70160  0.71221  1.0000
  N   N68       1.0  0.40276  0.51981  0.52966  1.0000
  C   C685      1.0  0.05399  0.66702  0.81693  1.0000
  C   C686      1.0  0.41673  0.52153  0.54177  1.0000
  C   C687      1.0  0.40621  0.49875  0.52714  1.0000
  H   H1090     1.0  0.22708  0.59146  0.92881  1.0000
  S   S269      1.0  0.00170  0.55740  0.61180  1.0000
  Fe  Fe141     1.0  0.24093  0.72161  0.88483  1.0000
  C   C688      1.0  0.18683  0.71896  0.83389  1.0000
  H   H1091     1.0  0.17075  0.68990  0.67081  1.0000
  S   S270      1.0  0.45256  0.53082  0.64618  1.0000
  N   N69       1.0  0.06742  0.57220  0.61085  1.0000
  C   C689      1.0  0.07413  0.55183  0.62192  1.0000
  C   C690      1.0  0.05414  0.58489  0.62502  1.0000
  C   C691      1.0  0.05596  0.57091  0.59621  1.0000
  C   C692      1.0  0.08550  0.58117  0.60023  1.0000
  H   H1092     1.0  0.08464  0.54201  0.61173  1.0000
  H   H1093     1.0  0.08236  0.55230  0.63345  1.0000
  H   H1094     1.0  0.04926  0.60053  0.61727  1.0000
  H   H1095     1.0  0.04002  0.57898  0.63284  1.0000
  H   H1096     1.0  0.06209  0.58569  0.63669  1.0000
  H   H1097     1.0  0.04989  0.58604  0.58814  1.0000
  H   H1098     1.0  0.04263  0.56352  0.60364  1.0000
  H   H1099     1.0  0.06573  0.56205  0.58487  1.0000
  H   H1100     1.0  0.09415  0.58289  0.61091  1.0000
  H   H1101     1.0  0.08105  0.59633  0.59129  1.0000
  H   H1102     1.0  0.09619  0.57162  0.58990  1.0000
  H   H1103     1.0  0.14556  0.69656  0.66544  1.0000
  S   S271      1.0  0.16840  0.49799  0.59266  1.0000
  H   H1104     1.0  0.49666  0.70312  0.96377  1.0000
  H   H1105     1.0  0.03367  0.64034  0.81278  1.0000
  S   S272      1.0  0.07655  0.52470  0.74405  1.0000
  S   S273      1.0  0.42190  0.51536  0.61415  1.0000
  H   H1106     1.0  0.02749  0.72385  0.92584  1.0000
  C   C693      1.0  0.03743  0.68365  0.93285  1.0000
  C   C694      1.0  0.07025  0.64746  0.79118  1.0000
  H   H1107     1.0  0.04666  0.70669  0.95309  1.0000
  H   H1108     1.0  0.03472  0.71536  0.90257  1.0000
  N   N70       1.0  0.05163  0.69789  0.92479  1.0000
  H   H1109     1.0  0.06530  0.68753  0.77968  1.0000
  C   C695      1.0  0.01678  0.54861  0.64615  1.0000
  H   H1110     1.0  0.23281  0.67430  0.84948  1.0000
  H   H1111     1.0  0.00995  0.49543  0.71301  1.0000
  H   H1112     1.0  0.37786  0.51440  0.72861  1.0000
  C   C696      1.0  0.31161  0.55085  0.48643  1.0000
  H   H1113     1.0  0.25043  0.70872  0.80273  1.0000
  S   S274      1.0  0.43542  0.51572  0.70452  1.0000
  S   S275      1.0  0.14330  0.70251  0.75633  1.0000
  H   H1114     1.0  0.15398  0.71254  0.67710  1.0000
  H   H1115     1.0  0.06816  0.68696  0.94862  1.0000
  C   C697      1.0  0.01852  0.55316  0.66403  1.0000
  H   H1116     1.0  0.07199  0.63354  0.80271  1.0000
  H   H1117     1.0  0.02999  0.54399  0.67209  1.0000
  S   S276      1.0  0.14234  0.70635  0.81339  1.0000
  H   H1118     1.0  0.01414  0.49533  0.55112  1.0000
  Fe  Fe142     1.0  0.08627  0.72133  0.77703  1.0000
  S   S277      1.0  0.47494  0.70207  0.47900  1.0000
  N   N71       1.0  0.25750  0.68571  0.82775  1.0000
  C   C698      1.0  0.26086  0.70449  0.81346  1.0000
  C   C699      1.0  0.23598  0.68819  0.83861  1.0000
  H   H1119     1.0  0.21187  0.61558  0.93182  1.0000
  C   C700      1.0  0.26203  0.66901  0.81680  1.0000
  S   S278      1.0  0.09705  0.71383  0.74634  1.0000
  H   H1120     1.0  0.40439  0.49745  0.77162  1.0000
  C   C701      1.0  0.40650  0.53751  0.91987  1.0000
  H   H1121     1.0  0.01962  0.66540  0.80648  1.0000
  C   C702      1.0  0.05940  0.70112  0.94130  1.0000
  C   C703      1.0  0.04075  0.71723  0.91513  1.0000
  H   H1122     1.0  0.19221  0.71493  0.84771  1.0000
  C   C704      1.0  0.40666  0.53294  0.50981  1.0000
  S   S279      1.0  0.00725  0.49939  0.62587  1.0000
  S   S280      1.0  0.05255  0.72982  0.78946  1.0000
  H   H1123     1.0  0.29533  0.55233  0.49226  1.0000
  H   H1124     1.0  0.39402  0.50264  0.93686  1.0000
  C   C705      1.0  0.00207  0.56071  0.63561  1.0000
  C   C706      1.0  0.24725  0.61357  0.94133  1.0000
  C   C707      1.0  0.27126  0.48795  0.89641  1.0000
  H   H1125     1.0  0.25754  0.61502  0.95059  1.0000
  C   C708      1.0  0.39489  0.50229  0.59965  1.0000
  H   H1126     1.0  0.11452  0.51326  0.69918  1.0000
  H   H1127     1.0  0.04488  0.66908  0.94078  1.0000
  H   H1128     1.0  0.41314  0.53899  0.88013  1.0000
  C   C709      1.0  0.19608  0.73200  0.81772  1.0000
  H   H1129     1.0  0.39616  0.49693  0.51784  1.0000
  C   C710      1.0  0.21828  0.61368  0.96898  1.0000
  H   H1130     1.0  0.02465  0.49960  0.52481  1.0000
  H   H1131     1.0  0.06950  0.71242  0.93604  1.0000
  S   S281      1.0  0.17008  0.49767  0.64816  1.0000
  N   N72       1.0  0.48989  0.73455  0.96487  1.0000
  C   C711      1.0  0.04552  0.72067  0.81524  1.0000
  S   S282      1.0  0.37272  0.52038  0.97243  1.0000
  H   H1132     1.0  0.18085  0.71035  0.96454  1.0000
  S   S283      1.0  0.48017  0.49430  0.62299  1.0000
  C   C712      1.0  0.40409  0.50320  0.92173  1.0000
  H   H1133     1.0  0.40193  0.49738  0.72794  1.0000
  H   H1134     1.0  0.22449  0.52758  0.63839  1.0000
  H   H1135     1.0  0.16743  0.73286  0.78418  1.0000
  H   H1136     1.0  0.47553  0.73034  0.94278  1.0000
  C   C713      1.0  0.00255  0.72841  0.96195  1.0000
  C   C714      1.0  0.38885  0.48941  0.59050  1.0000
  H   H1137     1.0  0.15977  0.73017  0.86785  1.0000
  C   C715      1.0  0.14981  0.72672  0.96776  1.0000
  S   S284      1.0  0.20969  0.72526  0.87863  1.0000
  C   C716      1.0  0.17714  0.73427  0.93917  1.0000
  H   H1138     1.0  0.00580  0.49393  0.50134  1.0000
  H   H1139     1.0  0.42226  0.49340  0.51980  1.0000
  H   H1140     1.0  0.49455  0.54190  0.73471  1.0000
  H   H1141     1.0  0.21513  0.48889  0.61554  1.0000
  Fe  Fe143     1.0  0.00942  0.48953  0.59729  1.0000
  H   H1142     1.0  0.33763  0.48826  0.87764  1.0000
  C   C717      1.0  0.26495  0.48726  0.91702  1.0000
  C   C718      1.0  0.48213  0.52867  0.70777  1.0000
  H   H1143     1.0  0.45820  0.73592  0.96553  1.0000
  C   C719      1.0  0.99983  0.70996  0.97430  1.0000
  Fe  Fe144     1.0  0.35229  0.48830  0.52236  1.0000
  H   H1144     1.0  0.14037  0.48752  0.68434  1.0000
  H   H1145     1.0  0.47217  0.48761  0.89759  1.0000
  H   H1146     1.0  0.49850  0.49124  0.72398  1.0000
  H   H1147     1.0  0.40292  0.48848  0.54176  1.0000
  H   H1148     1.0  0.13717  0.81601  0.25277  1.0000
  C   C720      1.0  0.08097  0.74358  0.11268  1.0000
  S   S285      1.0  0.42641  0.76434  0.41042  1.0000
  C   C721      1.0  0.16668  0.78466  0.30634  1.0000
  Fe  Fe145     1.0  0.45376  0.90873  0.35574  1.0000
  S   S286      1.0  0.42371  0.91391  0.34688  1.0000
  S   S287      1.0  0.46777  0.93582  0.35069  1.0000
  Fe  Fe146     1.0  0.45738  0.86348  0.36619  1.0000
  S   S288      1.0  0.42753  0.86504  0.35815  1.0000
  S   S289      1.0  0.47750  0.83358  0.37488  1.0000
  Fe  Fe147     1.0  0.43797  0.88775  0.33161  1.0000
  S   S290      1.0  0.43349  0.88609  0.30168  1.0000
  Fe  Fe148     1.0  0.41630  0.89091  0.37433  1.0000
  S   S291      1.0  0.38453  0.89509  0.39293  1.0000
  S   S292      1.0  0.46884  0.88432  0.33811  1.0000
  S   S293      1.0  0.44535  0.88767  0.38469  1.0000
  C   C722      1.0  0.48765  0.93399  0.20587  1.0000
  H   H1149     1.0  0.10273  0.74119  0.28373  1.0000
  H   H1150     1.0  0.33762  0.87313  0.37056  1.0000
  H   H1151     1.0  0.00536  0.76538  0.46866  1.0000
  H   H1152     1.0  0.32483  0.91029  0.98147  1.0000
  S   S294      1.0  0.17134  0.74790  0.33069  1.0000
  C   C723      1.0  0.47432  0.96974  0.19959  1.0000
  H   H1153     1.0  0.44600  0.74047  0.47279  1.0000
  H   H1154     1.0  0.09148  0.77118  0.29968  1.0000
  S   S295      1.0  0.29228  0.95403  0.41460  1.0000
  Fe  Fe149     1.0  0.34071  0.96255  0.03253  1.0000
  S   S296      1.0  0.36943  0.94181  0.02082  1.0000
  S   S297      1.0  0.31606  0.94708  0.05369  1.0000
  Fe  Fe150     1.0  0.38590  0.96278  0.02764  1.0000
  S   S298      1.0  0.41121  0.95138  0.04505  1.0000
  H   H1155     1.0  0.12170  0.84437  0.20507  1.0000
  S   S299      1.0  0.20875  0.95034  0.19896  1.0000
  S   S300      1.0  0.05504  0.73751  0.03832  1.0000
  S   S301      1.0  0.24104  0.94058  0.15828  1.0000
  H   H1156     1.0  0.13661  0.89718  0.12772  1.0000
  Fe  Fe151     1.0  0.20715  0.94179  0.17061  1.0000
  S   S302      1.0  0.18596  0.91939  0.17732  1.0000
  Fe  Fe152     1.0  0.24138  0.95238  0.18534  1.0000
  S   S303      1.0  0.26603  0.94101  0.20366  1.0000
  H   H1157     1.0  0.12018  0.76194  0.02203  1.0000
  S   S304      1.0  0.34055  0.92359  0.30356  1.0000
  Fe  Fe153     1.0  0.10082  0.86420  0.12239  1.0000
  S   S305      1.0  0.11493  0.86394  0.14788  1.0000
  S   S306      1.0  0.08197  0.89305  0.10928  1.0000
  Fe  Fe154     1.0  0.12433  0.82258  0.11553  1.0000
  S   S307      1.0  0.14124  0.81957  0.13996  1.0000
  S   S308      1.0  0.13207  0.79638  0.09896  1.0000
  Fe  Fe155     1.0  0.11058  0.83199  0.15740  1.0000
  S   S309      1.0  0.10179  0.81611  0.18923  1.0000
  Fe  Fe156     1.0  0.14423  0.85185  0.12839  1.0000
  S   S310      1.0  0.17248  0.86573  0.12191  1.0000
  S   S311      1.0  0.09340  0.83325  0.13375  1.0000
  S   S312      1.0  0.13037  0.85369  0.10220  1.0000
  C   C724      1.0  0.43791  0.93248  0.26108  1.0000
  S   S313      1.0  0.02986  0.83737  0.31252  1.0000
  H   H1158     1.0  0.14636  0.82917  0.20667  1.0000
  S   S314      1.0  0.06592  0.86438  0.30126  1.0000
  Fe  Fe157     1.0  0.04543  0.85097  0.32896  1.0000
  S   S315      1.0  0.02607  0.86580  0.35435  1.0000
  Fe  Fe158     1.0  0.05256  0.84815  0.28525  1.0000
  S   S316      1.0  0.04598  0.86434  0.25508  1.0000
  H   H1159     1.0  0.15686  0.85772  0.21438  1.0000
  H   H1160     1.0  0.07540  0.87658  0.45171  1.0000
  N   N73       1.0  0.21266  0.97859  0.24751  1.0000
  C   C725      1.0  0.43082  0.96757  0.24597  1.0000
  H   H1161     1.0  0.30306  0.91003  0.36688  1.0000
  H   H1162     1.0  0.45720  0.76052  0.43944  1.0000
  Fe  Fe159     1.0  0.33450  0.95707  0.29397  1.0000
  S   S317      1.0  0.03052  0.80528  0.45614  1.0000
  H   H1163     1.0  0.11094  0.85628  0.25620  1.0000
  C   C726      1.0  0.47085  0.81008  0.33120  1.0000
  S   S318      1.0  0.06935  0.83996  0.42817  1.0000
  H   H1164     1.0  0.14186  0.86941  0.23494  1.0000
  H   H1165     1.0  0.07501  0.74806  0.41005  1.0000
  H   H1166     1.0  0.09456  0.85402  0.45296  1.0000
  C   C727      1.0  0.11083  0.84965  0.24331  1.0000
  Fe  Fe160     1.0  0.08788  0.83519  0.30641  1.0000
  C   C728      1.0  0.03802  0.85845  0.37491  1.0000
  C   C729      1.0  0.05932  0.85476  0.37192  1.0000
  C   C730      1.0  0.06882  0.84921  0.38836  1.0000
  C   C731      1.0  0.05709  0.84688  0.40784  1.0000
  C   C732      1.0  0.03577  0.85023  0.41087  1.0000
  C   C733      1.0  0.02624  0.85629  0.39440  1.0000
  H   H1167     1.0  0.06851  0.85663  0.35692  1.0000
  H   H1168     1.0  0.08531  0.84666  0.38595  1.0000
  H   H1169     1.0  0.02663  0.84849  0.42589  1.0000
  C   C734      1.0  0.43087  0.96346  0.06821  1.0000
  C   C735      1.0  0.06044  0.90255  0.12625  1.0000
  C   C736      1.0  0.05478  0.89142  0.14539  1.0000
  C   C737      1.0  0.03733  0.89916  0.15863  1.0000
  C   C738      1.0  0.02565  0.91815  0.15289  1.0000
  C   C739      1.0  0.03149  0.92936  0.13384  1.0000
  C   C740      1.0  0.04880  0.92153  0.12051  1.0000
  H   H1170     1.0  0.06366  0.87672  0.14987  1.0000
  H   H1171     1.0  0.03282  0.89029  0.17325  1.0000
  C   C741      1.0  0.44061  0.97672  0.07299  1.0000
  H   H1172     1.0  0.43414  0.91734  0.26335  1.0000
  C   C742      1.0  0.08478  0.82983  0.20655  1.0000
  C   C743      1.0  0.07910  0.85075  0.20194  1.0000
  C   C744      1.0  0.06689  0.86136  0.21679  1.0000
  C   C745      1.0  0.06016  0.85104  0.23616  1.0000
  C   C746      1.0  0.06534  0.83011  0.24049  1.0000
  C   C747      1.0  0.07778  0.81956  0.22580  1.0000
  H   H1173     1.0  0.08444  0.85876  0.18709  1.0000
  H   H1174     1.0  0.06315  0.87757  0.21333  1.0000
  H   H1175     1.0  0.05958  0.82198  0.25512  1.0000
  H   H1176     1.0  0.08199  0.80336  0.22935  1.0000
  H   H1177     1.0  0.16333  0.81360  0.28686  1.0000
  C   C748      1.0  0.18243  0.90492  0.16138  1.0000
  C   C749      1.0  0.16634  0.89420  0.16796  1.0000
  C   C750      1.0  0.16312  0.88213  0.15606  1.0000
  C   C751      1.0  0.17613  0.88053  0.13750  1.0000
  C   C752      1.0  0.19220  0.89127  0.13088  1.0000
  C   C753      1.0  0.19529  0.90353  0.14271  1.0000
  H   H1178     1.0  0.15636  0.89522  0.18239  1.0000
  H   H1179     1.0  0.15076  0.87389  0.16135  1.0000
  H   H1180     1.0  0.20238  0.89004  0.11657  1.0000
  H   H1181     1.0  0.20779  0.91161  0.13754  1.0000
  S   S319      1.0  0.48851  0.97267  0.09960  1.0000
  C   C754      1.0  0.27479  0.95763  0.21363  1.0000
  C   C755      1.0  0.28636  0.94986  0.22852  1.0000
  H   H1182     1.0  0.29032  0.93377  0.23337  1.0000
  C   C756      1.0  0.29691  0.95954  0.07085  1.0000
  C   C757      1.0  0.28277  0.94885  0.08459  1.0000
  C   C758      1.0  0.26752  0.95823  0.09874  1.0000
  C   C759      1.0  0.07824  0.77227  0.37398  1.0000
  H   H1183     1.0  0.38407  0.93976  0.37004  1.0000
  H   H1184     1.0  0.12934  0.76797  0.34394  1.0000
  H   H1185     1.0  0.28361  0.93325  0.08426  1.0000
  H   H1186     1.0  0.25661  0.94991  0.10918  1.0000
  H   H1187     1.0  0.35707  0.96182  0.35266  1.0000
  S   S320      1.0  0.36348  0.94876  0.45878  1.0000
  H   H1188     1.0  0.39385  0.89227  0.00255  1.0000
  C   C760      1.0  0.45303  0.97493  0.35426  1.0000
  S   S321      1.0  0.49763  0.79473  0.98477  1.0000
  H   H1189     1.0  0.32120  0.88433  0.39097  1.0000
  C   C761      1.0  0.09433  0.78474  0.05896  1.0000
  C   C762      1.0  0.11144  0.77066  0.06371  1.0000
  C   C763      1.0  0.12279  0.77445  0.07601  1.0000
  C   C764      1.0  0.11707  0.79222  0.08384  1.0000
  C   C765      1.0  0.09986  0.80619  0.07924  1.0000
  C   C766      1.0  0.08864  0.80250  0.06674  1.0000
  H   H1190     1.0  0.11609  0.75698  0.05777  1.0000
  H   H1191     1.0  0.13614  0.76363  0.07947  1.0000
  H   H1192     1.0  0.09533  0.81993  0.08513  1.0000
  H   H1193     1.0  0.07549  0.81353  0.06308  1.0000
  H   H1194     1.0  0.11636  0.73864  0.34019  1.0000
  C   C767      1.0  0.48160  0.93223  0.18888  1.0000
  H   H1195     1.0  0.42418  0.92753  0.23037  1.0000
  H   H1196     1.0  0.02499  0.88122  0.21905  1.0000
  C   C768      1.0  0.35474  0.96436  0.39077  1.0000
  C   C769      1.0  0.13863  0.79380  0.01230  1.0000
  H   H1197     1.0  0.44730  0.96707  0.23922  1.0000
  H   H1198     1.0  0.07242  0.78059  0.36036  1.0000
  C   C770      1.0  0.15724  0.77171  0.32254  1.0000
  H   H1199     1.0  0.11450  0.86979  0.46801  1.0000
  H   H1200     1.0  0.40013  0.95383  0.27314  1.0000
  H   H1201     1.0  0.07570  0.74830  0.07502  1.0000
  N   N74       1.0  0.10636  0.74210  0.31288  1.0000
  C   C771      1.0  0.48428  0.95282  0.21104  1.0000
  S   S322      1.0  0.23388  0.98476  0.17160  1.0000
  H   H1202     1.0  0.41959  0.86294  0.99235  1.0000
  H   H1203     1.0  0.08943  0.75476  0.10185  1.0000
  N   N75       1.0  0.06293  0.77590  0.39233  1.0000
  C   C772      1.0  0.14417  0.82942  0.24534  1.0000
  N   N76       1.0  0.13173  0.84369  0.23184  1.0000
  Fe  Fe161     1.0  0.20114  0.98209  0.18321  1.0000
  C   C773      1.0  0.40810  0.89708  0.30060  1.0000
  C   C774      1.0  0.40010  0.91627  0.30499  1.0000
  C   C775      1.0  0.37959  0.92486  0.30483  1.0000
  C   C776      1.0  0.36682  0.91401  0.30101  1.0000
  C   C777      1.0  0.37483  0.89479  0.29663  1.0000
  C   C778      1.0  0.39557  0.88648  0.29604  1.0000
  H   H1204     1.0  0.40977  0.92453  0.30845  1.0000
  H   H1205     1.0  0.37351  0.93952  0.30853  1.0000
  H   H1206     1.0  0.36498  0.88630  0.29377  1.0000
  H   H1207     1.0  0.40173  0.87158  0.29274  1.0000
  C   C779      1.0  0.37981  0.90896  0.41192  1.0000
  C   C780      1.0  0.35992  0.91288  0.42302  1.0000
  C   C781      1.0  0.35514  0.92494  0.43740  1.0000
  C   C782      1.0  0.37023  0.93284  0.44123  1.0000
  C   C783      1.0  0.39035  0.92861  0.43044  1.0000
  C   C784      1.0  0.39513  0.91673  0.41568  1.0000
  H   H1208     1.0  0.34806  0.90656  0.42061  1.0000
  H   H1209     1.0  0.01406  0.80040  0.31732  1.0000
  H   H1210     1.0  0.41059  0.91367  0.40722  1.0000
  C   C785      1.0  0.45204  0.95487  0.36294  1.0000
  C   C786      1.0  0.43897  0.95028  0.38143  1.0000
  C   C787      1.0  0.42742  0.96577  0.39151  1.0000
  C   C788      1.0  0.26988  0.97843  0.20746  1.0000
  H   H1211     1.0  0.09263  0.77720  0.37339  1.0000
  C   C789      1.0  0.39963  0.90146  0.98787  1.0000
  H   H1212     1.0  0.43830  0.93478  0.38826  1.0000
  H   H1213     1.0  0.41777  0.96215  0.40606  1.0000
  H   H1214     1.0  0.22441  0.94843  0.26127  1.0000
  C   C790      1.0  0.42845  0.94230  0.22890  1.0000
  H   H1215     1.0  0.10998  0.80121  0.33105  1.0000
  C   C791      1.0  0.01070  0.78783  0.32910  1.0000
  C   C792      1.0  0.14104  0.86168  0.22312  1.0000
  H   H1216     1.0  0.08211  0.75602  0.37307  1.0000
  H   H1217     1.0  0.31735  0.92510  0.34627  1.0000
  C   C793      1.0  0.31799  0.90998  0.35613  1.0000
  Fe  Fe162     1.0  0.05470  0.81050  0.31738  1.0000
  C   C794      1.0  0.44101  0.78323  0.40063  1.0000
  C   C795      1.0  0.46228  0.77862  0.39463  1.0000
  C   C796      1.0  0.47354  0.79412  0.38736  1.0000
  C   C797      1.0  0.46352  0.81426  0.38580  1.0000
  C   C798      1.0  0.44232  0.81880  0.39213  1.0000
  C   C799      1.0  0.43109  0.80333  0.39945  1.0000
  H   H1218     1.0  0.47005  0.76315  0.39535  1.0000
  H   H1219     1.0  0.13463  0.75026  0.00145  1.0000
  H   H1220     1.0  0.43451  0.83423  0.39152  1.0000
  H   H1221     1.0  0.41466  0.80697  0.40422  1.0000
  H   H1222     1.0  0.28846  0.93117  0.16333  1.0000
  H   H1223     1.0  0.16469  0.91275  0.10429  1.0000
  C   C800      1.0  0.10308  0.76426  0.30907  1.0000
  C   C801      1.0  0.13675  0.77777  0.33147  1.0000
  C   C802      1.0  0.30631  0.94280  0.12462  1.0000
  C   C803      1.0  0.13528  0.80957  0.30796  1.0000
  C   C804      1.0  0.15284  0.92574  0.09948  1.0000
  H   H1224     1.0  0.11485  0.94840  0.10345  1.0000
  H   H1225     1.0  0.09738  0.77010  0.32326  1.0000
  N   N77       1.0  0.33517  0.90504  0.36657  1.0000
  C   C805      1.0  0.33558  0.88494  0.37947  1.0000
  C   C806      1.0  0.35457  0.90513  0.35167  1.0000
  C   C807      1.0  0.33266  0.92018  0.37894  1.0000
  N   N78       1.0  0.13806  0.78054  0.99899  1.0000
  C   C808      1.0  0.11136  0.75303  0.45947  1.0000
  H   H1226     1.0  0.34846  0.88088  0.38750  1.0000
  H   H1227     1.0  0.13205  0.87273  0.21279  1.0000
  H   H1228     1.0  0.35493  0.92024  0.34210  1.0000
  H   H1229     1.0  0.36801  0.90096  0.35884  1.0000
  H   H1230     1.0  0.10111  0.86090  0.23381  1.0000
  H   H1231     1.0  0.33217  0.93551  0.36969  1.0000
  H   H1232     1.0  0.34554  0.91705  0.38669  1.0000
  H   H1233     1.0  0.31832  0.92039  0.39064  1.0000
  H   H1234     1.0  0.40216  0.93462  0.43336  1.0000
  H   H1235     1.0  0.02173  0.90551  0.20316  1.0000
  H   H1236     1.0  0.44472  0.94115  0.22107  1.0000
  C   C809      1.0  0.36196  0.97507  0.35490  1.0000
  S   S323      1.0  0.06878  0.82330  0.33564  1.0000
  C   C810      1.0  0.46947  0.96818  0.18195  1.0000
  S   S324      1.0  0.12181  0.83311  0.29829  1.0000
  C   C811      1.0  0.05815  0.79760  0.39294  1.0000
  H   H1237     1.0  0.31946  0.93007  0.12281  1.0000
  Fe  Fe163     1.0  0.47606  0.97559  0.13150  1.0000
  C   C812      1.0  0.11812  0.93657  0.09431  1.0000
  H   H1238     1.0  0.14554  0.83647  0.25746  1.0000
  C   C813      1.0  0.29243  0.96281  0.23759  1.0000
  H   H1239     1.0  0.00151  0.87540  0.25238  1.0000
  H   H1240     1.0  0.48965  0.74674  0.33375  1.0000
  S   S325      1.0  0.07600  0.81978  0.28866  1.0000
  H   H1241     1.0  0.18253  0.78008  0.29941  1.0000
  N   N79       1.0  0.13346  0.91925  0.10118  1.0000
  C   C814      1.0  0.32468  0.95914  0.13903  1.0000
  C   C815      1.0  0.29564  0.97107  0.39184  1.0000
  H   H1242     1.0  0.36052  0.96112  0.40484  1.0000
  H   H1243     1.0  0.14732  0.75350  0.01941  1.0000
  H   H1244     1.0  0.46853  0.79424  0.33552  1.0000
  H   H1245     1.0  0.39858  0.93431  0.26122  1.0000
  N   N80       1.0  0.49216  0.81133  0.32086  1.0000
  N   N81       1.0  0.43829  0.77266  0.46475  1.0000
  C   C816      1.0  0.00196  0.75502  0.35929  1.0000
  H   H1246     1.0  0.29216  0.93692  0.12639  1.0000
  H   H1247     1.0  0.38660  0.91348  0.98403  1.0000
  C   C817      1.0  0.01959  0.89758  0.21902  1.0000
  H   H1248     1.0  0.06849  0.85300  0.46447  1.0000
  H   H1249     1.0  0.26128  0.98466  0.19585  1.0000
  H   H1250     1.0  0.41129  0.90898  0.98989  1.0000
  H   H1251     1.0  0.49133  0.83879  0.33010  1.0000
  H   H1252     1.0  0.02256  0.94396  0.12926  1.0000
  H   H1253     1.0  0.00599  0.89730  0.25819  1.0000
  H   H1254     1.0  0.41921  0.95368  0.21903  1.0000
  Fe  Fe164     1.0  0.36845  0.96281  0.99136  1.0000
  C   C818      1.0  0.12569  0.91063  0.12225  1.0000
  H   H1255     1.0  0.40591  0.77323  0.47137  1.0000
  H   H1256     1.0  0.02986  0.90231  0.22620  1.0000
  H   H1257     1.0  0.43567  0.93607  0.27615  1.0000
  H   H1258     1.0  0.42046  0.75907  0.45262  1.0000
  H   H1259     1.0  0.34989  0.95055  0.38997  1.0000
  H   H1260     1.0  0.43187  0.80461  0.46310  1.0000
  H   H1261     1.0  0.40060  0.95762  0.35839  1.0000
  C   C819      1.0  0.00434  0.92037  0.36265  1.0000
  H   H1262     1.0  0.05162  0.80670  0.37993  1.0000
  H   H1263     1.0  0.27345  0.96396  0.14475  1.0000
  C   C820      1.0  0.41926  0.77278  0.45863  1.0000
  Fe  Fe165     1.0  0.29673  0.96566  0.44006  1.0000
  C   C821      1.0  0.26620  0.97844  0.09903  1.0000
  C   C822      1.0  0.42313  0.96849  0.05067  1.0000
  H   H1264     1.0  0.48997  0.79047  0.38272  1.0000
  S   S326      1.0  0.30442  0.94425  0.46757  1.0000
  H   H1265     1.0  0.01288  0.93161  0.35211  1.0000
  H   H1266     1.0  0.39511  0.94989  0.38497  1.0000
  H   H1267     1.0  0.17073  0.77136  0.99164  1.0000
  H   H1268     1.0  0.12309  0.75988  0.46138  1.0000
  H   H1269     1.0  0.49593  0.95766  0.03628  1.0000
  H   H1270     1.0  0.04687  0.80088  0.40673  1.0000
  C   C823      1.0  0.29664  0.96480  0.37410  1.0000
  H   H1271     1.0  0.49467  0.92076  0.21508  1.0000
  H   H1272     1.0  0.48397  0.84220  0.30667  1.0000
  N   N82       1.0  0.30554  0.95182  0.14184  1.0000
  H   H1273     1.0  0.10603  0.79120  0.99926  1.0000
  H   H1274     1.0  0.30299  0.94269  0.17363  1.0000
  N   N83       1.0  0.37047  0.97034  0.37312  1.0000
  H   H1275     1.0  0.09544  0.89239  0.46644  1.0000
  S   S327      1.0  0.46948  0.94773  0.15340  1.0000
  H   H1276     1.0  0.05310  0.93013  0.10568  1.0000
  C   C824      1.0  0.28805  0.96882  0.14333  1.0000
  C   C825      1.0  0.15756  0.77809  0.98420  1.0000
  C   C826      1.0  0.38831  0.95369  0.37150  1.0000
  H   H1277     1.0  0.19295  0.96742  0.23527  1.0000
  N   N84       1.0  0.42514  0.94784  0.24863  1.0000
  H   H1278     1.0  0.49504  0.78754  0.30518  1.0000
  C   C827      1.0  0.45523  0.77334  0.44704  1.0000
  H   H1279     1.0  0.41584  0.78590  0.44659  1.0000
  H   H1280     1.0  0.22013  0.98660  0.21550  1.0000
  H   H1281     1.0  0.33819  0.94666  0.13799  1.0000
  H   H1282     1.0  0.08547  0.76911  0.41050  1.0000
  H   H1283     1.0  0.45984  0.81873  0.32165  1.0000
  C   C828      1.0  0.19259  0.97397  0.24832  1.0000
  Fe  Fe166     1.0  0.23158  0.97329  0.14519  1.0000
  H   H1284     1.0  0.48180  0.98303  0.03296  1.0000
  H   H1285     1.0  0.48419  0.91767  0.18484  1.0000
  H   H1286     1.0  0.00055  0.93017  0.23488  1.0000
  S   S328      1.0  0.08974  0.75152  0.99983  1.0000
  C   C829      1.0  0.02204  0.75824  0.35250  1.0000
  H   H1287     1.0  0.45447  0.93131  0.25411  1.0000
  H   H1288     1.0  0.22997  0.95313  0.23447  1.0000
  H   H1289     1.0  0.12392  0.79622  0.02334  1.0000
  H   H1290     1.0  0.12374  0.82046  0.22156  1.0000
  C   C830      1.0  0.02641  0.77473  0.33756  1.0000
  H   H1291     1.0  0.05195  0.74677  0.09243  1.0000
  H   H1292     1.0  0.32450  0.96618  0.15173  1.0000
  H   H1293     1.0  0.12324  0.92155  0.13222  1.0000
  H   H1294     1.0  0.48691  0.81239  0.29176  1.0000
  H   H1295     1.0  0.14861  0.89056  0.09354  1.0000
  H   H1296     1.0  0.14305  0.90985  0.07272  1.0000
  H   H1297     1.0  0.12289  0.89856  0.08972  1.0000
  S   S329      1.0  0.05168  0.77847  0.32973  1.0000
  C   C831      1.0  0.47333  0.94945  0.17647  1.0000
  C   C832      1.0  0.15581  0.80361  0.29921  1.0000
  C   C833      1.0  0.13088  0.83400  0.21561  1.0000
  S   S330      1.0  0.35727  0.98184  0.04148  1.0000
  H   H1298     1.0  0.18781  0.96303  0.26207  1.0000
  H   H1299     1.0  0.03764  0.77736  0.37899  1.0000
  H   H1300     1.0  0.10338  0.93189  0.09551  1.0000
  H   H1301     1.0  0.03217  0.77171  0.40587  1.0000
  H   H1302     1.0  0.06012  0.76686  0.42420  1.0000
  C   C834      1.0  0.09144  0.75716  0.47066  1.0000
  H   H1303     1.0  0.07205  0.80324  0.39270  1.0000
  H   H1304     1.0  0.32701  0.97058  0.12506  1.0000
  H   H1305     1.0  0.46658  0.81636  0.34512  1.0000
  C   C835      1.0  0.04415  0.76919  0.39231  1.0000
  C   C836      1.0  0.13716  0.90391  0.08872  1.0000
  H   H1306     1.0  0.20740  0.97682  0.27924  1.0000
  H   H1307     1.0  0.10312  0.83653  0.24949  1.0000
  Fe  Fe167     1.0  0.04987  0.82659  0.45654  1.0000
  H   H1308     1.0  0.44616  0.97284  0.08674  1.0000
  H   H1309     1.0  0.11746  0.76981  0.30133  1.0000
  H   H1310     1.0  0.00976  0.85905  0.39678  1.0000
  H   H1311     1.0  0.15084  0.93693  0.10906  1.0000
  H   H1312     1.0  0.12338  0.94344  0.07842  1.0000
  H   H1313     1.0  0.30105  0.95668  0.24927  1.0000
  C   C837      1.0  0.07122  0.76449  0.41003  1.0000
  H   H1314     1.0  0.35672  0.89428  0.34166  1.0000
  H   H1315     1.0  0.42912  0.94933  0.07826  1.0000
  S   S331      1.0  0.08013  0.78118  0.04276  1.0000
  H   H1316     1.0  0.28948  0.98088  0.12978  1.0000
  C   C838      1.0  0.13494  0.76069  0.01103  1.0000
  H   H1317     1.0  0.48595  0.97022  0.05718  1.0000
  H   H1318     1.0  0.33975  0.92777  0.44574  1.0000
  H   H1319     1.0  0.39331  0.96026  0.24927  1.0000
  H   H1320     1.0  0.38495  0.87093  0.98387  1.0000
  H   H1321     1.0  0.43747  0.87933  0.98019  1.0000
  C   C839      1.0  0.12573  0.79661  0.32408  1.0000
  Fe  Fe168     1.0  0.08231  0.75206  0.03255  1.0000
  H   H1322     1.0  0.24355  0.96285  0.24753  1.0000
  H   H1323     1.0  0.14135  0.80884  0.00374  1.0000
  H   H1324     1.0  0.15910  0.93252  0.08381  1.0000
  H   H1325     1.0  0.04723  0.75286  0.39190  1.0000
  H   H1326     1.0  0.11088  0.90590  0.12418  1.0000
  H   H1327     1.0  0.31959  0.89907  0.34633  1.0000
  H   H1328     1.0  0.29425  0.94992  0.37464  1.0000
  H   H1329     1.0  0.49530  0.95196  0.31725  1.0000
  S   S332      1.0  0.49256  0.95550  0.23162  1.0000
  H   H1330     1.0  0.15990  0.82413  0.23718  1.0000
  C   C840      1.0  0.40335  0.94904  0.25849  1.0000
  S   S333      1.0  0.34412  0.97048  0.26167  1.0000
  C   C841      1.0  0.29568  0.97973  0.07124  1.0000
  H   H1331     1.0  0.42193  0.97941  0.23612  1.0000
  H   H1332     1.0  0.15090  0.78727  0.02098  1.0000
  C   C842      1.0  0.08044  0.86218  0.46158  1.0000
  H   H1333     1.0  0.31571  0.92320  0.15962  1.0000
  H   H1334     1.0  0.34082  0.97634  0.39217  1.0000
  H   H1335     1.0  0.49859  0.74436  0.98773  1.0000
  H   H1336     1.0  0.01458  0.90537  0.36263  1.0000
  C   C843      1.0  0.22830  0.95994  0.24773  1.0000
  H   H1337     1.0  0.06598  0.75211  0.11940  1.0000
  H   H1338     1.0  0.46996  0.77272  0.45112  1.0000
  H   H1339     1.0  0.34377  0.93378  0.98712  1.0000
  C   C844      1.0  0.12102  0.78946  0.98849  1.0000
  Fe  Fe169     1.0  0.32979  0.96126  0.46244  1.0000
  C   C845      1.0  0.49461  0.83253  0.31621  1.0000
  S   S334      1.0  0.33857  0.98231  0.00242  1.0000
  S   S335      1.0  0.38782  0.98184  0.99702  1.0000
  C   C846      1.0  0.30312  0.93654  0.16037  1.0000
  H   H1340     1.0  0.03417  0.74806  0.35898  1.0000
  H   H1341     1.0  0.30147  0.97280  0.34200  1.0000
  H   H1342     1.0  0.30782  0.95400  0.11040  1.0000
  H   H1343     1.0  0.46305  0.97854  0.33993  1.0000
  S   S336      1.0  0.19768  0.97384  0.15553  1.0000
  H   H1344     1.0  0.42775  0.97257  0.26051  1.0000
  C   C847      1.0  0.49324  0.97236  0.04099  1.0000
  H   H1345     1.0  0.45237  0.78736  0.43583  1.0000
  C   C848      1.0  0.07624  0.74830  0.46834  1.0000
  H   H1346     1.0  0.12863  0.73966  0.28562  1.0000
  C   C849      1.0  0.11605  0.74036  0.44562  1.0000
  H   H1347     1.0  0.28648  0.97556  0.15660  1.0000
  H   H1348     1.0  0.07493  0.74157  0.31412  1.0000
  C   C850      1.0  0.06712  0.73787  0.08672  1.0000
  H   H1349     1.0  0.47164  0.74526  0.99131  1.0000
  S   S337      1.0  0.04477  0.74472  0.98270  1.0000
  C   C851      1.0  0.43565  0.79040  0.47381  1.0000
  H   H1350     1.0  0.12021  0.77988  0.97823  1.0000
  C   C852      1.0  0.30061  0.97777  0.35565  1.0000
  S   S338      1.0  0.00383  0.92744  0.16978  1.0000
  H   H1351     1.0  0.46269  0.98147  0.17258  1.0000
  H   H1352     1.0  0.47075  0.98415  0.20405  1.0000
  S   S339      1.0  0.12778  0.73904  0.37904  1.0000
  H   H1353     1.0  0.38310  0.98523  0.38923  1.0000
  C   C853      1.0  0.42567  0.98667  0.03764  1.0000
  H   H1354     1.0  0.08075  0.74068  0.33770  1.0000
  H   H1355     1.0  0.13656  0.73827  0.31837  1.0000
  H   H1356     1.0  0.38593  0.98542  0.43082  1.0000
  S   S340      1.0  0.34814  0.97701  0.30534  1.0000
  S   S341      1.0  0.30291  0.97589  0.29799  1.0000
  C   C854      1.0  0.49697  0.80346  0.30215  1.0000
  S   S342      1.0  0.32286  0.98141  0.43421  1.0000
  H   H1357     1.0  0.00149  0.92364  0.37793  1.0000
  C   C855      1.0  0.28706  0.98364  0.23170  1.0000
  H   H1358     1.0  0.38777  0.97885  0.46619  1.0000
  S   S343      1.0  0.02548  0.84429  0.47669  1.0000
  C   C856      1.0  0.48574  0.74747  0.97985  1.0000
  C   C857      1.0  0.09972  0.87754  0.47602  1.0000
  H   H1359     1.0  0.37340  0.97979  0.34130  1.0000
  H   H1360     1.0  0.12271  0.80458  0.97940  1.0000
  H   H1361     1.0  0.36071  0.98621  0.47358  1.0000
  C   C858      1.0  0.42846  0.98585  0.38282  1.0000
  C   C859      1.0  0.42493  0.87303  0.97812  1.0000
  H   H1362     1.0  0.12689  0.79062  0.86483  1.0000
  Fe  Fe170     1.0  0.03847  0.82302  0.50195  1.0000
  Fe  Fe171     1.0  0.28534  0.96824  0.48439  1.0000
  H   H1363     1.0  0.04890  0.91070  0.65667  1.0000
  S   S344      1.0  0.35261  0.94868  0.77863  1.0000
  C   C860      1.0  0.36269  0.81172  0.88771  1.0000
  H   H1364     1.0  0.39749  0.79371  0.86633  1.0000
  H   H1365     1.0  0.00153  0.92516  0.63662  1.0000
  C   C861      1.0  0.04810  0.87374  0.67891  1.0000
  H   H1366     1.0  0.43023  0.75263  0.49264  1.0000
  H   H1367     1.0  0.13240  0.77355  0.83623  1.0000
  H   H1368     1.0  0.00737  0.91202  0.68534  1.0000
  H   H1369     1.0  0.00983  0.96365  0.54843  1.0000
  H   H1370     1.0  0.02812  0.90598  0.71130  1.0000
  N   N85       1.0  0.08369  0.86542  0.48045  1.0000
  S   S345      1.0  0.21318  0.77279  0.86076  1.0000
  C   C862      1.0  0.40910  0.92657  0.81937  1.0000
  Fe  Fe172     1.0  0.24401  0.76573  0.86874  1.0000
  S   S346      1.0  0.26273  0.79059  0.85877  1.0000
  H   H1371     1.0  0.29955  0.95071  0.56283  1.0000
  Fe  Fe173     1.0  0.31730  0.85133  0.90290  1.0000
  S   S347      1.0  0.32952  0.86391  0.87093  1.0000
  S   S348      1.0  0.30401  0.82296  0.91317  1.0000
  Fe  Fe174     1.0  0.32813  0.88456  0.91837  1.0000
  S   S349      1.0  0.34087  0.89998  0.88747  1.0000
  S   S350      1.0  0.32615  0.89398  0.94755  1.0000
  Fe  Fe175     1.0  0.31392  0.89377  0.87915  1.0000
  S   S351      1.0  0.29511  0.91692  0.85961  1.0000
  Fe  Fe176     1.0  0.35520  0.86878  0.88223  1.0000
  S   S352      1.0  0.38754  0.85991  0.86636  1.0000
  S   S353      1.0  0.29967  0.88095  0.91050  1.0000
  S   S354      1.0  0.34452  0.85362  0.91371  1.0000
  S   S355      1.0  0.44375  0.85596  0.92588  1.0000
  N   N86       1.0  0.32109  0.94474  0.73523  1.0000
  S   S356      1.0  0.47764  0.95886  0.72969  1.0000
  H   H1372     1.0  0.39859  0.80309  0.91577  1.0000
  Fe  Fe177     1.0  0.20338  0.95634  0.65009  1.0000
  Fe  Fe178     1.0  0.10201  0.85158  0.59969  1.0000
  S   S357      1.0  0.07598  0.85048  0.62598  1.0000
  S   S358      1.0  0.10604  0.83029  0.57829  1.0000
  Fe  Fe179     1.0  0.11767  0.88242  0.61367  1.0000
  S   S359      1.0  0.09240  0.88351  0.64097  1.0000
  S   S360      1.0  0.14137  0.90269  0.60421  1.0000
  Fe  Fe180     1.0  0.09810  0.84988  0.64457  1.0000
  S   S361      1.0  0.09024  0.83174  0.67586  1.0000
  Fe  Fe181     1.0  0.07207  0.88380  0.62056  1.0000
  S   S362      1.0  0.03873  0.89779  0.62623  1.0000
  S   S363      1.0  0.12507  0.84846  0.61867  1.0000
  S   S364      1.0  0.09658  0.88531  0.59266  1.0000
  S   S365      1.0  0.17911  0.93684  0.66029  1.0000
  C   C863      1.0  0.15054  0.91288  0.62030  1.0000
  C   C864      1.0  0.14721  0.90581  0.64094  1.0000
  C   C865      1.0  0.15583  0.91351  0.65301  1.0000
  C   C866      1.0  0.16781  0.92834  0.64460  1.0000
  C   C867      1.0  0.17065  0.93585  0.62403  1.0000
  C   C868      1.0  0.16217  0.92804  0.61195  1.0000
  H   H1373     1.0  0.13833  0.89413  0.64756  1.0000
  H   H1374     1.0  0.15346  0.90767  0.66892  1.0000
  H   H1375     1.0  0.47322  0.97542  0.68224  1.0000
  H   H1376     1.0  0.16459  0.93375  0.59602  1.0000
  C   C869      1.0  0.08735  0.83249  0.56417  1.0000
  N   N87       1.0  0.38142  0.80083  0.89499  1.0000
  C   C870      1.0  0.07535  0.82003  0.54029  1.0000
  C   C871      1.0  0.08997  0.81866  0.55166  1.0000
  N   N88       1.0  0.03708  0.89304  0.68485  1.0000
  H   H1377     1.0  0.07749  0.80923  0.53082  1.0000
  H   H1378     1.0  0.10337  0.80683  0.55078  1.0000
  H   H1379     1.0  0.09309  0.84765  0.50719  1.0000
  C   C872      1.0  0.03240  0.92395  0.61958  1.0000
  C   C873      1.0  0.04669  0.93507  0.60708  1.0000
  C   C874      1.0  0.04098  0.95597  0.60151  1.0000
  H   H1380     1.0  0.39746  0.92381  0.85930  1.0000
  H   H1381     1.0  0.06200  0.92754  0.60137  1.0000
  H   H1382     1.0  0.05191  0.96455  0.59149  1.0000
  C   C875      1.0  0.31065  0.92577  0.83681  1.0000
  C   C876      1.0  0.30622  0.94587  0.82732  1.0000
  C   C877      1.0  0.05802  0.83536  0.54123  1.0000
  C   C878      1.0  0.41587  0.90191  0.95314  1.0000
  C   C879      1.0  0.33989  0.91987  0.80983  1.0000
  C   C880      1.0  0.32755  0.91279  0.82807  1.0000
  H   H1383     1.0  0.29320  0.95598  0.83409  1.0000
  Fe  Fe182     1.0  0.20316  0.75377  0.89057  1.0000
  H   H1384     1.0  0.07813  0.83652  0.49701  1.0000
  H   H1385     1.0  0.33090  0.89721  0.83516  1.0000
  C   C881      1.0  0.33966  0.91129  0.95050  1.0000
  C   C882      1.0  0.35418  0.91949  0.93485  1.0000
  C   C883      1.0  0.36494  0.93284  0.93809  1.0000
  C   C884      1.0  0.36128  0.93804  0.95695  1.0000
  H   H1386     1.0  0.35972  0.80453  0.87650  1.0000
  C   C885      1.0  0.14885  0.74143  0.87605  1.0000
  H   H1387     1.0  0.35717  0.91544  0.92035  1.0000
  H   H1388     1.0  0.37625  0.93900  0.92598  1.0000
  H   H1389     1.0  0.35265  0.90967  0.80290  1.0000
  H   H1390     1.0  0.31934  0.96018  0.75876  1.0000
  C   C886      1.0  0.40364  0.85940  0.88220  1.0000
  C   C887      1.0  0.39636  0.86980  0.89804  1.0000
  C   C888      1.0  0.40895  0.86898  0.91110  1.0000
  C   C889      1.0  0.42866  0.85727  0.90876  1.0000
  C   C890      1.0  0.43591  0.84675  0.89297  1.0000
  C   C891      1.0  0.42349  0.84802  0.87952  1.0000
  H   H1391     1.0  0.38103  0.87857  0.90026  1.0000
  H   H1392     1.0  0.40329  0.87731  0.92312  1.0000
  H   H1393     1.0  0.45113  0.83776  0.89103  1.0000
  H   H1394     1.0  0.42919  0.83996  0.86727  1.0000
  C   C892      1.0  0.29311  0.81369  0.89779  1.0000
  C   C893      1.0  0.28130  0.79876  0.90646  1.0000
  C   C894      1.0  0.27197  0.79141  0.89473  1.0000
  C   C895      1.0  0.27444  0.79892  0.87419  1.0000
  C   C896      1.0  0.28637  0.81377  0.86551  1.0000
  C   C897      1.0  0.29574  0.82108  0.87723  1.0000
  H   H1395     1.0  0.27924  0.79290  0.92236  1.0000
  H   H1396     1.0  0.26285  0.77996  0.90158  1.0000
  H   H1397     1.0  0.28849  0.81952  0.84960  1.0000
  H   H1398     1.0  0.30503  0.83233  0.87032  1.0000
  C   C898      1.0  0.12319  0.76952  0.70232  1.0000
  C   C899      1.0  0.13241  0.78006  0.68394  1.0000
  C   C900      1.0  0.12262  0.79923  0.67566  1.0000
  C   C901      1.0  0.10341  0.80785  0.68560  1.0000
  C   C902      1.0  0.09417  0.79723  0.70388  1.0000
  C   C903      1.0  0.10400  0.77815  0.71223  1.0000
  H   H1399     1.0  0.14738  0.77356  0.67633  1.0000
  H   H1400     1.0  0.13014  0.80752  0.66187  1.0000
  H   H1401     1.0  0.07935  0.80382  0.71172  1.0000
  H   H1402     1.0  0.09677  0.77018  0.72640  1.0000
  S   S366      1.0  0.49325  0.82174  0.89638  1.0000
  C   C904      1.0  0.00707  0.95467  0.62181  1.0000
  S   S367      1.0  0.24091  0.97549  0.69445  1.0000
  C   C905      1.0  0.33603  0.91657  0.96930  1.0000
  N   N89       1.0  0.39134  0.91856  0.83264  1.0000
  C   C906      1.0  0.01607  0.89741  0.68132  1.0000
  S   S368      1.0  0.47079  0.80132  0.94129  1.0000
  H   H1403     1.0  0.48370  0.76367  0.97274  1.0000
  C   C907      1.0  0.33588  0.94011  0.80066  1.0000
  H   H1404     1.0  0.08103  0.76517  0.65415  1.0000
  Fe  Fe183     1.0  0.00716  0.82110  0.47847  1.0000
  H   H1405     1.0  0.04201  0.86096  0.55472  1.0000
  H   H1406     1.0  0.37700  0.77194  0.89309  1.0000
  S   S369      1.0  0.06458  0.80714  0.48135  1.0000
  H   H1407     1.0  0.31589  0.96880  0.80251  1.0000
  S   S370      1.0  0.23617  0.94591  0.65333  1.0000
  H   H1408     1.0  0.13250  0.96546  0.65468  1.0000
  C   C908      1.0  0.28228  0.95794  0.53956  1.0000
  H   H1409     1.0  0.17948  0.94753  0.61740  1.0000
  C   C909      1.0  0.26282  0.96374  0.53511  1.0000
  N   N90       1.0  0.14477  0.76112  0.86270  1.0000
  N   N91       1.0  0.40805  0.88911  0.97219  1.0000
  S   S371      1.0  0.03937  0.83845  0.52682  1.0000
  S   S372      1.0  0.01791  0.80112  0.50533  1.0000
  H   H1410     1.0  0.35152  0.94503  0.73760  1.0000
  H   H1411     1.0  0.17052  0.77119  0.86616  1.0000
  C   C910      1.0  0.38828  0.90161  0.82525  1.0000
  H   H1412     1.0  0.35741  0.98413  0.92980  1.0000
  H   H1413     1.0  0.31623  0.93386  0.71097  1.0000
  H   H1414     1.0  0.42220  0.89309  0.94094  1.0000
  H   H1415     1.0  0.34897  0.81215  0.90014  1.0000
  C   C911      1.0  0.37929  0.77987  0.90411  1.0000
  C   C912      1.0  0.30989  0.94637  0.71938  1.0000
  H   H1416     1.0  0.32833  0.92392  0.76145  1.0000
  C   C913      1.0  0.05541  0.84910  0.55380  1.0000
  N   N92       1.0  0.25389  0.87569  0.87966  1.0000
  C   C914      1.0  0.25587  0.85897  0.89689  1.0000
  C   C915      1.0  0.25082  0.89504  0.88616  1.0000
  C   C916      1.0  0.23624  0.87525  0.87157  1.0000
  C   C917      1.0  0.27267  0.87351  0.86397  1.0000
  H   H1417     1.0  0.24235  0.86053  0.90938  1.0000
  H   H1418     1.0  0.26960  0.85820  0.90286  1.0000
  H   H1419     1.0  0.25738  0.84420  0.89268  1.0000
  H   H1420     1.0  0.24967  0.90798  0.87345  1.0000
  H   H1421     1.0  0.23675  0.89735  0.89794  1.0000
  H   H1422     1.0  0.26389  0.89585  0.89233  1.0000
  H   H1423     1.0  0.22179  0.87680  0.88303  1.0000
  H   H1424     1.0  0.23816  0.86082  0.86649  1.0000
  H   H1425     1.0  0.23433  0.88765  0.85853  1.0000
  H   H1426     1.0  0.28630  0.87339  0.86974  1.0000
  H   H1427     1.0  0.27202  0.88624  0.85101  1.0000
  H   H1428     1.0  0.27528  0.85932  0.85834  1.0000
  N   N93       1.0  0.09487  0.78798  0.63233  1.0000
  C   C918      1.0  0.10371  0.77515  0.61714  1.0000
  C   C919      1.0  0.07508  0.80022  0.62846  1.0000
  C   C920      1.0  0.10902  0.80130  0.63114  1.0000
  C   C921      1.0  0.09172  0.77539  0.65255  1.0000
  H   H1429     1.0  0.11880  0.76590  0.61939  1.0000
  H   H1430     1.0  0.10610  0.78447  0.60177  1.0000
  H   H1431     1.0  0.09349  0.76484  0.61756  1.0000
  H   H1432     1.0  0.06769  0.80974  0.63994  1.0000
  H   H1433     1.0  0.07703  0.81043  0.61356  1.0000
  H   H1434     1.0  0.06421  0.79067  0.62863  1.0000
  H   H1435     1.0  0.12396  0.79262  0.63445  1.0000
  H   H1436     1.0  0.10256  0.81165  0.64193  1.0000
  H   H1437     1.0  0.11221  0.81070  0.61601  1.0000
  H   H1438     1.0  0.08521  0.78484  0.66425  1.0000
  H   H1439     1.0  0.10638  0.76608  0.65605  1.0000
  H   H1440     1.0  0.06382  0.90651  0.67519  1.0000
  C   C922      1.0  0.31902  0.95313  0.80940  1.0000
  H   H1441     1.0  0.32681  0.91245  0.74169  1.0000
  H   H1442     1.0  0.38599  0.82661  0.90374  1.0000
  C   C923      1.0  0.04789  0.90932  0.67293  1.0000
  H   H1443     1.0  0.38611  0.90625  0.80956  1.0000
  H   H1444     1.0  0.42827  0.90888  0.95448  1.0000
  S   S373      1.0  0.27041  0.95536  0.59946  1.0000
  S   S374      1.0  0.10975  0.74027  0.77302  1.0000
  C   C924      1.0  0.01262  0.93375  0.62697  1.0000
  C   C925      1.0  0.34270  0.94583  0.72608  1.0000
  Fe  Fe184     1.0  0.47257  0.83233  0.92370  1.0000
  H   H1445     1.0  0.40118  0.81667  0.87087  1.0000
  C   C926      1.0  0.26738  0.95960  0.57459  1.0000
  S   S375      1.0  0.37586  0.95387  0.96092  1.0000
  H   H1446     1.0  0.39310  0.77121  0.90986  1.0000
  H   H1447     1.0  0.36389  0.82751  0.88048  1.0000
  N   N94       1.0  0.22985  0.90885  0.60112  1.0000
  C   C927      1.0  0.23553  0.89192  0.59032  1.0000
  C   C928      1.0  0.21892  0.92661  0.58923  1.0000
  C   C929      1.0  0.24847  0.91366  0.60414  1.0000
  C   C930      1.0  0.21647  0.90326  0.62076  1.0000
  H   H1448     1.0  0.24382  0.87824  0.59884  1.0000
  H   H1449     1.0  0.24565  0.89569  0.57544  1.0000
  H   H1450     1.0  0.22177  0.88798  0.58778  1.0000
  H   H1451     1.0  0.21465  0.93975  0.59679  1.0000
  H   H1452     1.0  0.22855  0.93111  0.57425  1.0000
  H   H1453     1.0  0.20464  0.92361  0.58684  1.0000
  H   H1454     1.0  0.25736  0.90058  0.61279  1.0000
  H   H1455     1.0  0.24464  0.92618  0.61253  1.0000
  H   H1456     1.0  0.25877  0.91844  0.58966  1.0000
  H   H1457     1.0  0.21205  0.91566  0.62939  1.0000
  H   H1458     1.0  0.22417  0.88985  0.63010  1.0000
  H   H1459     1.0  0.20210  0.89974  0.61912  1.0000
  Fe  Fe185     1.0  0.49363  0.79089  0.91517  1.0000
  H   H1460     1.0  0.01805  0.75338  0.95542  1.0000
  H   H1461     1.0  0.29554  0.95473  0.52789  1.0000
  H   H1462     1.0  0.16171  0.78323  0.84359  1.0000
  H   H1463     1.0  0.31339  0.97619  0.73620  1.0000
  H   H1464     1.0  0.39785  0.86997  0.95847  1.0000
  H   H1465     1.0  0.23477  0.96914  0.58147  1.0000
  H   H1466     1.0  0.02827  0.87950  0.71571  1.0000
  S   S376      1.0  0.49089  0.76296  0.90622  1.0000
  Fe  Fe186     1.0  0.34596  0.98183  0.76580  1.0000
  H   H1467     1.0  0.37919  0.89173  0.96433  1.0000
  H   H1468     1.0  0.37134  0.81088  0.92313  1.0000
  S   S377      1.0  0.19911  0.98267  0.66486  1.0000
  H   H1469     1.0  0.40888  0.89927  0.85361  1.0000
  Fe  Fe187     1.0  0.23265  0.97405  0.66538  1.0000
  H   H1470     1.0  0.11532  0.77035  0.88085  1.0000
  H   H1471     1.0  0.17581  0.75795  0.84598  1.0000
  H   H1472     1.0  0.34406  0.96018  0.71522  1.0000
  C   C931      1.0  0.26095  0.98560  0.69761  1.0000
  H   H1473     1.0  0.13256  0.76666  0.93379  1.0000
  H   H1474     1.0  0.41367  0.79308  0.88302  1.0000
  H   H1475     1.0  0.36984  0.94050  0.81742  1.0000
  H   H1476     1.0  0.06768  0.85841  0.57480  1.0000
  C   C932      1.0  0.06995  0.84769  0.56522  1.0000
  C   C933      1.0  0.02115  0.96575  0.60883  1.0000
  H   H1477     1.0  0.40160  0.88891  0.82570  1.0000
  H   H1478     1.0  0.35902  0.92893  0.84222  1.0000
  C   C934      1.0  0.13010  0.77549  0.87431  1.0000
  H   H1479     1.0  0.37442  0.94746  0.83859  1.0000
  H   H1480     1.0  0.45505  0.97713  0.66729  1.0000
  S   S378      1.0  0.25382  0.73830  0.85462  1.0000
  C   C935      1.0  0.39511  0.91147  0.85314  1.0000
  Fe  Fe188     1.0  0.24334  0.96558  0.62302  1.0000
  H   H1481     1.0  0.06580  0.87751  0.50628  1.0000
  H   H1482     1.0  0.00743  0.88548  0.69011  1.0000
  H   H1483     1.0  0.38207  0.90519  0.86347  1.0000
  H   H1484     1.0  0.41193  0.93935  0.82453  1.0000
  C   C936      1.0  0.01602  0.73911  0.96504  1.0000
  H   H1485     1.0  0.05958  0.89139  0.48280  1.0000
  H   H1486     1.0  0.43172  0.86353  0.96651  1.0000
  H   H1487     1.0  0.14719  0.74870  0.83683  1.0000
  H   H1488     1.0  0.16041  0.79274  0.97467  1.0000
  S   S379      1.0  0.21088  0.97387  0.61908  1.0000
  H   H1489     1.0  0.36587  0.77929  0.91684  1.0000
  H   H1490     1.0  0.29530  0.96170  0.75254  1.0000
  S   S380      1.0  0.23335  0.74866  0.89959  1.0000
  S   S381      1.0  0.25904  0.96565  0.51092  1.0000
  C   C937      1.0  0.31184  0.96143  0.74615  1.0000
  C   C938      1.0  0.16402  0.76870  0.85422  1.0000
  H   H1491     1.0  0.04894  0.87412  0.66284  1.0000
  H   H1492     1.0  0.35030  0.93331  0.71791  1.0000
  H   H1493     1.0  0.46946  0.75532  0.94761  1.0000
  C   C939      1.0  0.31996  0.92545  0.74935  1.0000
  H   H1494     1.0  0.42329  0.91484  0.81883  1.0000
  H   H1495     1.0  0.06407  0.87004  0.68124  1.0000
  H   H1496     1.0  0.04055  0.86103  0.68764  1.0000
  C   C940      1.0  0.03630  0.89167  0.70629  1.0000
  C   C941      1.0  0.37286  0.93456  0.83275  1.0000
  H   H1497     1.0  0.13618  0.77730  0.88691  1.0000
  H   H1498     1.0  0.29338  0.94613  0.72564  1.0000
  H   H1499     1.0  0.37461  0.89558  0.83457  1.0000
  S   S382      1.0  0.13591  0.74554  0.71235  1.0000
  H   H1500     1.0  0.31076  0.96069  0.70837  1.0000
  C   C942      1.0  0.13622  0.74253  0.95894  1.0000
  H   H1501     1.0  0.30385  0.92424  0.75665  1.0000
  C   C943      1.0  0.43644  0.97230  0.73560  1.0000
  C   C944      1.0  0.39922  0.80103  0.87807  1.0000
  S   S383      1.0  0.21640  0.74238  0.81948  1.0000
  C   C945      1.0  0.09015  0.84580  0.49295  1.0000
  S   S384      1.0  0.17173  0.76537  0.90747  1.0000
  C   C946      1.0  0.28451  0.95565  0.55933  1.0000
  H   H1502     1.0  0.40672  0.93213  0.80377  1.0000
  H   H1503     1.0  0.45686  0.75382  0.48503  1.0000
  H   H1504     1.0  0.03990  0.92416  0.67683  1.0000
  H   H1505     1.0  0.40360  0.91434  0.94831  1.0000
  H   H1506     1.0  0.43540  0.95672  0.74161  1.0000
  C   C947      1.0  0.38446  0.81073  0.91010  1.0000
  S   S385      1.0  0.49803  0.83559  0.93652  1.0000
  C   C948      1.0  0.13616  0.75889  0.84629  1.0000
  C   C949      1.0  0.12424  0.98140  0.65248  1.0000
  C   C950      1.0  0.24573  0.96776  0.55033  1.0000
  C   C951      1.0  0.45567  0.97776  0.72880  1.0000
  H   H1507     1.0  0.15232  0.97428  0.67516  1.0000
  H   H1508     1.0  0.12200  0.75251  0.85207  1.0000
  Fe  Fe189     1.0  0.22196  0.74388  0.84943  1.0000
  H   H1509     1.0  0.19637  0.74677  0.78709  1.0000
  C   C952      1.0  0.24802  0.96593  0.56995  1.0000
  H   H1510     1.0  0.01615  0.89834  0.66531  1.0000
  C   C953      1.0  0.34673  0.92991  0.97252  1.0000
  H   H1511     1.0  0.05194  0.88828  0.70942  1.0000
  H   H1512     1.0  0.11009  0.98249  0.66435  1.0000
  S   S386      1.0  0.05119  0.75404  0.48192  1.0000
  H   H1513     1.0  0.12035  0.74550  0.96618  1.0000
  H   H1514     1.0  0.10432  0.83702  0.48508  1.0000
  H   H1515     1.0  0.10239  0.88035  0.48999  1.0000
  C   C954      1.0  0.16358  0.75027  0.93056  1.0000
  C   C955      1.0  0.47245  0.73918  0.95484  1.0000
  H   H1516     1.0  0.49829  0.98272  0.64947  1.0000
  C   C956      1.0  0.14313  0.75440  0.94048  1.0000
  Fe  Fe190     1.0  0.04302  0.78702  0.48264  1.0000
  C   C957      1.0  0.06440  0.87608  0.49128  1.0000
  H   H1517     1.0  0.00746  0.75747  0.49427  1.0000
  H   H1518     1.0  0.25066  0.98133  0.72962  1.0000
  H   H1519     1.0  0.23063  0.97227  0.54696  1.0000
  H   H1520     1.0  0.05170  0.86786  0.49380  1.0000
  H   H1521     1.0  0.08797  0.76691  0.48138  1.0000
  H   H1522     1.0  0.15563  0.74255  0.88843  1.0000
  H   H1523     1.0  0.15759  0.76798  0.97407  1.0000
  H   H1524     1.0  0.42314  0.79030  0.48735  1.0000
  C   C958      1.0  0.44303  0.75413  0.47946  1.0000
  H   H1525     1.0  0.40379  0.98240  0.73948  1.0000
  H   H1526     1.0  0.16451  0.97756  0.63862  1.0000
  C   C959      1.0  0.39180  0.88003  0.96961  1.0000
  H   H1527     1.0  0.44988  0.79085  0.47835  1.0000
  C   C960      1.0  0.00447  0.97895  0.55207  1.0000
  H   H1528     1.0  0.01327  0.98002  0.56296  1.0000
  Fe  Fe191     1.0  0.49792  0.80363  0.95193  1.0000
  C   C961      1.0  0.41854  0.98682  0.73440  1.0000
  H   H1529     1.0  0.11956  0.98482  0.63784  1.0000
  H   H1530     1.0  0.47884  0.98600  0.63554  1.0000
  S   S387      1.0  0.31155  0.98317  0.48212  1.0000
  C   C962      1.0  0.46153  0.98603  0.67446  1.0000
  C   C963      1.0  0.26195  0.98677  0.71701  1.0000
  H   H1531     1.0  0.82278  0.00545  0.43642  1.0000
  H   H1532     1.0  0.61374  0.08912  0.13256  1.0000
  H   H1533     1.0  0.52081  0.03263  0.12624  1.0000
  H   H1534     1.0  0.59308  0.05401  0.14378  1.0000
  H   H1535     1.0  0.53536  0.00186  0.19799  1.0000
  C   C964      1.0  0.58692  0.99301  0.21236  1.0000
  H   H1536     1.0  0.64200  0.21721  0.44492  1.0000
  S   S388      1.0  0.73544  0.19204  0.41705  1.0000
  C   C965      1.0  0.68399  0.18314  0.45583  1.0000
  H   H1537     1.0  0.89859  0.19266  0.99518  1.0000
  N   N95       1.0  0.60339  0.07290  0.11589  1.0000
  Fe  Fe192     1.0  0.75168  0.03501  0.43743  1.0000
  S   S389      1.0  0.77902  0.03094  0.45047  1.0000
  S   S390      1.0  0.73653  0.00832  0.44702  1.0000
  Fe  Fe193     1.0  0.75274  0.07905  0.41918  1.0000
  S   S391      1.0  0.77973  0.07859  0.43166  1.0000
  S   S392      1.0  0.74044  0.10646  0.39813  1.0000
  Fe  Fe194     1.0  0.79196  0.04914  0.42131  1.0000
  S   S393      1.0  0.82515  0.04244  0.40662  1.0000
  C   C966      1.0  0.59770  0.98887  0.08949  1.0000
  H   H1538     1.0  0.68229  0.22235  0.45222  1.0000
  S   S394      1.0  0.76588  0.05047  0.40716  1.0000
  S   S395      1.0  0.73566  0.06365  0.44806  1.0000
  S   S396      1.0  0.59527  0.20116  0.29029  1.0000
  S   S397      1.0  0.63565  0.20925  0.31261  1.0000
  Fe  Fe195     1.0  0.60795  0.19475  0.25950  1.0000
  S   S398      1.0  0.61228  0.16207  0.25710  1.0000
  Fe  Fe196     1.0  0.54078  0.06056  0.23466  1.0000
  S   S399      1.0  0.52968  0.08791  0.21315  1.0000
  C   C967      1.0  0.91472  0.19236  0.99556  1.0000
  Fe  Fe197     1.0  0.58538  0.06028  0.21497  1.0000
  S   S400      1.0  0.57810  0.08764  0.19193  1.0000
  S   S401      1.0  0.61625  0.04026  0.21469  1.0000
  Fe  Fe198     1.0  0.55580  0.09961  0.21777  1.0000
  S   S402      1.0  0.55121  0.13196  0.22139  1.0000
  Fe  Fe199     1.0  0.55301  0.07349  0.18947  1.0000
  S   S403      1.0  0.55265  0.06732  0.15948  1.0000
  S   S404      1.0  0.56498  0.07307  0.24116  1.0000
  S   S405      1.0  0.56195  0.04537  0.21072  1.0000
  H   H1539     1.0  0.54635  0.15924  0.32208  1.0000
  C   C968      1.0  0.66412  0.15380  0.27001  1.0000
  S   S406      1.0  0.64119  0.00835  0.12966  1.0000
  H   H1540     1.0  0.50882  0.08008  0.17246  1.0000
  C   C969      1.0  0.53806  0.22949  0.31347  1.0000
  C   C970      1.0  0.82313  0.04307  0.02725  1.0000
  C   C971      1.0  0.55292  0.18844  0.27576  1.0000
  C   C972      1.0  0.51046  0.03650  0.20587  1.0000
  H   H1541     1.0  0.97149  0.03884  0.18261  1.0000
  C   C973      1.0  0.65553  0.04899  0.15186  1.0000
  H   H1542     1.0  0.56985  0.16467  0.30562  1.0000
  C   C974      1.0  0.52149  0.18107  0.29766  1.0000
  H   H1543     1.0  0.62687  0.99056  0.20150  1.0000
  N   N96       1.0  0.95577  0.04214  0.21260  1.0000
  C   C975      1.0  0.66076  0.21508  0.33444  1.0000
  H   H1544     1.0  0.95106  0.02520  0.19290  1.0000
  H   H1545     1.0  0.54036  0.14276  0.29663  1.0000
  H   H1546     1.0  0.82648  0.01056  0.99407  1.0000
  H   H1547     1.0  0.92266  0.19698  0.97993  1.0000
  H   H1548     1.0  0.93233  0.02508  0.22806  1.0000
  N   N97       1.0  0.59921  0.99224  0.19197  1.0000
  H   H1549     1.0  0.81283  0.00928  0.35781  1.0000
  C   C976      1.0  0.94552  0.02987  0.23081  1.0000
  C   C977      1.0  0.83094  0.02406  0.98454  1.0000
  C   C978      1.0  0.62183  0.07285  0.09968  1.0000
  H   H1550     1.0  0.66594  0.18824  0.28017  1.0000
  H   H1551     1.0  0.66736  0.22885  0.28392  1.0000
  C   C979      1.0  0.97994  0.23162  0.00296  1.0000
  H   H1552     1.0  0.55546  0.20513  0.44222  1.0000
  C   C980      1.0  0.67361  0.17401  0.28849  1.0000
  H   H1553     1.0  0.51399  0.17032  0.31005  1.0000
  H   H1554     1.0  0.68401  0.18744  0.47007  1.0000
  S   S407      1.0  0.58898  0.22260  0.24505  1.0000
  S   S408      1.0  0.52179  0.19053  0.37476  1.0000
  H   H1555     1.0  0.67732  0.16935  0.45964  1.0000
  H   H1556     1.0  0.52635  0.16951  0.43631  1.0000
  H   H1557     1.0  0.89454  0.01134  0.17305  1.0000
  H   H1558     1.0  0.90397  0.99011  0.24764  1.0000
  C   C981      1.0  0.51147  0.06965  0.16250  1.0000
  C   C982      1.0  0.58538  0.07456  0.10739  1.0000
  C   C983      1.0  0.73978  0.99413  0.07997  1.0000
  H   H1559     1.0  0.95443  0.15778  0.01076  1.0000
  H   H1560     1.0  0.66576  0.17994  0.42740  1.0000
  C   C984      1.0  0.94100  0.06010  0.20588  1.0000
  H   H1561     1.0  0.58663  0.09048  0.13815  1.0000
  H   H1562     1.0  0.67352  0.23026  0.42902  1.0000
  H   H1563     1.0  0.81826  0.01776  0.06233  1.0000
  H   H1564     1.0  0.50010  0.07523  0.30923  1.0000
  H   H1565     1.0  0.96758  0.05758  0.22896  1.0000
  H   H1566     1.0  0.78528  0.06272  0.02322  1.0000
  Fe  Fe200     1.0  0.98758  0.00313  0.14885  1.0000
  H   H1567     1.0  0.86089  0.00057  0.18253  1.0000
  H   H1568     1.0  0.56598  0.03342  0.09591  1.0000
  H   H1569     1.0  0.64224  0.08042  0.14999  1.0000
  Fe  Fe201     1.0  0.66755  0.02394  0.11594  1.0000
  N   N98       1.0  0.67244  0.19963  0.44319  1.0000
  H   H1570     1.0  0.68987  0.17106  0.28060  1.0000
  C   C985      1.0  0.84464  0.00295  0.35930  1.0000
  H   H1571     1.0  0.51067  0.99389  0.00666  1.0000
  C   C986      1.0  0.57081  0.01791  0.09411  1.0000
  C   C987      1.0  0.55299  0.22025  0.32469  1.0000
  C   C988      1.0  0.59153  0.00892  0.09182  1.0000
  H   H1572     1.0  0.70024  0.17919  0.44807  1.0000
  H   H1573     1.0  0.69012  0.13469  0.29432  1.0000
  S   S409      1.0  0.60932  0.02364  0.09067  1.0000
  C   C989      1.0  0.82401  0.01164  0.36495  1.0000
  H   H1574     1.0  0.79173  0.02707  0.07097  1.0000
  S   S410      1.0  0.86953  0.00856  0.99201  1.0000
  H   H1575     1.0  0.62042  0.08674  0.08808  1.0000
  H   H1576     1.0  0.63345  0.14979  0.30188  1.0000
  H   H1577     1.0  0.67341  0.14084  0.31702  1.0000
  H   H1578     1.0  0.64056  0.16474  0.31582  1.0000
  H   H1579     1.0  0.63572  0.07179  0.10550  1.0000
  H   H1580     1.0  0.69794  0.21449  0.43002  1.0000
  H   H1581     1.0  0.65629  0.16736  0.26094  1.0000
  H   H1582     1.0  0.60823  0.01286  0.16491  1.0000
  C   C990      1.0  0.53144  0.06136  0.15406  1.0000
  N   N99       1.0  0.50456  0.01721  0.20695  1.0000
  H   H1583     1.0  0.93963  0.03829  0.24332  1.0000
  H   H1584     1.0  0.53773  0.18885  0.45467  1.0000
  C   C991      1.0  0.52185  0.00058  0.21046  1.0000
  C   C992      1.0  0.53474  0.04825  0.14072  1.0000
  H   H1585     1.0  0.51079  0.22353  0.00024  1.0000
  H   H1586     1.0  0.65622  0.14139  0.27074  1.0000
  S   S411      1.0  0.74776  0.22860  0.36410  1.0000
  H   H1587     1.0  0.55017  0.04194  0.13397  1.0000
  C   C993      1.0  0.63254  0.04414  0.19111  1.0000
  C   C994      1.0  0.64608  0.02774  0.18400  1.0000
  C   C995      1.0  0.65710  0.03002  0.16421  1.0000
  H   H1588     1.0  0.52414  0.03879  0.19382  1.0000
  C   C996      1.0  0.64310  0.06567  0.15937  1.0000
  C   C997      1.0  0.63129  0.06318  0.17886  1.0000
  H   H1589     1.0  0.64777  0.01319  0.19367  1.0000
  H   H1590     1.0  0.66697  0.01714  0.15855  1.0000
  C   C998      1.0  0.54033  0.17110  0.42438  1.0000
  H   H1591     1.0  0.62152  0.07604  0.18454  1.0000
  C   C999      1.0  0.68761  0.23202  0.30155  1.0000
  H   H1592     1.0  0.51428  0.03717  0.22008  1.0000
  C   C1000     1.0  0.54772  0.20867  0.34371  1.0000
  C   C1001     1.0  0.52737  0.20688  0.35190  1.0000
  C   C1002     1.0  0.91389  0.16658  0.02522  1.0000
  Fe  Fe202     1.0  0.51251  0.98834  0.10144  1.0000
  H   H1593     1.0  0.55949  0.20103  0.35202  1.0000
  C   C1003     1.0  0.59615  0.15400  0.24584  1.0000
  C   C1004     1.0  0.58149  0.16768  0.23633  1.0000
  C   C1005     1.0  0.56790  0.16072  0.22882  1.0000
  C   C1006     1.0  0.56914  0.14005  0.23030  1.0000
  C   C1007     1.0  0.58413  0.12638  0.23937  1.0000
  C   C1008     1.0  0.59750  0.13334  0.24717  1.0000
  H   H1594     1.0  0.58059  0.18363  0.23476  1.0000
  H   H1595     1.0  0.55648  0.17139  0.22167  1.0000
  H   H1596     1.0  0.58528  0.11044  0.24055  1.0000
  H   H1597     1.0  0.60886  0.12263  0.25438  1.0000
  C   C1009     1.0  0.83227  0.02696  0.38869  1.0000
  C   C1010     1.0  0.85287  0.01821  0.38308  1.0000
  C   C1011     1.0  0.81780  0.02347  0.37978  1.0000
  H   H1598     1.0  0.86412  0.02093  0.38991  1.0000
  H   H1599     1.0  0.80190  0.03013  0.38397  1.0000
  S   S412      1.0  0.95348  0.01122  0.15301  1.0000
  C   C1012     1.0  0.67791  0.22087  0.33723  1.0000
  Fe  Fe203     1.0  0.62113  0.21741  0.28539  1.0000
  S   S413      1.0  0.93241  0.99458  0.11654  1.0000
  H   H1600     1.0  0.56404  0.17830  0.44627  1.0000
  H   H1601     1.0  0.90851  0.15712  0.99207  1.0000
  C   C1013     1.0  0.73657  0.16842  0.41159  1.0000
  C   C1014     1.0  0.73195  0.16670  0.39392  1.0000
  C   C1015     1.0  0.73289  0.14760  0.39007  1.0000
  C   C1016     1.0  0.73848  0.13018  0.40382  1.0000
  C   C1017     1.0  0.74300  0.13193  0.42153  1.0000
  C   C1018     1.0  0.74199  0.15101  0.42541  1.0000
  H   H1602     1.0  0.72775  0.18005  0.38319  1.0000
  H   H1603     1.0  0.72939  0.14633  0.37634  1.0000
  H   H1604     1.0  0.74731  0.11860  0.43221  1.0000
  H   H1605     1.0  0.74558  0.15229  0.43909  1.0000
  H   H1606     1.0  0.66452  0.20558  0.41442  1.0000
  H   H1607     1.0  0.80896  0.00877  0.03411  1.0000
  H   H1608     1.0  0.81006  0.04295  0.06692  1.0000
  H   H1609     1.0  0.60437  0.02230  0.18735  1.0000
  C   C1019     1.0  0.69152  0.22925  0.32078  1.0000
  S   S414      1.0  0.63512  0.20894  0.25539  1.0000
  C   C1020     1.0  0.94624  0.17267  0.00419  1.0000
  C   C1021     1.0  0.65677  0.21799  0.31525  1.0000
  H   H1610     1.0  0.50928  0.00243  0.26435  1.0000
  H   H1611     1.0  0.94711  0.18390  0.01271  1.0000
  S   S415      1.0  0.66515  0.02624  0.08440  1.0000
  Fe  Fe204     1.0  0.68618  0.99618  0.08616  1.0000
  C   C1022     1.0  0.55628  0.00702  0.09382  1.0000
  H   H1612     1.0  0.56241  0.19142  0.39228  1.0000
  H   H1613     1.0  0.58705  0.06177  0.09984  1.0000
  C   C1023     1.0  0.64184  0.16198  0.30057  1.0000
  H   H1614     1.0  0.56974  0.18354  0.27154  1.0000
  N   N100      1.0  0.66337  0.15714  0.29018  1.0000
  H   H1615     1.0  0.79529  0.02781  0.01758  1.0000
  H   H1616     1.0  0.83520  0.02924  0.02670  1.0000
  C   C1024     1.0  0.55567  0.01406  0.25951  1.0000
  C   C1025     1.0  0.53465  0.01692  0.26065  1.0000
  H   H1617     1.0  0.90315  0.00529  0.09150  1.0000
  H   H1618     1.0  0.66642  0.12576  0.30332  1.0000
  H   H1619     1.0  0.72682  0.00206  0.08911  1.0000
  H   H1620     1.0  0.56281  0.02681  0.25758  1.0000
  C   C1026     1.0  0.55130  0.19062  0.44234  1.0000
  H   H1621     1.0  0.93473  0.06955  0.21755  1.0000
  S   S416      1.0  0.52019  0.04134  0.25686  1.0000
  H   H1622     1.0  0.88749  0.99902  0.41170  1.0000
  H   H1623     1.0  0.98438  0.03527  0.22207  1.0000
  Fe  Fe205     1.0  0.76402  0.06048  0.45940  1.0000
  H   H1624     1.0  0.62459  0.05979  0.09217  1.0000
  H   H1625     1.0  0.55067  0.18449  0.31494  1.0000
  C   C1027     1.0  0.60597  0.05401  0.13065  1.0000
  H   H1626     1.0  0.76990  0.00556  0.41259  1.0000
  C   C1028     1.0  0.55306  0.17027  0.30942  1.0000
  C   C1029     1.0  0.65107  0.20470  0.45405  1.0000
  H   H1627     1.0  0.68011  0.15009  0.26164  1.0000
  N   N101      1.0  0.54368  0.17350  0.29195  1.0000
  H   H1628     1.0  0.97468  0.01634  0.20123  1.0000
  C   C1030     1.0  0.85903  0.00598  0.36861  1.0000
  H   H1629     1.0  0.92789  0.05583  0.20238  1.0000
  H   H1630     1.0  0.65051  0.20836  0.34724  1.0000
  H   H1631     1.0  0.58299  0.08865  0.09621  1.0000
  H   H1632     1.0  0.51837  0.19562  0.30284  1.0000
  H   H1633     1.0  0.51214  0.01995  0.17504  1.0000
  C   C1031     1.0  0.56539  0.19176  0.40704  1.0000
  H   H1634     1.0  0.92112  0.15148  0.03239  1.0000
  H   H1635     1.0  0.60667  0.04087  0.12404  1.0000
  H   H1636     1.0  0.51392  0.18369  0.28481  1.0000
  C   C1032     1.0  0.56758  0.99466  0.26088  1.0000
  H   H1637     1.0  0.52659  0.00040  0.22445  1.0000
  C   C1033     1.0  0.92444  0.15747  0.99262  1.0000
  H   H1638     1.0  0.95612  0.01594  0.23605  1.0000
  C   C1034     1.0  0.86696  0.99031  0.17158  1.0000
  H   H1639     1.0  0.62021  0.05166  0.13629  1.0000
  C   C1035     1.0  0.54734  0.15436  0.28492  1.0000
  S   S417      1.0  0.50161  0.98884  0.13408  1.0000
  H   H1640     1.0  0.91490  0.20404  0.00385  1.0000
  C   C1036     1.0  0.50572  0.23155  0.45438  1.0000
  H   H1641     1.0  0.54035  0.01416  0.09545  1.0000
  H   H1642     1.0  0.98101  0.05775  0.20356  1.0000
  H   H1643     1.0  0.87498  0.99934  0.36430  1.0000
  H   H1644     1.0  0.57062  0.99972  0.21225  1.0000
  H   H1645     1.0  0.79178  0.06922  0.04372  1.0000
  H   H1646     1.0  0.53659  0.17035  0.41013  1.0000
  C   C1037     1.0  0.89948  0.00085  0.16231  1.0000
  H   H1647     1.0  0.56399  0.14823  0.28073  1.0000
  N   N102      1.0  0.92483  0.17225  0.00441  1.0000
  S   S418      1.0  0.92831  0.99303  0.20786  1.0000
  Fe  Fe206     1.0  0.57852  0.23023  0.27579  1.0000
  C   C1038     1.0  0.51815  0.04301  0.13626  1.0000
  H   H1648     1.0  0.53580  0.98871  0.01193  1.0000
  H   H1649     1.0  0.82152  0.04983  0.01161  1.0000
  H   H1650     1.0  0.67320  0.17699  0.30347  1.0000
  H   H1651     1.0  0.54092  0.15634  0.27140  1.0000
  Fe  Fe207     1.0  0.72794  0.22012  0.39427  1.0000
  C   C1039     1.0  0.52554  0.00031  0.26332  1.0000
  H   H1652     1.0  0.50801  0.07024  0.28424  1.0000
  S   S419      1.0  0.69080  0.99549  0.11677  1.0000
  Fe  Fe208     1.0  0.63993  0.00888  0.09812  1.0000
  C   C1040     1.0  0.67286  0.19336  0.42444  1.0000
  H   H1653     1.0  0.58280  0.02044  0.17854  1.0000
  S   S420      1.0  0.69855  0.22861  0.38329  1.0000
  C   C1041     1.0  0.68193  0.21749  0.43842  1.0000
  C   C1042     1.0  0.60048  0.09008  0.12584  1.0000
  H   H1654     1.0  0.82892  0.05388  0.03272  1.0000
  H   H1655     1.0  0.77265  0.05412  0.04842  1.0000
  H   H1656     1.0  0.64329  0.19161  0.45805  1.0000
  H   H1657     1.0  0.91389  0.17751  0.03445  1.0000
  H   H1658     1.0  0.57119  0.07451  0.11917  1.0000
  H   H1659     1.0  0.59861  0.10462  0.11518  1.0000
  C   C1043     1.0  0.51217  0.21712  0.34124  1.0000
  C   C1044     1.0  0.53041  0.20720  0.41817  1.0000
  S   S421      1.0  0.95567  0.22154  0.98289  1.0000
  H   H1660     1.0  0.56864  0.22197  0.31871  1.0000
  H   H1661     1.0  0.80068  0.03746  0.97919  1.0000
  S   S422      1.0  0.66770  0.05160  0.12662  1.0000
  H   H1662     1.0  0.58384  0.99254  0.26005  1.0000
  H   H1663     1.0  0.55010  0.20317  0.28036  1.0000
  H   H1664     1.0  0.52783  0.20845  0.40296  1.0000
  C   C1045     1.0  0.85120  0.02650  0.98073  1.0000
  H   H1665     1.0  0.95492  0.17705  0.98869  1.0000
  C   C1046     1.0  0.96362  0.03012  0.19664  1.0000
  H   H1666     1.0  0.89645  0.00935  0.14749  1.0000
  C   C1047     1.0  0.97291  0.04845  0.21700  1.0000
  H   H1667     1.0  0.50591  0.23573  0.31340  1.0000
  H   H1668     1.0  0.68079  0.21852  0.35207  1.0000
  H   H1669     1.0  0.54660  0.19101  0.26211  1.0000
  C   C1048     1.0  0.51755  0.22835  0.32194  1.0000
  C   C1049     1.0  0.67021  0.22659  0.29878  1.0000
  H   H1670     1.0  0.84923  0.99671  0.42672  1.0000
  N   N103      1.0  0.54690  0.19015  0.42298  1.0000
  H   H1671     1.0  0.91630  0.99605  0.16037  1.0000
  C   C1050     1.0  0.90882  0.98930  0.09272  1.0000
  N   N104      1.0  0.80509  0.10450  0.37311  1.0000
  C   C1051     1.0  0.81409  0.11296  0.35233  1.0000
  C   C1052     1.0  0.82158  0.09458  0.38413  1.0000
  C   C1053     1.0  0.79309  0.08962  0.37300  1.0000
  C   C1054     1.0  0.79154  0.12081  0.38296  1.0000
  H   H1672     1.0  0.82433  0.10100  0.34449  1.0000
  H   H1673     1.0  0.82327  0.12427  0.35184  1.0000
  H   H1674     1.0  0.80201  0.12054  0.34364  1.0000
  H   H1675     1.0  0.81533  0.08805  0.39990  1.0000
  H   H1676     1.0  0.83186  0.08191  0.37736  1.0000
  H   H1677     1.0  0.83109  0.10527  0.38446  1.0000
  H   H1678     1.0  0.78586  0.08328  0.38842  1.0000
  H   H1679     1.0  0.80282  0.07679  0.36613  1.0000
  H   H1680     1.0  0.78046  0.09649  0.36483  1.0000
  H   H1681     1.0  0.78446  0.11494  0.39868  1.0000
  H   H1682     1.0  0.77872  0.12840  0.37520  1.0000
  H   H1683     1.0  0.79995  0.13244  0.38328  1.0000
  C   C1055     1.0  0.67381  0.13877  0.30171  1.0000
  H   H1684     1.0  0.57823  0.17918  0.41012  1.0000
  N   N105      1.0  0.80353  0.03859  0.04008  1.0000
  C   C1056     1.0  0.78760  0.05699  0.03883  1.0000
  C   C1057     1.0  0.79736  0.02292  0.03326  1.0000
  C   C1058     1.0  0.80599  0.03136  0.06099  1.0000
  H   H1685     1.0  0.55241  0.15787  0.42791  1.0000
  C   C1059     1.0  0.59860  0.01285  0.18016  1.0000
  H   H1686     1.0  0.89767  0.16618  0.02587  1.0000
  H   H1687     1.0  0.78267  0.01914  0.04268  1.0000
  H   H1688     1.0  0.63369  0.17586  0.29231  1.0000
  H   H1689     1.0  0.57053  0.20611  0.40552  1.0000
  H   H1690     1.0  0.93175  0.14205  0.99891  1.0000
  H   H1691     1.0  0.86297  0.99863  0.15707  1.0000
  H   H1692     1.0  0.65028  0.20972  0.46817  1.0000
  H   H1693     1.0  0.68886  0.18946  0.41599  1.0000
  S   S423      1.0  0.88167  0.99272  0.45431  1.0000
  H   H1694     1.0  0.94829  0.06962  0.19212  1.0000
  S   S424      1.0  0.71395  0.23559  0.32358  1.0000
  H   H1695     1.0  0.76143  0.99868  0.09502  1.0000
  S   S425      1.0  0.85210  0.98872  0.34031  1.0000
  H   H1696     1.0  0.52196  0.00567  0.04129  1.0000
  H   H1697     1.0  0.97140  0.22358  0.01626  1.0000
  C   C1060     1.0  0.75945  0.99239  0.08315  1.0000
  C   C1061     1.0  0.50090  0.21460  0.46843  1.0000
  C   C1062     1.0  0.50789  0.99948  0.04368  1.0000
  H   H1698     1.0  0.51570  0.20540  0.42877  1.0000
  H   H1699     1.0  0.53396  0.22176  0.41873  1.0000
  H   H1700     1.0  0.59266  0.00221  0.21995  1.0000
  C   C1063     1.0  0.53123  0.23394  0.47197  1.0000
  C   C1064     1.0  0.97562  0.23272  0.98425  1.0000
  C   C1065     1.0  0.76602  0.99089  0.41855  1.0000
  C   C1066     1.0  0.83570  0.99258  0.43816  1.0000
  H   H1701     1.0  0.83926  0.99129  0.45303  1.0000
  H   H1702     1.0  0.57492  0.98738  0.18067  1.0000
  Fe  Fe209     1.0  0.95290  0.98752  0.18069  1.0000
  H   H1703     1.0  0.81375  0.98894  0.41334  1.0000
  H   H1704     1.0  0.69091  0.08511  0.47380  1.0000
  C   C1067     1.0  0.75033  0.98814  0.43540  1.0000
  C   C1068     1.0  0.56250  0.98726  0.09068  1.0000
  H   H1705     1.0  0.50090  0.99782  0.05986  1.0000
  S   S426      1.0  0.71235  0.98710  0.06127  1.0000
  C   C1069     1.0  0.58531  0.23601  0.97833  1.0000
  S   S427      1.0  0.84757  0.09058  0.90706  1.0000
  H   H1706     1.0  0.50702  0.19484  0.49572  1.0000
  S   S428      1.0  0.86833  0.14276  0.89254  1.0000
  H   H1707     1.0  0.67551  0.10856  0.51870  1.0000
  H   H1708     1.0  0.79440  0.13878  0.79769  1.0000
  C   C1070     1.0  0.82217  0.05676  0.96370  1.0000
  H   H1709     1.0  0.70866  0.01442  0.84429  1.0000
  Fe  Fe210     1.0  0.98290  0.00580  0.61611  1.0000
  Fe  Fe211     1.0  0.64486  0.20786  0.87957  1.0000
  H   H1710     1.0  0.78717  0.01288  0.71524  1.0000
  H   H1711     1.0  0.87769  0.99134  0.74043  1.0000
  H   H1712     1.0  0.90166  0.19043  0.90738  1.0000
  C   C1071     1.0  0.55345  0.01731  0.63687  1.0000
  H   H1713     1.0  0.51705  0.22811  0.96352  1.0000
  C   C1072     1.0  0.74783  0.02319  0.80501  1.0000
  C   C1073     1.0  0.73985  0.98992  0.52896  1.0000
  S   S429      1.0  0.59705  0.21474  0.49787  1.0000
  S   S430      1.0  0.65338  0.04361  0.52759  1.0000
  Fe  Fe212     1.0  0.58529  0.20813  0.53114  1.0000
  S   S431      1.0  0.58523  0.17845  0.55266  1.0000
  C   C1074     1.0  0.80095  0.00259  0.71977  1.0000
  H   H1714     1.0  0.67578  0.18366  0.94297  1.0000
  C   C1075     1.0  0.84679  0.01186  0.92966  1.0000
  Fe  Fe213     1.0  0.63318  0.07029  0.53966  1.0000
  S   S432      1.0  0.64763  0.06504  0.56598  1.0000
  S   S433      1.0  0.63220  0.09998  0.51814  1.0000
  Fe  Fe214     1.0  0.66584  0.03710  0.55532  1.0000
  S   S434      1.0  0.80067  0.09583  0.89995  1.0000
  Fe  Fe215     1.0  0.62410  0.04608  0.58179  1.0000
  S   S435      1.0  0.61107  0.04443  0.61463  1.0000
  S   S436      1.0  0.50151  0.19166  0.94196  1.0000
  S   S437      1.0  0.60774  0.05377  0.55635  1.0000
  H   H1715     1.0  0.72905  0.02076  0.48622  1.0000
  H   H1716     1.0  0.67247  0.08317  0.52848  1.0000
  S   S438      1.0  0.95398  0.99374  0.62284  1.0000
  Fe  Fe216     1.0  0.80498  0.01809  0.79778  1.0000
  C   C1076     1.0  0.61658  0.99500  0.68579  1.0000
  S   S439      1.0  0.79058  0.04134  0.81763  1.0000
  H   H1717     1.0  0.69227  0.13623  0.97722  1.0000
  S   S440      1.0  0.84504  0.02283  0.72694  1.0000
  Fe  Fe217     1.0  0.61565  0.17887  0.89301  1.0000
  S   S441      1.0  0.79810  0.02224  0.76747  1.0000
  H   H1718     1.0  0.66102  0.99089  0.54082  1.0000
  C   C1077     1.0  0.73192  0.04292  0.83063  1.0000
  H   H1719     1.0  0.72280  0.14824  0.92579  1.0000
  C   C1078     1.0  0.72949  0.01200  0.57335  1.0000
  Fe  Fe218     1.0  0.66065  0.16350  0.89371  1.0000
  C   C1079     1.0  0.52559  0.18728  0.92603  1.0000
  N   N106      1.0  0.81467  0.99364  0.70299  1.0000
  S   S442      1.0  0.53218  0.00550  0.64508  1.0000
  Fe  Fe219     1.0  0.83244  0.09305  0.88159  1.0000
  S   S443      1.0  0.84574  0.07179  0.85981  1.0000
  S   S444      1.0  0.83087  0.12622  0.87252  1.0000
  Fe  Fe220     1.0  0.92290  0.20161  0.93708  1.0000
  H   H1720     1.0  0.69053  0.18090  0.96141  1.0000
  H   H1721     1.0  0.81419  0.03436  0.91581  1.0000
  H   H1722     1.0  0.69392  0.09129  0.53191  1.0000
  H   H1723     1.0  0.67373  0.10489  0.48547  1.0000
  C   C1080     1.0  0.87233  0.14633  0.92980  1.0000
  C   C1081     1.0  0.95155  0.15728  0.90693  1.0000
  H   H1724     1.0  0.94518  0.12869  0.89065  1.0000
  H   H1725     1.0  0.67864  0.03760  0.59805  1.0000
  S   S445      1.0  0.69971  0.03069  0.55283  1.0000
  Fe  Fe221     1.0  0.96505  0.20699  0.91300  1.0000
  Fe  Fe222     1.0  0.94062  0.02491  0.60886  1.0000
  H   H1726     1.0  0.54739  0.17910  0.87890  1.0000
  S   S446      1.0  0.92067  0.03133  0.58603  1.0000
  Fe  Fe223     1.0  0.96213  0.04477  0.63067  1.0000
  S   S447      1.0  0.97697  0.01488  0.64573  1.0000
  S   S448      1.0  0.96629  0.07360  0.63760  1.0000
  C   C1082     1.0  0.76022  0.99145  0.49544  1.0000
  C   C1083     1.0  0.99145  0.09138  0.64984  1.0000
  H   H1727     1.0  0.61751  0.00464  0.67125  1.0000
  S   S449      1.0  0.97010  0.03637  0.60042  1.0000
  S   S450      1.0  0.93098  0.03678  0.63757  1.0000
  H   H1728     1.0  0.71460  0.12758  0.95949  1.0000
  H   H1729     1.0  0.84496  0.01896  0.94275  1.0000
  H   H1730     1.0  0.69731  0.01609  0.62388  1.0000
  H   H1731     1.0  0.58417  0.99628  0.69046  1.0000
  N   N107      1.0  0.55504  0.21740  0.59753  1.0000
  C   C1084     1.0  0.68362  0.14435  0.94071  1.0000
  H   H1732     1.0  0.74616  0.04870  0.82880  1.0000
  S   S451      1.0  0.63205  0.19694  0.95270  1.0000
  C   C1085     1.0  0.59077  0.20691  0.95515  1.0000
  H   H1733     1.0  0.95521  0.14190  0.91576  1.0000
  C   C1086     1.0  0.91551  0.01195  0.57681  1.0000
  C   C1087     1.0  0.90653  0.01688  0.56001  1.0000
  H   H1734     1.0  0.90229  0.03249  0.55327  1.0000
  C   C1088     1.0  0.54631  0.18105  0.89395  1.0000
  C   C1089     1.0  0.75049  0.14800  0.88495  1.0000
  H   H1735     1.0  0.73823  0.17858  0.87274  1.0000
  C   C1090     1.0  0.88017  0.15441  0.94219  1.0000
  C   C1091     1.0  0.52707  0.18539  0.90638  1.0000
  H   H1736     1.0  0.51341  0.18679  0.90088  1.0000
  H   H1737     1.0  0.88840  0.17588  0.88541  1.0000
  H   H1738     1.0  0.74867  0.99945  0.53272  1.0000
  H   H1739     1.0  0.72420  0.99240  0.53844  1.0000
  Fe  Fe224     1.0  0.94637  0.00630  0.65108  1.0000
  C   C1092     1.0  0.88276  0.99748  0.72479  1.0000
  N   N108      1.0  0.73922  0.99499  0.50749  1.0000
  C   C1093     1.0  0.86972  0.01282  0.71478  1.0000
  C   C1094     1.0  0.94936  0.17775  0.87439  1.0000
  H   H1740     1.0  0.89671  0.00574  0.53852  1.0000
  H   H1741     1.0  0.93952  0.03280  0.72811  1.0000
  C   C1095     1.0  0.97633  0.14869  0.87771  1.0000
  H   H1742     1.0  0.78992  0.99357  0.68952  1.0000
  C   C1096     1.0  0.52596  0.21738  0.48640  1.0000
  S   S452      1.0  0.65719  0.99497  0.68066  1.0000
  H   H1743     1.0  0.97847  0.01496  0.55114  1.0000
  H   H1744     1.0  0.98452  0.00538  0.57536  1.0000
  C   C1097     1.0  0.90260  0.99034  0.71462  1.0000
  C   C1098     1.0  0.87639  0.02062  0.69451  1.0000
  H   H1745     1.0  0.76213  0.02907  0.80224  1.0000
  H   H1746     1.0  0.58125  0.22859  0.85569  1.0000
  S   S453      1.0  0.55571  0.23035  0.53074  1.0000
  H   H1747     1.0  0.86633  0.03243  0.68665  1.0000
  C   C1099     1.0  0.80605  0.04895  0.82992  1.0000
  C   C1100     1.0  0.79680  0.06065  0.84469  1.0000
  C   C1101     1.0  0.80876  0.06739  0.85432  1.0000
  C   C1102     1.0  0.83008  0.06276  0.84897  1.0000
  C   C1103     1.0  0.83930  0.05088  0.83441  1.0000
  C   C1104     1.0  0.82736  0.04395  0.82496  1.0000
  H   H1748     1.0  0.78032  0.06444  0.84872  1.0000
  H   H1749     1.0  0.80151  0.07628  0.86573  1.0000
  H   H1750     1.0  0.85579  0.04718  0.83023  1.0000
  H   H1751     1.0  0.83468  0.03499  0.81361  1.0000
  H   H1752     1.0  0.87795  0.14827  0.95803  1.0000
  C   C1105     1.0  0.66439  0.03736  0.60977  1.0000
  S   S454      1.0  0.80366  0.07581  0.95384  1.0000
  H   H1753     1.0  0.73810  0.02278  0.56336  1.0000
  H   H1754     1.0  0.75221  0.00796  0.80123  1.0000
  H   H1755     1.0  0.96141  0.16646  0.90958  1.0000
  H   H1756     1.0  0.57731  0.23339  0.57736  1.0000
  H   H1757     1.0  0.72332  0.11026  0.90080  1.0000
  H   H1758     1.0  0.76018  0.99508  0.47916  1.0000
  H   H1759     1.0  0.94319  0.14415  0.86658  1.0000
  C   C1106     1.0  0.79677  0.01065  0.52575  1.0000
  C   C1107     1.0  0.72657  0.12518  0.89469  1.0000
  C   C1108     1.0  0.77862  0.02130  0.53548  1.0000
  H   H1760     1.0  0.70340  0.17236  0.87640  1.0000
  H   H1761     1.0  0.67087  0.13932  0.95268  1.0000
  H   H1762     1.0  0.77334  0.01668  0.55137  1.0000
  S   S455      1.0  0.81213  0.12942  0.91968  1.0000
  C   C1109     1.0  0.58865  0.03441  0.62306  1.0000
  C   C1110     1.0  0.57654  0.03455  0.60980  1.0000
  C   C1111     1.0  0.55882  0.02623  0.61674  1.0000
  S   S456      1.0  0.93477  0.99017  0.68237  1.0000
  C   C1112     1.0  0.56552  0.01722  0.65015  1.0000
  C   C1113     1.0  0.58295  0.02598  0.64329  1.0000
  H   H1763     1.0  0.58063  0.04135  0.59424  1.0000
  H   H1764     1.0  0.54945  0.02647  0.60643  1.0000
  C   C1114     1.0  0.70945  0.01286  0.57198  1.0000
  H   H1765     1.0  0.59206  0.02615  0.65367  1.0000
  H   H1766     1.0  0.53371  0.21180  0.49876  1.0000
  H   H1767     1.0  0.93314  0.18458  0.87983  1.0000
  C   C1115     1.0  0.70645  0.06566  0.50626  1.0000
  H   H1768     1.0  0.98099  0.13315  0.88578  1.0000
  C   C1116     1.0  0.98893  0.07386  0.64495  1.0000
  C   C1117     1.0  0.71526  0.16018  0.88107  1.0000
  C   C1118     1.0  0.77443  0.04407  0.50429  1.0000
  C   C1119     1.0  0.51079  0.20783  0.48466  1.0000
  C   C1120     1.0  0.60753  0.21023  0.96082  1.0000
  H   H1769     1.0  0.70431  0.11579  0.48988  1.0000
  S   S457      1.0  0.52222  0.99206  0.70487  1.0000
  C   C1121     1.0  0.59847  0.15670  0.54300  1.0000
  C   C1122     1.0  0.59908  0.13779  0.55562  1.0000
  C   C1123     1.0  0.60943  0.12026  0.54817  1.0000
  C   C1124     1.0  0.61917  0.12159  0.52804  1.0000
  C   C1125     1.0  0.61869  0.14049  0.51547  1.0000
  C   C1126     1.0  0.60839  0.15799  0.52292  1.0000
  H   H1770     1.0  0.59141  0.13666  0.57115  1.0000
  H   H1771     1.0  0.60968  0.10573  0.55797  1.0000
  H   H1772     1.0  0.62614  0.14159  0.49988  1.0000
  H   H1773     1.0  0.60802  0.17243  0.51309  1.0000
  C   C1127     1.0  0.56271  0.18165  0.92034  1.0000
  H   H1774     1.0  0.63724  0.05005  0.64078  1.0000
  H   H1775     1.0  0.87914  0.02687  0.90618  1.0000
  H   H1776     1.0  0.97430  0.22734  0.87314  1.0000
  H   H1777     1.0  0.86285  0.04514  0.92023  1.0000
  N   N109      1.0  0.73664  0.02256  0.82594  1.0000
  H   H1778     1.0  0.90088  0.01922  0.66862  1.0000
  H   H1779     1.0  0.67667  0.15422  0.92832  1.0000
  C   C1128     1.0  0.90331  0.00174  0.55166  1.0000
  H   H1780     1.0  0.71591  0.06076  0.49232  1.0000
  C   C1129     1.0  0.71099  0.14095  0.88901  1.0000
  H   H1781     1.0  0.59018  0.00333  0.58631  1.0000
  C   C1130     1.0  0.60162  0.99000  0.59118  1.0000
  C   C1131     1.0  0.59772  0.99024  0.69662  1.0000
  S   S458      1.0  0.91801  0.23021  0.94843  1.0000
  S   S459      1.0  0.75944  0.06415  0.49099  1.0000
  S   S460      1.0  0.64422  0.18016  0.86906  1.0000
  H   H1782     1.0  0.62978  0.21928  0.84224  1.0000
  C   C1132     1.0  0.73844  0.99729  0.58753  1.0000
  C   C1133     1.0  0.88608  0.16984  0.90128  1.0000
  H   H1783     1.0  0.70614  0.17149  0.91877  1.0000
  H   H1784     1.0  0.96744  0.04208  0.67517  1.0000
  C   C1134     1.0  0.68232  0.08919  0.48840  1.0000
  C   C1135     1.0  0.84946  0.01710  0.89396  1.0000
  C   C1136     1.0  0.80399  0.01686  0.50529  1.0000
  C   C1137     1.0  0.68219  0.17279  0.95525  1.0000
  H   H1785     1.0  0.81821  0.00886  0.49776  1.0000
  C   C1138     1.0  0.85703  0.04378  0.96791  1.0000
  H   H1786     1.0  0.76409  0.01365  0.83765  1.0000
  C   C1139     1.0  0.89373  0.17802  0.91367  1.0000
  C   C1140     1.0  0.87552  0.15385  0.90922  1.0000
  H   H1787     1.0  0.75343  0.04617  0.53245  1.0000
  N   N110      1.0  0.84701  0.02703  0.91100  1.0000
  S   S461      1.0  0.61849  0.00320  0.53706  1.0000
  H   H1788     1.0  0.56370  0.19480  0.62213  1.0000
  H   H1789     1.0  0.54873  0.20854  0.57283  1.0000
  H   H1790     1.0  0.55818  0.21483  0.95749  1.0000
  H   H1791     1.0  0.67607  0.00365  0.63547  1.0000
  H   H1792     1.0  0.83399  0.00366  0.93277  1.0000
  C   C1141     1.0  0.56847  0.23231  0.97310  1.0000
  H   H1793     1.0  0.61780  0.22740  0.97674  1.0000
  H   H1794     1.0  0.93263  0.16131  0.97683  1.0000
  H   H1795     1.0  0.82548  0.04998  0.92502  1.0000
  H   H1796     1.0  0.86478  0.04914  0.89370  1.0000
  H   H1797     1.0  0.98666  0.15794  0.87948  1.0000
  H   H1798     1.0  0.65070  0.03546  0.65988  1.0000
  C   C1142     1.0  0.72975  0.01637  0.50235  1.0000
  C   C1143     1.0  0.97589  0.00331  0.56487  1.0000
  H   H1799     1.0  0.83663  0.00923  0.89587  1.0000
  C   C1144     1.0  0.82253  0.00970  0.68714  1.0000
  H   H1800     1.0  0.95911  0.18761  0.87612  1.0000
  H   H1801     1.0  0.65326  0.05128  0.60575  1.0000
  C   C1145     1.0  0.79277  0.03357  0.49454  1.0000
  C   C1146     1.0  0.73500  0.16366  0.87896  1.0000
  C   C1147     1.0  0.81640  0.03926  0.97612  1.0000
  H   H1802     1.0  0.52683  0.22127  0.87414  1.0000
  H   H1803     1.0  0.71375  0.14869  0.97031  1.0000
  Fe  Fe225     1.0  0.95024  0.22067  0.95281  1.0000
  H   H1804     1.0  0.80989  0.02099  0.68147  1.0000
  C   C1148     1.0  0.68255  0.01698  0.63495  1.0000
  C   C1149     1.0  0.57119  0.21772  0.96156  1.0000
  S   S462      1.0  0.79599  0.98784  0.80755  1.0000
  C   C1150     1.0  0.74939  0.00873  0.83943  1.0000
  H   H1805     1.0  0.72159  0.16951  0.93644  1.0000
  C   C1151     1.0  0.89110  0.17012  0.93414  1.0000
  S   S463      1.0  0.77499  0.15305  0.88193  1.0000
  S   S464      1.0  0.93408  0.21556  0.90518  1.0000
  S   S465      1.0  0.61513  0.20790  0.90149  1.0000
  S   S466      1.0  0.66401  0.19148  0.90186  1.0000
  H   H1806     1.0  0.73071  0.99544  0.74634  1.0000
  H   H1807     1.0  0.53219  0.23312  0.89174  1.0000
  S   S467      1.0  0.63196  0.15983  0.91697  1.0000
  C   C1152     1.0  0.56416  0.17926  0.90084  1.0000
  C   C1153     1.0  0.71747  0.01531  0.82862  1.0000
  C   C1154     1.0  0.76750  0.03803  0.52482  1.0000
  H   H1808     1.0  0.97023  0.03120  0.70032  1.0000
  H   H1809     1.0  0.71389  0.01954  0.51121  1.0000
  H   H1810     1.0  0.57644  0.18021  0.92576  1.0000
  Fe  Fe226     1.0  0.63419  0.18918  0.92311  1.0000
  H   H1811     1.0  0.97957  0.10467  0.64887  1.0000
  S   S468      1.0  0.90193  0.17900  0.94990  1.0000
  H   H1812     1.0  0.73854  0.03292  0.79426  1.0000
  Fe  Fe227     1.0  0.62940  0.02654  0.54659  1.0000
  S   S469      1.0  0.68622  0.13638  0.89255  1.0000
  C   C1155     1.0  0.74626  0.12872  0.89282  1.0000
  S   S470      1.0  0.95415  0.19102  0.94397  1.0000
  Fe  Fe228     1.0  0.81543  0.09576  0.92499  1.0000
  S   S471      1.0  0.64373  0.01760  0.57333  1.0000
  C   C1156     1.0  0.54266  0.22017  0.58241  1.0000
  H   H1813     1.0  0.86427  0.13399  0.93607  1.0000
  H   H1814     1.0  0.68595  0.01550  0.64992  1.0000
  H   H1815     1.0  0.60487  0.23385  0.82015  1.0000
  C   C1157     1.0  0.82757  0.04174  0.91273  1.0000
  H   H1816     1.0  0.75330  0.99322  0.83626  1.0000
  H   H1817     1.0  0.56864  0.22266  0.88132  1.0000
  Fe  Fe229     1.0  0.80006  0.12894  0.89303  1.0000
  H   H1818     1.0  0.54235  0.18676  0.94825  1.0000
  Fe  Fe230     1.0  0.83075  0.00771  0.75767  1.0000
  C   C1158     1.0  0.57639  0.21858  0.58741  1.0000
  H   H1819     1.0  0.58313  0.20675  0.57816  1.0000
  H   H1820     1.0  0.75810  0.11655  0.89748  1.0000
  C   C1159     1.0  0.54342  0.18535  0.93304  1.0000
  Fe  Fe231     1.0  0.84332  0.12436  0.89964  1.0000
  H   H1821     1.0  0.65775  0.02450  0.60921  1.0000
  N   N111      1.0  0.69608  0.08685  0.50219  1.0000
  H   H1822     1.0  0.84983  0.02821  0.87964  1.0000
  H   H1823     1.0  0.87272  0.04569  0.96492  1.0000
  C   C1160     1.0  0.71155  0.09965  0.49302  1.0000
  C   C1161     1.0  0.68404  0.09278  0.52116  1.0000
  C   C1162     1.0  0.84255  0.05888  0.95939  1.0000
  H   H1824     1.0  0.74153  0.00795  0.85538  1.0000
  H   H1825     1.0  0.67068  0.07945  0.49479  1.0000
  H   H1826     1.0  0.68267  0.99957  0.58415  1.0000
  H   H1827     1.0  0.59283  0.19565  0.94622  1.0000
  S   S472      1.0  0.86772  0.99408  0.51309  1.0000
  N   N112      1.0  0.69563  0.15493  0.94802  1.0000
  H   H1828     1.0  0.84707  0.07242  0.94999  1.0000
  H   H1829     1.0  0.70746  0.02543  0.81869  1.0000
  C   C1163     1.0  0.63413  0.98753  0.69384  1.0000
  S   S473      1.0  0.60145  0.22945  0.53743  1.0000
  H   H1830     1.0  0.71680  0.06325  0.51683  1.0000
  H   H1831     1.0  0.66893  0.16872  0.96714  1.0000
  Fe  Fe232     1.0  0.79183  0.99095  0.77614  1.0000
  H   H1832     1.0  0.69524  0.05555  0.51305  1.0000
  H   H1833     1.0  0.58623  0.21670  0.59829  1.0000
  H   H1834     1.0  0.92508  0.15020  0.88853  1.0000
  H   H1835     1.0  0.97925  0.14831  0.86151  1.0000
  H   H1836     1.0  0.95155  0.17816  0.85810  1.0000
  C   C1164     1.0  0.99659  0.23360  0.84598  1.0000
  N   N113      1.0  0.95468  0.15704  0.88542  1.0000
  C   C1165     1.0  0.70445  0.14126  0.96452  1.0000
  H   H1837     1.0  0.83301  0.00352  0.67424  1.0000
  C   C1166     1.0  0.90937  0.99835  0.69438  1.0000
  H   H1838     1.0  0.86127  0.00054  0.92897  1.0000
  S   S474      1.0  0.58792  0.17427  0.88454  1.0000
  S   S475      1.0  0.76206  0.98984  0.76828  1.0000
  H   H1839     1.0  0.73857  0.02632  0.50544  1.0000
  H   H1840     1.0  0.83130  0.01786  0.69280  1.0000
  H   H1841     1.0  0.72240  0.09790  0.50294  1.0000
  N   N114      1.0  0.66819  0.03590  0.62980  1.0000
  C   C1167     1.0  0.67712  0.05313  0.62984  1.0000
  H   H1842     1.0  0.95748  0.01979  0.68790  1.0000
  C   C1168     1.0  0.64862  0.03621  0.64454  1.0000
  H   H1843     1.0  0.82703  0.05313  0.89875  1.0000
  H   H1844     1.0  0.68009  0.05248  0.64482  1.0000
  H   H1845     1.0  0.66665  0.06763  0.62593  1.0000
  H   H1846     1.0  0.69188  0.05335  0.61882  1.0000
  H   H1847     1.0  0.92708  0.02164  0.71514  1.0000
  H   H1848     1.0  0.56125  0.01070  0.66578  1.0000
  C   C1169     1.0  0.71227  0.16133  0.93157  1.0000
  H   H1849     1.0  0.72342  0.04306  0.84631  1.0000
  H   H1850     1.0  0.64160  0.02325  0.64506  1.0000
  C   C1170     1.0  0.89605  0.01326  0.68429  1.0000
  C   C1171     1.0  0.86421  0.03750  0.90763  1.0000
  C   C1172     1.0  0.98939  0.22234  0.86469  1.0000
  H   H1851     1.0  0.53063  0.23312  0.61726  1.0000
  N   N115      1.0  0.79408  0.12881  0.82906  1.0000
  C   C1173     1.0  0.78467  0.13194  0.81162  1.0000
  C   C1174     1.0  0.79657  0.14836  0.83183  1.0000
  C   C1175     1.0  0.81427  0.11537  0.82569  1.0000
  C   C1176     1.0  0.78072  0.11958  0.84711  1.0000
  H   H1852     1.0  0.78243  0.11747  0.80922  1.0000
  H   H1853     1.0  0.76944  0.14210  0.81367  1.0000
  H   H1854     1.0  0.80400  0.14651  0.84462  1.0000
  H   H1855     1.0  0.80614  0.15608  0.81836  1.0000
  H   H1856     1.0  0.78155  0.15861  0.83519  1.0000
  H   H1857     1.0  0.82141  0.11185  0.83895  1.0000
  H   H1858     1.0  0.82508  0.12224  0.81273  1.0000
  H   H1859     1.0  0.81308  0.10079  0.82267  1.0000
  H   H1860     1.0  0.78723  0.11725  0.86061  1.0000
  H   H1861     1.0  0.77854  0.10476  0.84566  1.0000
  H   H1862     1.0  0.76534  0.12931  0.85005  1.0000
  N   N116      1.0  0.93992  0.04701  0.69739  1.0000
  C   C1177     1.0  0.94354  0.06621  0.69989  1.0000
  C   C1178     1.0  0.92658  0.05110  0.68289  1.0000
  C   C1179     1.0  0.92992  0.03621  0.71674  1.0000
  C   C1180     1.0  0.95964  0.03446  0.68989  1.0000
  H   H1863     1.0  0.92897  0.07615  0.70538  1.0000
  H   H1864     1.0  0.95113  0.07455  0.68540  1.0000
  H   H1865     1.0  0.95363  0.06372  0.71068  1.0000
  H   H1866     1.0  0.92417  0.03689  0.68019  1.0000
  H   H1867     1.0  0.91128  0.05999  0.68828  1.0000
  H   H1868     1.0  0.93336  0.05966  0.66822  1.0000
  H   H1869     1.0  0.91485  0.04511  0.72276  1.0000
  H   H1870     1.0  0.80879  0.01140  0.72565  1.0000
  H   H1871     1.0  0.53852  0.19598  0.61842  1.0000
  H   H1872     1.0  0.56061  0.18522  0.60175  1.0000
  H   H1873     1.0  0.72252  0.05379  0.82057  1.0000
  S   S476      1.0  0.99251  0.18991  0.89523  1.0000
  C   C1181     1.0  0.69807  0.99921  0.58529  1.0000
  C   C1182     1.0  0.94150  0.14446  0.88265  1.0000
  C   C1183     1.0  0.55442  0.19748  0.61059  1.0000
  S   S477      1.0  0.83824  0.00632  0.78722  1.0000
  H   H1874     1.0  0.75402  0.99678  0.58838  1.0000
  C   C1184     1.0  0.60482  0.22477  0.97242  1.0000
  H   H1875     1.0  0.95938  0.00651  0.57189  1.0000
  H   H1876     1.0  0.93547  0.16377  0.91322  1.0000
  H   H1877     1.0  0.69329  0.13093  0.93482  1.0000
  H   H1878     1.0  0.86393  0.00582  0.89220  1.0000
  H   H1879     1.0  0.79560  0.99085  0.73243  1.0000
  H   H1880     1.0  0.79859  0.03859  0.47883  1.0000
  H   H1881     1.0  0.72062  0.00006  0.82489  1.0000
  C   C1185     1.0  0.92074  0.99173  0.58550  1.0000
  H   H1882     1.0  0.76973  0.00099  0.49814  1.0000
  H   H1883     1.0  0.60727  0.99335  0.60328  1.0000
  H   H1884     1.0  0.56556  0.21004  0.86320  1.0000
  H   H1885     1.0  0.54396  0.22690  0.83918  1.0000
  C   C1186     1.0  0.56685  0.22481  0.86564  1.0000
  C   C1187     1.0  0.53043  0.23533  0.87605  1.0000
  H   H1886     1.0  0.61469  0.98859  0.57827  1.0000
  H   H1887     1.0  0.97458  0.99160  0.53135  1.0000
  S   S478      1.0  0.80958  0.98921  0.53950  1.0000
  S   S479      1.0  0.96406  0.23591  0.92226  1.0000
  C   C1188     1.0  0.62490  0.23539  0.83862  1.0000
  H   H1888     1.0  0.52649  0.21911  0.58944  1.0000
  H   H1889     1.0  0.92704  0.98777  0.59878  1.0000
  H   H1890     1.0  0.54260  0.23520  0.57245  1.0000
  C   C1189     1.0  0.54679  0.23341  0.60951  1.0000
  H   H1891     1.0  0.55583  0.23190  0.62101  1.0000
  H   H1892     1.0  0.72093  0.09550  0.47868  1.0000
  N   N117      1.0  0.57647  0.28900  0.12439  1.0000
  Fe  Fe233     1.0  0.80631  0.35210  0.41267  1.0000
  S   S480      1.0  0.83585  0.35037  0.38996  1.0000
  S   S481      1.0  0.78251  0.33241  0.41846  1.0000
  Fe  Fe234     1.0  0.81856  0.38026  0.43374  1.0000
  S   S482      1.0  0.84902  0.38021  0.41294  1.0000
  S   S483      1.0  0.80914  0.39459  0.46124  1.0000
  Fe  Fe235     1.0  0.83175  0.38348  0.38892  1.0000
  S   S484      1.0  0.84391  0.40315  0.36014  1.0000
  Fe  Fe236     1.0  0.85064  0.34733  0.41564  1.0000
  S   S485      1.0  0.87808  0.32330  0.42055  1.0000
  S   S486      1.0  0.80071  0.38588  0.40957  1.0000
  S   S487      1.0  0.82166  0.34683  0.43859  1.0000
  S   S488      1.0  0.96084  0.35517  0.38433  1.0000
  S   S489      1.0  0.65326  0.44533  0.16183  1.0000
  H   H1893     1.0  0.55319  0.27419  0.14479  1.0000
  C   C1190     1.0  0.85457  0.26915  0.42311  1.0000
  Fe  Fe237     1.0  0.74249  0.25910  0.37227  1.0000
  S   S490      1.0  0.76693  0.27849  0.36427  1.0000
  S   S491      1.0  0.71456  0.27038  0.35886  1.0000
  H   H1894     1.0  0.79802  0.47552  0.22376  1.0000
  H   H1895     1.0  0.60139  0.32676  0.00055  1.0000
  S   S492      1.0  0.54394  0.24567  0.98101  1.0000
  S   S493      1.0  0.62911  0.25716  0.21519  1.0000
  C   C1191     1.0  0.88092  0.38528  0.46202  1.0000
  H   H1896     1.0  0.60780  0.27867  0.12730  1.0000
  S   S494      1.0  0.99080  0.46061  0.26532  1.0000
  H   H1897     1.0  0.58466  0.28620  0.09350  1.0000
  Fe  Fe238     1.0  0.58509  0.34610  0.13997  1.0000
  S   S495      1.0  0.61571  0.33633  0.12126  1.0000
  S   S496      1.0  0.57112  0.32526  0.16701  1.0000
  Fe  Fe239     1.0  0.57881  0.38684  0.11270  1.0000
  S   S497      1.0  0.60904  0.37962  0.09180  1.0000
  Fe  Fe240     1.0  0.60035  0.34968  0.09520  1.0000
  S   S498      1.0  0.60588  0.33083  0.07133  1.0000
  Fe  Fe241     1.0  0.62089  0.36722  0.12009  1.0000
  S   S499      1.0  0.65071  0.37090  0.12572  1.0000
  S   S500      1.0  0.56929  0.35792  0.11405  1.0000
  S   S501      1.0  0.59116  0.37608  0.14078  1.0000
  S   S502      1.0  0.51695  0.29645  0.99761  1.0000
  S   S503      1.0  0.53595  0.32498  0.02986  1.0000
  H   H1898     1.0  0.77006  0.48112  0.35908  1.0000
  H   H1899     1.0  0.56370  0.27447  0.10805  1.0000
  H   H1900     1.0  0.61260  0.35777  0.99967  1.0000
  H   H1901     1.0  0.60408  0.38056  0.98333  1.0000
  S   S504      1.0  0.56705  0.29149  0.98764  1.0000
  C   C1192     1.0  0.51047  0.45288  0.13029  1.0000
  H   H1902     1.0  0.89374  0.46596  0.29775  1.0000
  H   H1903     1.0  0.69178  0.31586  0.36213  1.0000
  S   S505      1.0  0.80363  0.48481  0.26125  1.0000
  H   H1904     1.0  0.58322  0.24712  0.98742  1.0000
  Fe  Fe242     1.0  0.72073  0.46946  0.13103  1.0000
  Fe  Fe243     1.0  0.98925  0.33211  0.38861  1.0000
  H   H1905     1.0  0.89716  0.38623  0.46044  1.0000
  H   H1906     1.0  0.80410  0.28368  0.42173  1.0000
  C   C1193     1.0  0.64019  0.26783  0.43581  1.0000
  H   H1907     1.0  0.62115  0.43400  0.15063  1.0000
  H   H1908     1.0  0.82310  0.45926  0.30850  1.0000
  Fe  Fe244     1.0  0.61511  0.23750  0.24327  1.0000
  S   S506      1.0  0.96737  0.47080  0.22750  1.0000
  Fe  Fe245     1.0  0.68071  0.45988  0.15728  1.0000
  S   S507      1.0  0.71345  0.44625  0.15870  1.0000
  C   C1194     1.0  0.59605  0.33368  0.98637  1.0000
  C   C1195     1.0  0.52963  0.44615  0.11886  1.0000
  N   N118      1.0  0.82433  0.48153  0.20090  1.0000
  C   C1196     1.0  0.57286  0.36113  0.00030  1.0000
  S   S508      1.0  0.99567  0.30316  0.37760  1.0000
  H   H1909     1.0  0.84182  0.45232  0.21034  1.0000
  C   C1197     1.0  0.65109  0.39125  0.13640  1.0000
  C   C1198     1.0  0.63375  0.40618  0.13995  1.0000
  C   C1199     1.0  0.63464  0.42249  0.14798  1.0000
  C   C1200     1.0  0.65293  0.42427  0.15216  1.0000
  C   C1201     1.0  0.67022  0.40920  0.14888  1.0000
  C   C1202     1.0  0.66926  0.39271  0.14110  1.0000
  H   H1910     1.0  0.61969  0.40532  0.13630  1.0000
  H   H1911     1.0  0.71339  0.41528  0.07676  1.0000
  H   H1912     1.0  0.68427  0.41020  0.15247  1.0000
  H   H1913     1.0  0.68271  0.38113  0.13854  1.0000
  C   C1203     1.0  0.58620  0.32908  0.06017  1.0000
  C   C1204     1.0  0.59051  0.31617  0.04643  1.0000
  C   C1205     1.0  0.57522  0.31449  0.03720  1.0000
  C   C1206     1.0  0.55551  0.32578  0.04162  1.0000
  C   C1207     1.0  0.55117  0.33849  0.05552  1.0000
  C   C1208     1.0  0.56644  0.34022  0.06469  1.0000
  H   H1914     1.0  0.60574  0.30739  0.04296  1.0000
  H   H1915     1.0  0.57864  0.30440  0.02678  1.0000
  H   H1916     1.0  0.53594  0.34726  0.05904  1.0000
  H   H1917     1.0  0.56293  0.35030  0.07513  1.0000
  H   H1918     1.0  0.85953  0.26106  0.41034  1.0000
  H   H1919     1.0  0.84122  0.30247  0.43906  1.0000
  H   H1920     1.0  0.86711  0.27685  0.42284  1.0000
  C   C1209     1.0  0.61261  0.27540  0.20170  1.0000
  C   C1210     1.0  0.62094  0.28657  0.18338  1.0000
  C   C1211     1.0  0.60832  0.30170  0.17253  1.0000
  C   C1212     1.0  0.58724  0.30580  0.17993  1.0000
  C   C1213     1.0  0.57884  0.29444  0.19812  1.0000
  C   C1214     1.0  0.59149  0.27928  0.20901  1.0000
  H   H1921     1.0  0.63727  0.28351  0.17764  1.0000
  H   H1922     1.0  0.61501  0.31027  0.15859  1.0000
  H   H1923     1.0  0.56254  0.29752  0.20398  1.0000
  H   H1924     1.0  0.58493  0.27076  0.22317  1.0000
  Fe  Fe246     1.0  0.98958  0.44436  0.21700  1.0000
  H   H1925     1.0  0.53350  0.39588  0.13607  1.0000
  H   H1926     1.0  0.85330  0.34818  0.47352  1.0000
  C   C1215     1.0  0.80452  0.47477  0.20774  1.0000
  S   S509      1.0  0.98525  0.42359  0.24679  1.0000
  H   H1927     1.0  0.50461  0.46872  0.12908  1.0000
  H   H1928     1.0  0.84695  0.48589  0.17379  1.0000
  H   H1929     1.0  0.69808  0.23846  0.28874  1.0000
  Fe  Fe247     1.0  0.69733  0.25907  0.38934  1.0000
  H   H1930     1.0  0.62934  0.27089  0.42621  1.0000
  H   H1931     1.0  0.99849  0.24004  0.01909  1.0000
  S   S510      1.0  0.56094  0.41792  0.10455  1.0000
  C   C1216     1.0  0.77877  0.31740  0.40309  1.0000
  C   C1217     1.0  0.78910  0.31819  0.38317  1.0000
  C   C1218     1.0  0.78559  0.30589  0.37161  1.0000
  C   C1219     1.0  0.77182  0.29264  0.37983  1.0000
  C   C1220     1.0  0.76182  0.29158  0.39987  1.0000
  C   C1221     1.0  0.76513  0.30403  0.41135  1.0000
  H   H1932     1.0  0.79956  0.32846  0.37657  1.0000
  H   H1933     1.0  0.79339  0.30683  0.35611  1.0000
  H   H1934     1.0  0.75150  0.28118  0.40652  1.0000
  H   H1935     1.0  0.75719  0.30319  0.42680  1.0000
  C   C1222     1.0  0.82568  0.42133  0.34894  1.0000
  C   C1223     1.0  0.80480  0.42258  0.35709  1.0000
  C   C1224     1.0  0.79051  0.43716  0.34776  1.0000
  C   C1225     1.0  0.63443  0.25990  0.45622  1.0000
  C   C1226     1.0  0.81795  0.44922  0.32213  1.0000
  C   C1227     1.0  0.83223  0.43471  0.33149  1.0000
  H   H1936     1.0  0.79964  0.41223  0.37045  1.0000
  H   H1937     1.0  0.59545  0.30150  0.13611  1.0000
  H   H1938     1.0  0.84835  0.43382  0.32512  1.0000
  C   C1228     1.0  0.90125  0.33166  0.40953  1.0000
  C   C1229     1.0  0.90131  0.35089  0.39785  1.0000
  C   C1230     1.0  0.91965  0.35806  0.39043  1.0000
  C   C1231     1.0  0.93812  0.34581  0.39407  1.0000
  C   C1232     1.0  0.93818  0.32640  0.40538  1.0000
  C   C1233     1.0  0.91973  0.31939  0.41322  1.0000
  H   H1939     1.0  0.88723  0.36031  0.39459  1.0000
  H   H1940     1.0  0.91955  0.37313  0.38188  1.0000
  H   H1941     1.0  0.95241  0.31686  0.40828  1.0000
  H   H1942     1.0  0.91981  0.30449  0.42224  1.0000
  H   H1943     1.0  0.50003  0.24972  0.99870  1.0000
  S   S511      1.0  0.72482  0.24981  0.40324  1.0000
  H   H1944     1.0  0.75817  0.48540  0.24757  1.0000
  H   H1945     1.0  0.58287  0.32702  0.98654  1.0000
  C   C1234     1.0  0.83779  0.41918  0.44931  1.0000
  C   C1235     1.0  0.84881  0.43216  0.45269  1.0000
  C   C1236     1.0  0.75729  0.46059  0.04706  1.0000
  S   S512      1.0  0.73680  0.47732  0.01649  1.0000
  H   H1946     1.0  0.84107  0.41492  0.43488  1.0000
  H   H1947     1.0  0.86070  0.43767  0.44083  1.0000
  C   C1237     1.0  0.53790  0.42562  0.12073  1.0000
  H   H1948     1.0  0.92982  0.45620  0.24028  1.0000
  C   C1238     1.0  0.87990  0.47864  0.25256  1.0000
  C   C1239     1.0  0.52712  0.41177  0.13448  1.0000
  H   H1949     1.0  0.85044  0.37128  0.45591  1.0000
  H   H1950     1.0  0.68134  0.40652  0.09895  1.0000
  C   C1240     1.0  0.89511  0.46730  0.28187  1.0000
  C   C1241     1.0  0.91395  0.46036  0.26996  1.0000
  H   H1951     1.0  0.53810  0.45692  0.10852  1.0000
  Fe  Fe248     1.0  0.96524  0.45086  0.25787  1.0000
  C   C1242     1.0  0.79707  0.45045  0.33026  1.0000
  C   C1243     1.0  0.75928  0.45698  0.06700  1.0000
  H   H1952     1.0  0.74097  0.46269  0.23803  1.0000
  S   S513      1.0  0.99167  0.43632  0.18755  1.0000
  Fe  Fe249     1.0  0.76612  0.47864  0.99332  1.0000
  Fe  Fe250     1.0  0.71794  0.23919  0.35356  1.0000
  H   H1953     1.0  0.57695  0.35537  0.01522  1.0000
  H   H1954     1.0  0.90009  0.47280  0.22487  1.0000
  Fe  Fe251     1.0  0.71240  0.47056  0.17536  1.0000
  C   C1244     1.0  0.87808  0.47644  0.27318  1.0000
  N   N119      1.0  0.62527  0.34739  0.18951  1.0000
  C   C1245     1.0  0.63643  0.33986  0.20600  1.0000
  C   C1246     1.0  0.62288  0.36949  0.18400  1.0000
  C   C1247     1.0  0.60491  0.34176  0.19601  1.0000
  C   C1248     1.0  0.63691  0.33840  0.17201  1.0000
  H   H1955     1.0  0.63846  0.32319  0.21051  1.0000
  H   H1956     1.0  0.62809  0.34634  0.21947  1.0000
  H   H1957     1.0  0.65191  0.34377  0.20157  1.0000
  H   H1958     1.0  0.63797  0.37427  0.17909  1.0000
  H   H1959     1.0  0.61476  0.37559  0.17142  1.0000
  H   H1960     1.0  0.61403  0.37689  0.19674  1.0000
  H   H1961     1.0  0.59631  0.34645  0.18370  1.0000
  H   H1962     1.0  0.59540  0.34885  0.20874  1.0000
  H   H1963     1.0  0.60614  0.32522  0.20102  1.0000
  H   H1964     1.0  0.62864  0.34325  0.15947  1.0000
  H   H1965     1.0  0.63966  0.32171  0.17575  1.0000
  H   H1966     1.0  0.65206  0.34297  0.16620  1.0000
  C   C1249     1.0  0.66019  0.27095  0.42765  1.0000
  H   H1967     1.0  0.89613  0.38532  0.31161  1.0000
  C   C1250     1.0  0.89864  0.47133  0.24079  1.0000
  H   H1968     1.0  0.70378  0.41961  0.11274  1.0000
  C   C1251     1.0  0.73837  0.48100  0.20914  1.0000
  H   H1969     1.0  0.81648  0.26152  0.43614  1.0000
  C   C1252     1.0  0.56845  0.27736  0.14411  1.0000
  C   C1253     1.0  0.59663  0.29288  0.12435  1.0000
  Fe  Fe252     1.0  0.54001  0.31234  0.00188  1.0000
  H   H1970     1.0  0.55995  0.31715  0.13244  1.0000
  C   C1254     1.0  0.52092  0.24104  0.45606  1.0000
  C   C1255     1.0  0.91556  0.46209  0.24947  1.0000
  H   H1971     1.0  0.71353  0.48354  0.08686  1.0000
  H   H1972     1.0  0.83410  0.46550  0.17654  1.0000
  H   H1973     1.0  0.82702  0.28344  0.45350  1.0000
  H   H1974     1.0  0.57889  0.26274  0.14762  1.0000
  C   C1256     1.0  0.74347  0.46508  0.08145  1.0000
  N   N120      1.0  0.83522  0.28368  0.42188  1.0000
  C   C1257     1.0  0.83811  0.29853  0.40309  1.0000
  C   C1258     1.0  0.81893  0.27305  0.42228  1.0000
  C   C1259     1.0  0.82931  0.29414  0.43902  1.0000
  C   C1260     1.0  0.66828  0.25955  0.46053  1.0000
  H   H1975     1.0  0.85061  0.30653  0.40213  1.0000
  H   H1976     1.0  0.82395  0.31004  0.40196  1.0000
  C   C1261     1.0  0.72359  0.48048  0.05588  1.0000
  C   C1262     1.0  0.72560  0.47689  0.07587  1.0000
  H   H1977     1.0  0.88508  0.36065  0.43657  1.0000
  H   H1978     1.0  0.56769  0.37767  0.99877  1.0000
  H   H1979     1.0  0.81473  0.30525  0.43854  1.0000
  H   H1980     1.0  0.80600  0.45901  0.20606  1.0000
  H   H1981     1.0  0.85427  0.47298  0.20786  1.0000
  H   H1982     1.0  0.84203  0.29133  0.38976  1.0000
  N   N121      1.0  0.90497  0.39749  0.33282  1.0000
  C   C1263     1.0  0.88943  0.39139  0.32559  1.0000
  C   C1264     1.0  0.89532  0.40523  0.35148  1.0000
  C   C1265     1.0  0.91374  0.41340  0.31749  1.0000
  C   C1266     1.0  0.92134  0.37993  0.33677  1.0000
  H   H1983     1.0  0.56670  0.28571  0.15632  1.0000
  H   H1984     1.0  0.88218  0.37966  0.33696  1.0000
  H   H1985     1.0  0.90657  0.40989  0.35748  1.0000
  H   H1986     1.0  0.88282  0.41845  0.34906  1.0000
  H   H1987     1.0  0.88830  0.39367  0.36330  1.0000
  H   H1988     1.0  0.90180  0.42687  0.31413  1.0000
  H   H1989     1.0  0.92112  0.40820  0.30313  1.0000
  H   H1990     1.0  0.92554  0.41846  0.32235  1.0000
  H   H1991     1.0  0.93314  0.38385  0.34268  1.0000
  H   H1992     1.0  0.92919  0.37388  0.32296  1.0000
  H   H1993     1.0  0.91513  0.36752  0.34804  1.0000
  H   H1994     1.0  0.50056  0.42468  0.10581  1.0000
  S   S514      1.0  0.68811  0.48150  0.12842  1.0000
  S   S515      1.0  0.54518  0.24085  0.28834  1.0000
  C   C1267     1.0  0.56223  0.30831  0.12055  1.0000
  S   S516      1.0  0.74684  0.46048  0.10614  1.0000
  H   H1995     1.0  0.58937  0.26298  0.11086  1.0000
  Fe  Fe253     1.0  0.54388  0.27781  0.98070  1.0000
  H   H1996     1.0  0.60316  0.30173  0.10972  1.0000
  S   S517      1.0  0.72513  0.46489  0.20350  1.0000
  S   S518      1.0  0.79616  0.47517  0.00182  1.0000
  C   C1268     1.0  0.83198  0.48094  0.17942  1.0000
  S   S519      1.0  0.93555  0.45037  0.28064  1.0000
  N   N122      1.0  0.71096  0.32548  0.37643  1.0000
  C   C1269     1.0  0.71381  0.30597  0.39024  1.0000
  C   C1270     1.0  0.69426  0.33969  0.38646  1.0000
  C   C1271     1.0  0.70565  0.32274  0.35831  1.0000
  C   C1272     1.0  0.73012  0.33341  0.37077  1.0000
  H   H1997     1.0  0.69968  0.29954  0.39488  1.0000
  H   H1998     1.0  0.71799  0.30737  0.40404  1.0000
  H   H1999     1.0  0.72612  0.29482  0.38308  1.0000
  H   H2000     1.0  0.69156  0.35460  0.37647  1.0000
  H   H2001     1.0  0.67967  0.33395  0.39097  1.0000
  H   H2002     1.0  0.69783  0.34207  0.40019  1.0000
  H   H2003     1.0  0.70264  0.33726  0.34783  1.0000
  C   C1273     1.0  0.83923  0.46811  0.21239  1.0000
  H   H2004     1.0  0.71830  0.31265  0.35002  1.0000
  H   H2005     1.0  0.74284  0.32319  0.36269  1.0000
  H   H2006     1.0  0.73508  0.33495  0.38412  1.0000
  H   H2007     1.0  0.72844  0.34838  0.36074  1.0000
  S   S520      1.0  0.66797  0.27844  0.40180  1.0000
  C   C1274     1.0  0.82256  0.41177  0.46460  1.0000
  H   H2008     1.0  0.87638  0.39304  0.44762  1.0000
  H   H2009     1.0  0.52474  0.25398  0.44496  1.0000
  H   H2010     1.0  0.76945  0.45396  0.03610  1.0000
  H   H2011     1.0  0.54694  0.30603  0.12009  1.0000
  H   H2012     1.0  0.87686  0.40429  0.32245  1.0000
  H   H2013     1.0  0.56809  0.31768  0.10599  1.0000
  C   C1275     1.0  0.57864  0.27761  0.10852  1.0000
  H   H2014     1.0  0.77435  0.43802  0.35403  1.0000
  C   C1276     1.0  0.67417  0.26703  0.44006  1.0000
  H   H2015     1.0  0.50102  0.44329  0.07152  1.0000
  N   N123      1.0  0.68801  0.43637  0.08939  1.0000
  C   C1277     1.0  0.70501  0.43093  0.07281  1.0000
  C   C1278     1.0  0.69626  0.43520  0.10716  1.0000
  C   C1279     1.0  0.67373  0.42231  0.09415  1.0000
  C   C1280     1.0  0.67694  0.45703  0.08348  1.0000
  S   S521      1.0  0.60322  0.24723  0.27306  1.0000
  H   H2016     1.0  0.82257  0.26541  0.40927  1.0000
  H   H2017     1.0  0.69946  0.43208  0.05898  1.0000
  H   H2018     1.0  0.70785  0.44489  0.10386  1.0000
  H   H2019     1.0  0.68400  0.44025  0.11962  1.0000
  H   H2020     1.0  0.92279  0.28609  0.98034  1.0000
  H   H2021     1.0  0.79303  0.48435  0.19913  1.0000
  H   H2022     1.0  0.66730  0.42267  0.08105  1.0000
  H   H2023     1.0  0.66062  0.42613  0.10646  1.0000
  H   H2024     1.0  0.68707  0.46813  0.08008  1.0000
  H   H2025     1.0  0.66391  0.46142  0.09568  1.0000
  H   H2026     1.0  0.67072  0.45856  0.06995  1.0000
  H   H2027     1.0  0.83391  0.46811  0.22867  1.0000
  S   S522      1.0  0.77901  0.46877  0.31901  1.0000
  H   H2028     1.0  0.68960  0.26950  0.43384  1.0000
  S   S523      1.0  0.67882  0.48201  0.17667  1.0000
  H   H2029     1.0  0.61915  0.25688  0.46233  1.0000
  H   H2030     1.0  0.71633  0.44094  0.06906  1.0000
  H   H2031     1.0  0.87705  0.45831  0.98555  1.0000
  C   C1281     1.0  0.73946  0.47236  0.04145  1.0000
  H   H2032     1.0  0.77311  0.44776  0.07127  1.0000
  S   S524      1.0  0.85970  0.45348  0.47492  1.0000
  C   C1282     1.0  0.50763  0.41855  0.14562  1.0000
  H   H2033     1.0  0.86497  0.47823  0.43288  1.0000
  H   H2034     1.0  0.85301  0.25772  0.43715  1.0000
  C   C1283     1.0  0.74418  0.47631  0.22772  1.0000
  H   H2035     1.0  0.55951  0.35465  0.00045  1.0000
  Fe  Fe254     1.0  0.99450  0.47827  0.23404  1.0000
  H   H2036     1.0  0.90665  0.35361  0.44831  1.0000
  C   C1284     1.0  0.89005  0.35355  0.45090  1.0000
  C   C1285     1.0  0.84465  0.43793  0.47133  1.0000
  C   C1286     1.0  0.64860  0.25549  0.46850  1.0000
  C   C1287     1.0  0.85615  0.36380  0.46978  1.0000
  N   N124      1.0  0.59030  0.35577  0.98406  1.0000
  H   H2037     1.0  0.88822  0.33759  0.45419  1.0000
  H   H2038     1.0  0.67925  0.25616  0.47004  1.0000
  N   N125      1.0  0.87802  0.36421  0.46718  1.0000
  C   C1288     1.0  0.60787  0.36390  0.98505  1.0000
  S   S525      1.0  0.55110  0.24571  0.47261  1.0000
  H   H2039     1.0  0.86365  0.48196  0.28238  1.0000
  C   C1289     1.0  0.99530  0.24092  0.00460  1.0000
  H   H2040     1.0  0.87151  0.39400  0.47366  1.0000
  C   C1290     1.0  0.57937  0.36607  0.72182  1.0000
  H   H2041     1.0  0.87613  0.36203  0.49851  1.0000
  S   S526      1.0  0.84845  0.45740  0.53513  1.0000
  Fe  Fe255     1.0  0.58528  0.34055  0.65942  1.0000
  S   S527      1.0  0.61727  0.32658  0.64614  1.0000
  Fe  Fe256     1.0  0.58037  0.37068  0.62152  1.0000
  S   S528      1.0  0.61171  0.35878  0.60530  1.0000
  S   S529      1.0  0.56301  0.39854  0.60519  1.0000
  Fe  Fe257     1.0  0.60437  0.32820  0.61918  1.0000
  H   H2042     1.0  0.86038  0.46890  0.83887  1.0000
  Fe  Fe258     1.0  0.62140  0.35852  0.63357  1.0000
  S   S530      1.0  0.64888  0.37295  0.62926  1.0000
  S   S531      1.0  0.57204  0.34022  0.63336  1.0000
  S   S532      1.0  0.59035  0.37225  0.64892  1.0000
  S   S533      1.0  0.59929  0.34750  0.84559  1.0000
  Fe  Fe259     1.0  0.69290  0.43447  0.68235  1.0000
  S   S534      1.0  0.70053  0.45400  0.65232  1.0000
  S   S535      1.0  0.66802  0.41558  0.69125  1.0000
  Fe  Fe260     1.0  0.72311  0.44895  0.69906  1.0000
  S   S536      1.0  0.73279  0.46980  0.67021  1.0000
  S   S537      1.0  0.73750  0.44134  0.72640  1.0000
  H   H2043     1.0  0.73360  0.46520  0.85573  1.0000
  C   C1291     1.0  0.82924  0.43076  0.48656  1.0000
  Fe  Fe261     1.0  0.73326  0.44453  0.65543  1.0000
  S   S538      1.0  0.75830  0.43418  0.63013  1.0000
  S   S539      1.0  0.68939  0.45898  0.69953  1.0000
  S   S540      1.0  0.72584  0.42287  0.68426  1.0000
  H   H2044     1.0  0.58650  0.28742  0.92355  1.0000
  H   H2045     1.0  0.90135  0.46389  0.92279  1.0000
  H   H2046     1.0  0.94808  0.37609  0.80558  1.0000
  S   S541      1.0  0.80246  0.46101  0.79353  1.0000
  H   H2047     1.0  0.62133  0.36000  0.97308  1.0000
  H   H2048     1.0  0.80250  0.45303  0.56513  1.0000
  S   S542      1.0  0.65007  0.23808  0.86207  1.0000
  H   H2049     1.0  0.63279  0.27867  0.84699  1.0000
  H   H2050     1.0  0.81481  0.46811  0.70293  1.0000
  C   C1292     1.0  0.57527  0.28100  0.56992  1.0000
  H   H2051     1.0  0.98694  0.24718  0.84008  1.0000
  S   S543      1.0  0.59157  0.32356  0.93935  1.0000
  S   S544      1.0  0.55164  0.36101  0.81999  1.0000
  S   S545      1.0  0.61438  0.30212  0.60225  1.0000
  H   H2052     1.0  0.54758  0.34066  0.75887  1.0000
  C   C1293     1.0  0.56824  0.35992  0.74106  1.0000
  C   C1294     1.0  0.61864  0.31683  0.50584  1.0000
  H   H2053     1.0  0.55381  0.25995  0.87862  1.0000
  H   H2054     1.0  0.90085  0.31626  0.89467  1.0000
  C   C1295     1.0  0.83119  0.43058  0.93964  1.0000
  C   C1296     1.0  0.99663  0.48512  0.51430  1.0000
  H   H2055     1.0  0.99523  0.31579  0.84057  1.0000
  C   C1297     1.0  0.61201  0.27702  0.82946  1.0000
  C   C1298     1.0  0.84286  0.46087  0.58563  1.0000
  C   C1299     1.0  0.59852  0.27442  0.92778  1.0000
  C   C1300     1.0  0.98963  0.30733  0.83215  1.0000
  H   H2056     1.0  0.60695  0.29309  0.82623  1.0000
  H   H2057     1.0  0.78601  0.42904  0.59304  1.0000
  H   H2058     1.0  0.74868  0.43753  0.83731  1.0000
  Fe  Fe262     1.0  0.90068  0.40399  0.88143  1.0000
  S   S546      1.0  0.92509  0.38639  0.89805  1.0000
  S   S547      1.0  0.86684  0.40708  0.89247  1.0000
  Fe  Fe263     1.0  0.93043  0.41943  0.84506  1.0000
  S   S548      1.0  0.95757  0.40359  0.85837  1.0000
  S   S549      1.0  0.93597  0.43754  0.81396  1.0000
  Fe  Fe264     1.0  0.94159  0.37735  0.86875  1.0000
  S   S550      1.0  0.96120  0.34691  0.86511  1.0000
  Fe  Fe265     1.0  0.93896  0.41403  0.88628  1.0000
  S   S551      1.0  0.95373  0.42404  0.90622  1.0000
  S   S552      1.0  0.91577  0.39242  0.85306  1.0000
  S   S553      1.0  0.91320  0.43243  0.87203  1.0000
  S   S554      1.0  0.91546  0.27423  0.90550  1.0000
  C   C1301     1.0  0.92866  0.29414  0.89472  1.0000
  C   C1302     1.0  0.91738  0.31371  0.89097  1.0000
  C   C1303     1.0  0.92731  0.33001  0.88235  1.0000
  C   C1304     1.0  0.94861  0.32679  0.87713  1.0000
  C   C1305     1.0  0.95997  0.30725  0.88112  1.0000
  C   C1306     1.0  0.95001  0.29094  0.88996  1.0000
  C   C1307     1.0  0.55690  0.33584  0.72861  1.0000
  H   H2059     1.0  0.91843  0.34503  0.87937  1.0000
  H   H2060     1.0  0.97647  0.30473  0.87745  1.0000
  H   H2061     1.0  0.95881  0.27588  0.89278  1.0000
  C   C1308     1.0  0.95973  0.29470  0.96186  1.0000
  S   S555      1.0  0.56951  0.37040  0.76099  1.0000
  H   H2062     1.0  0.91519  0.44625  0.94012  1.0000
  H   H2063     1.0  0.54798  0.32428  0.73124  1.0000
  S   S556      1.0  0.56986  0.32825  0.69077  1.0000
  H   H2064     1.0  0.63092  0.30243  0.73028  1.0000
  H   H2065     1.0  0.50784  0.45462  0.62142  1.0000
  H   H2066     1.0  0.74932  0.48594  0.80150  1.0000
  H   H2067     1.0  0.94033  0.32764  0.94030  1.0000
  H   H2068     1.0  0.81574  0.43870  0.94349  1.0000
  H   H2069     1.0  0.95903  0.27481  0.93375  1.0000
  H   H2070     1.0  0.94847  0.39490  0.81875  1.0000
  C   C1309     1.0  0.94935  0.44948  0.90778  1.0000
  H   H2071     1.0  0.59118  0.24898  0.90870  1.0000
  H   H2072     1.0  0.63323  0.28420  0.75283  1.0000
  Fe  Fe266     1.0  0.56432  0.34989  0.79103  1.0000
  C   C1310     1.0  0.82220  0.43982  0.74792  1.0000
  H   H2073     1.0  0.93318  0.46093  0.88369  1.0000
  H   H2074     1.0  0.57136  0.35825  0.96325  1.0000
  C   C1311     1.0  0.85810  0.41366  0.91613  1.0000
  C   C1312     1.0  0.83795  0.42377  0.92145  1.0000
  H   H2075     1.0  0.82758  0.42651  0.91145  1.0000
  C   C1313     1.0  0.98402  0.37868  0.78007  1.0000
  Fe  Fe267     1.0  0.53623  0.33427  0.82942  1.0000
  C   C1314     1.0  0.77787  0.48480  0.59725  1.0000
  C   C1315     1.0  0.88159  0.45098  0.78371  1.0000
  C   C1316     1.0  0.90097  0.45370  0.77254  1.0000
  C   C1317     1.0  0.91750  0.44983  0.78199  1.0000
  C   C1318     1.0  0.91490  0.44258  0.80258  1.0000
  C   C1319     1.0  0.89565  0.43940  0.81376  1.0000
  C   C1320     1.0  0.87889  0.44395  0.80440  1.0000
  H   H2076     1.0  0.97992  0.37548  0.82985  1.0000
  H   H2077     1.0  0.93236  0.45221  0.77325  1.0000
  H   H2078     1.0  0.89371  0.43331  0.82957  1.0000
  H   H2079     1.0  0.86405  0.44139  0.81304  1.0000
  S   S557      1.0  0.56176  0.31345  0.84254  1.0000
  H   H2080     1.0  0.87708  0.45458  0.59963  1.0000
  S   S558      1.0  0.54651  0.32508  0.79948  1.0000
  H   H2081     1.0  0.54721  0.24859  0.59987  1.0000
  H   H2082     1.0  0.65867  0.30143  0.50526  1.0000
  C   C1321     1.0  0.74637  0.45868  0.73517  1.0000
  H   H2083     1.0  0.88283  0.33834  0.49032  1.0000
  S   S559      1.0  0.77890  0.46142  0.96807  1.0000
  C   C1322     1.0  0.99627  0.44684  0.65821  1.0000
  C   C1323     1.0  0.76334  0.46504  0.75902  1.0000
  C   C1324     1.0  0.75629  0.45171  0.75137  1.0000
  C   C1325     1.0  0.59944  0.26087  0.89903  1.0000
  H   H2084     1.0  0.77070  0.45953  0.77162  1.0000
  H   H2085     1.0  0.75839  0.43591  0.75807  1.0000
  C   C1326     1.0  0.61490  0.28281  0.52100  1.0000
  C   C1327     1.0  0.59616  0.34065  0.87173  1.0000
  C   C1328     1.0  0.57873  0.33380  0.88394  1.0000
  C   C1329     1.0  0.57686  0.32880  0.90486  1.0000
  C   C1330     1.0  0.59256  0.33037  0.91345  1.0000
  C   C1331     1.0  0.60993  0.33707  0.90117  1.0000
  C   C1332     1.0  0.61166  0.34229  0.88045  1.0000
  H   H2086     1.0  0.56661  0.33269  0.87730  1.0000
  H   H2087     1.0  0.56329  0.32382  0.91425  1.0000
  H   H2088     1.0  0.62213  0.33828  0.90768  1.0000
  H   H2089     1.0  0.62513  0.34757  0.87110  1.0000
  C   C1333     1.0  0.57893  0.30461  0.58898  1.0000
  C   C1334     1.0  0.56731  0.29806  0.57876  1.0000
  H   H2090     1.0  0.57276  0.31798  0.59541  1.0000
  H   H2091     1.0  0.55216  0.30646  0.57750  1.0000
  C   C1335     1.0  0.54201  0.41036  0.62103  1.0000
  C   C1336     1.0  0.53553  0.40075  0.64065  1.0000
  C   C1337     1.0  0.51888  0.41047  0.65326  1.0000
  H   H2092     1.0  0.85928  0.46288  0.94805  1.0000
  C   C1338     1.0  0.51556  0.43967  0.62685  1.0000
  C   C1339     1.0  0.53199  0.42980  0.61410  1.0000
  H   H2093     1.0  0.54320  0.38573  0.64607  1.0000
  N   N126      1.0  0.82596  0.45567  0.73006  1.0000
  N   N127      1.0  0.54894  0.24043  0.86155  1.0000
  H   H2094     1.0  0.53701  0.43726  0.59891  1.0000
  C   C1340     1.0  0.65414  0.38415  0.64702  1.0000
  C   C1341     1.0  0.67067  0.39425  0.64136  1.0000
  C   C1342     1.0  0.67502  0.40400  0.65471  1.0000
  C   C1343     1.0  0.66290  0.40369  0.67393  1.0000
  C   C1344     1.0  0.64631  0.39362  0.67961  1.0000
  C   C1345     1.0  0.64191  0.38390  0.66622  1.0000
  H   H2095     1.0  0.68022  0.39449  0.62656  1.0000
  H   H2096     1.0  0.68789  0.41159  0.65019  1.0000
  H   H2097     1.0  0.63682  0.39334  0.69439  1.0000
  H   H2098     1.0  0.62912  0.37622  0.67073  1.0000
  C   C1346     1.0  0.57975  0.35667  0.70613  1.0000
  H   H2099     1.0  0.58889  0.36102  0.69150  1.0000
  H   H2100     1.0  0.58790  0.37792  0.71903  1.0000
  C   C1347     1.0  0.60418  0.26444  0.82178  1.0000
  C   C1348     1.0  0.62661  0.26884  0.84130  1.0000
  H   H2101     1.0  0.56585  0.26441  0.85256  1.0000
  H   H2102     1.0  0.90968  0.29982  0.96073  1.0000
  H   H2103     1.0  0.81466  0.44175  0.71192  1.0000
  S   S560      1.0  0.56023  0.27353  0.55689  1.0000
  N   N128      1.0  0.62755  0.29803  0.51803  1.0000
  C   C1349     1.0  0.98469  0.45095  0.69268  1.0000
  C   C1350     1.0  0.74363  0.47911  0.72661  1.0000
  Fe  Fe268     1.0  0.57336  0.30647  0.81180  1.0000
  C   C1351     1.0  0.76876  0.47120  0.61316  1.0000
  C   C1352     1.0  0.77128  0.45116  0.61150  1.0000
  C   C1353     1.0  0.78391  0.44459  0.59433  1.0000
  C   C1354     1.0  0.79327  0.45813  0.57853  1.0000
  H   H2104     1.0  0.63693  0.25367  0.92487  1.0000
  H   H2105     1.0  0.97891  0.41039  0.81168  1.0000
  N   N129      1.0  0.61190  0.26703  0.90997  1.0000
  H   H2106     1.0  0.77945  0.44271  0.89638  1.0000
  H   H2107     1.0  0.60277  0.32278  0.51335  1.0000
  H   H2108     1.0  0.94214  0.46601  0.83410  1.0000
  H   H2109     1.0  0.97900  0.35623  0.81755  1.0000
  Fe  Fe269     1.0  0.85419  0.46856  0.50170  1.0000
  S   S561      1.0  0.58276  0.26268  0.50173  1.0000
  C   C1355     1.0  0.85635  0.46568  0.88854  1.0000
  H   H2110     1.0  0.74913  0.44150  0.81094  1.0000
  C   C1356     1.0  0.90982  0.47573  0.55995  1.0000
  C   C1357     1.0  0.60631  0.27659  0.58226  1.0000
  H   H2111     1.0  0.90138  0.35422  0.48450  1.0000
  H   H2112     1.0  0.63727  0.31350  0.53602  1.0000
  C   C1358     1.0  0.89961  0.45368  0.93760  1.0000
  H   H2113     1.0  0.60916  0.25483  0.88572  1.0000
  H   H2114     1.0  0.63490  0.28803  0.54716  1.0000
  H   H2115     1.0  0.98076  0.48151  0.78880  1.0000
  C   C1359     1.0  0.77917  0.46982  0.90638  1.0000
  H   H2116     1.0  0.51149  0.38943  0.79872  1.0000
  S   S562      1.0  0.58535  0.27470  0.80761  1.0000
  H   H2117     1.0  0.97851  0.41659  0.78561  1.0000
  H   H2118     1.0  0.57991  0.38092  0.96220  1.0000
  H   H2119     1.0  0.86817  0.48575  0.93578  1.0000
  S   S563      1.0  0.54283  0.29771  0.95079  1.0000
  C   C1360     1.0  0.98476  0.37035  0.81526  1.0000
  S   S564      1.0  0.78312  0.45398  0.85328  1.0000
  H   H2120     1.0  0.80598  0.47889  0.74480  1.0000
  H   H2121     1.0  0.59717  0.31952  0.74739  1.0000
  N   N130      1.0  0.84638  0.47103  0.60027  1.0000
  N   N131      1.0  0.84841  0.46952  0.87008  1.0000
  C   C1361     1.0  0.61086  0.24363  0.82610  1.0000
  H   H2122     1.0  0.75947  0.47624  0.62656  1.0000
  H   H2123     1.0  0.92350  0.45344  0.58217  1.0000
  N   N132      1.0  0.60375  0.42880  0.61814  1.0000
  C   C1362     1.0  0.58144  0.43109  0.62577  1.0000
  C   C1363     1.0  0.60870  0.44821  0.60641  1.0000
  C   C1364     1.0  0.61062  0.41355  0.60523  1.0000
  C   C1365     1.0  0.61428  0.42231  0.63510  1.0000
  H   H2124     1.0  0.57713  0.41667  0.63456  1.0000
  H   H2125     1.0  0.57304  0.43585  0.61333  1.0000
  H   H2126     1.0  0.57563  0.44242  0.63563  1.0000
  H   H2127     1.0  0.62544  0.44694  0.60042  1.0000
  H   H2128     1.0  0.60097  0.45347  0.59348  1.0000
  H   H2129     1.0  0.60373  0.46006  0.61570  1.0000
  H   H2130     1.0  0.60284  0.41773  0.59236  1.0000
  H   H2131     1.0  0.60709  0.39878  0.61363  1.0000
  H   H2132     1.0  0.62744  0.41114  0.59940  1.0000
  H   H2133     1.0  0.63116  0.42045  0.62985  1.0000
  H   H2134     1.0  0.61109  0.40755  0.64406  1.0000
  H   H2135     1.0  0.60943  0.43329  0.64533  1.0000
  H   H2136     1.0  0.62111  0.26837  0.53014  1.0000
  C   C1366     1.0  0.59856  0.29395  0.59068  1.0000
  C   C1367     1.0  0.98290  0.45703  0.67272  1.0000
  C   C1368     1.0  0.56854  0.34148  0.70952  1.0000
  S   S565      1.0  0.59222  0.33038  0.80079  1.0000
  C   C1369     1.0  0.55677  0.34501  0.74432  1.0000
  H   H2137     1.0  0.85104  0.46299  0.70616  1.0000
  H   H2138     1.0  0.87421  0.41191  0.95845  1.0000
  H   H2139     1.0  0.51372  0.40286  0.66837  1.0000
  C   C1370     1.0  0.59482  0.27023  0.57181  1.0000
  Fe  Fe270     1.0  0.87391  0.47275  0.53486  1.0000
  C   C1371     1.0  0.77976  0.45859  0.89195  1.0000
  Fe  Fe271     1.0  0.56340  0.31333  0.95907  1.0000
  C   C1372     1.0  0.98424  0.40450  0.79749  1.0000
  Fe  Fe272     1.0  0.57818  0.33925  0.83060  1.0000
  H   H2140     1.0  0.83233  0.47544  0.74589  1.0000
  H   H2141     1.0  0.98381  0.24387  0.95264  1.0000
  Fe  Fe273     1.0  0.93200  0.24339  0.91711  1.0000
  C   C1373     1.0  0.84427  0.42636  0.95300  1.0000
  H   H2142     1.0  0.85792  0.44320  0.61828  1.0000
  Fe  Fe274     1.0  0.80929  0.46067  0.97495  1.0000
  H   H2143     1.0  0.97853  0.36475  0.78077  1.0000
  H   H2144     1.0  0.87684  0.47582  0.85106  1.0000
  H   H2145     1.0  0.97408  0.45850  0.70399  1.0000
  H   H2146     1.0  0.63517  0.27611  0.72989  1.0000
  H   H2147     1.0  0.63107  0.28877  0.90468  1.0000
  H   H2148     1.0  0.84208  0.43989  0.87429  1.0000
  H   H2149     1.0  0.95862  0.30866  0.96740  1.0000
  H   H2150     1.0  0.83206  0.43908  0.75852  1.0000
  C   C1374     1.0  0.78987  0.47838  0.57979  1.0000
  C   C1375     1.0  0.87126  0.40969  0.92937  1.0000
  C   C1376     1.0  0.54646  0.24144  0.84107  1.0000
  H   H2151     1.0  0.60059  0.30809  0.71576  1.0000
  H   H2152     1.0  0.93478  0.47991  0.80043  1.0000
  H   H2153     1.0  0.95636  0.31142  0.92383  1.0000
  H   H2154     1.0  0.50605  0.25429  0.96190  1.0000
  H   H2155     1.0  0.99474  0.45132  0.64280  1.0000
  C   C1377     1.0  0.78134  0.46783  0.87175  1.0000
  N   N133      1.0  0.88791  0.46471  0.95369  1.0000
  H   H2156     1.0  0.71138  0.45252  0.81812  1.0000
  N   N134      1.0  0.62741  0.38704  0.75265  1.0000
  C   C1378     1.0  0.63754  0.37704  0.76955  1.0000
  C   C1379     1.0  0.62498  0.37172  0.74255  1.0000
  C   C1380     1.0  0.63999  0.40074  0.73826  1.0000
  C   C1381     1.0  0.60709  0.39863  0.76021  1.0000
  H   H2157     1.0  0.63948  0.38817  0.77760  1.0000
  H   H2158     1.0  0.65299  0.36826  0.76436  1.0000
  H   H2159     1.0  0.62847  0.36650  0.78065  1.0000
  H   H2160     1.0  0.61759  0.37882  0.72960  1.0000
  H   H2161     1.0  0.64000  0.36259  0.73675  1.0000
  H   H2162     1.0  0.61522  0.36135  0.75286  1.0000
  H   H2163     1.0  0.63268  0.40877  0.72541  1.0000
  H   H2164     1.0  0.65532  0.39248  0.73188  1.0000
  H   H2165     1.0  0.64252  0.41237  0.74529  1.0000
  H   H2166     1.0  0.59854  0.40553  0.74800  1.0000
  H   H2167     1.0  0.60833  0.41089  0.76718  1.0000
  H   H2168     1.0  0.59749  0.38886  0.77170  1.0000
  H   H2169     1.0  0.63291  0.27772  0.88349  1.0000
  C   C1382     1.0  0.73429  0.48112  0.80601  1.0000
  C   C1383     1.0  0.86237  0.45785  0.61051  1.0000
  H   H2170     1.0  0.85729  0.45602  0.57520  1.0000
  C   C1384     1.0  0.84752  0.45119  0.71956  1.0000
  C   C1385     1.0  0.86417  0.41557  0.94801  1.0000
  H   H2171     1.0  0.72424  0.46860  0.60979  1.0000
  H   H2172     1.0  0.88675  0.40169  0.92544  1.0000
  H   H2173     1.0  0.98574  0.47133  0.81338  1.0000
  H   H2174     1.0  0.92072  0.31289  0.97320  1.0000
  H   H2175     1.0  0.61096  0.29621  0.89098  1.0000
  C   C1386     1.0  0.82187  0.47529  0.73623  1.0000
  H   H2176     1.0  0.69982  0.47282  0.83138  1.0000
  C   C1387     1.0  0.98251  0.48004  0.54971  1.0000
  H   H2177     1.0  0.65542  0.27603  0.51622  1.0000
  H   H2178     1.0  0.71745  0.47458  0.58579  1.0000
  H   H2179     1.0  0.86521  0.45010  0.89144  1.0000
  H   H2180     1.0  0.94528  0.26392  0.95762  1.0000
  Fe  Fe275     1.0  0.79600  0.47087  0.82306  1.0000
  H   H2181     1.0  0.83227  0.47101  0.57640  1.0000
  H   H2182     1.0  0.50023  0.29592  0.93961  1.0000
  H   H2183     1.0  0.95676  0.47769  0.93769  1.0000
  H   H2184     1.0  0.94768  0.40178  0.79280  1.0000
  C   C1388     1.0  0.88599  0.45057  0.97306  1.0000
  H   H2185     1.0  0.62779  0.32870  0.50323  1.0000
  H   H2186     1.0  0.99029  0.46402  0.55236  1.0000
  H   H2187     1.0  0.86670  0.47608  0.88747  1.0000
  H   H2188     1.0  0.73275  0.47465  0.79357  1.0000
  S   S566      1.0  0.86122  0.45572  0.77138  1.0000
  N   N135      1.0  0.94240  0.29602  0.95249  1.0000
  C   C1389     1.0  0.83420  0.45587  0.87246  1.0000
  Fe  Fe276     1.0  0.51740  0.31732  0.96807  1.0000
  C   C1390     1.0  0.62743  0.24964  0.91634  1.0000
  H   H2189     1.0  0.60115  0.25697  0.56528  1.0000
  H   H2190     1.0  0.96474  0.44272  0.93231  1.0000
  C   C1391     1.0  0.62808  0.30188  0.53763  1.0000
  C   C1392     1.0  0.97371  0.47513  0.80440  1.0000
  N   N136      1.0  0.60471  0.28867  0.74374  1.0000
  C   C1393     1.0  0.60017  0.26903  0.75525  1.0000
  C   C1394     1.0  0.62702  0.28781  0.73898  1.0000
  C   C1395     1.0  0.59454  0.30438  0.75577  1.0000
  C   C1396     1.0  0.59714  0.29349  0.72498  1.0000
  H   H2191     1.0  0.58341  0.26939  0.75970  1.0000
  H   H2192     1.0  0.60616  0.26471  0.76927  1.0000
  H   H2193     1.0  0.60712  0.25687  0.74648  1.0000
  H   H2194     1.0  0.85122  0.43651  0.71459  1.0000
  S   S567      1.0  0.96474  0.47812  0.66588  1.0000
  C   C1397     1.0  0.74943  0.44892  0.82319  1.0000
  H   H2195     1.0  0.84372  0.46744  0.90183  1.0000
  H   H2196     1.0  0.60017  0.30138  0.76988  1.0000
  H   H2197     1.0  0.57772  0.30510  0.76007  1.0000
  H   H2198     1.0  0.60423  0.28188  0.71557  1.0000
  H   H2199     1.0  0.59069  0.26253  0.93817  1.0000
  C   C1398     1.0  0.93395  0.48461  0.89836  1.0000
  H   H2200     1.0  0.53877  0.27226  0.86011  1.0000
  H   H2201     1.0  0.82591  0.43510  0.50097  1.0000
  H   H2202     1.0  0.82164  0.45739  0.88579  1.0000
  N   N137      1.0  0.97684  0.38581  0.79926  1.0000
  H   H2203     1.0  0.82704  0.45889  0.85932  1.0000
  H   H2204     1.0  0.58028  0.29470  0.72790  1.0000
  C   C1399     1.0  0.50237  0.23915  0.96387  1.0000
  C   C1400     1.0  0.94206  0.31315  0.93547  1.0000
  C   C1401     1.0  0.50892  0.42994  0.64641  1.0000
  C   C1402     1.0  0.81230  0.45641  0.71664  1.0000
  H   H2205     1.0  0.97609  0.31727  0.82681  1.0000
  S   S568      1.0  0.53789  0.33511  0.97362  1.0000
  H   H2206     1.0  0.71108  0.44892  0.84433  1.0000
  H   H2207     1.0  0.50687  0.36478  0.81091  1.0000
  C   C1403     1.0  0.94474  0.27725  0.94524  1.0000
  C   C1404     1.0  0.63289  0.24803  0.84608  1.0000
  Fe  Fe277     1.0  0.57300  0.25224  0.53480  1.0000
  S   S569      1.0  0.89681  0.45915  0.55491  1.0000
  C   C1405     1.0  0.95622  0.45438  0.92275  1.0000
  H   H2208     1.0  0.60731  0.27948  0.93630  1.0000
  C   C1406     1.0  0.71284  0.45990  0.82996  1.0000
  H   H2209     1.0  0.81495  0.48540  0.60750  1.0000
  H   H2210     1.0  0.61450  0.27948  0.50645  1.0000
  H   H2211     1.0  0.61789  0.31439  0.49100  1.0000
  H   H2212     1.0  0.96037  0.28195  0.97482  1.0000
  H   H2213     1.0  0.62141  0.26817  0.58365  1.0000
  H   H2214     1.0  0.93179  0.27757  0.93831  1.0000
  C   C1407     1.0  0.95429  0.38977  0.80425  1.0000
  C   C1408     1.0  0.92202  0.46889  0.57436  1.0000
  H   H2215     1.0  0.85812  0.45044  0.72948  1.0000
  H   H2216     1.0  0.63792  0.24370  0.90330  1.0000
  H   H2217     1.0  0.59885  0.28792  0.52860  1.0000
  H   H2218     1.0  0.83616  0.44728  0.59303  1.0000
  H   H2219     1.0  0.64859  0.28753  0.49270  1.0000
  C   C1409     1.0  0.55199  0.26012  0.86334  1.0000
  H   H2220     1.0  0.90314  0.45903  0.75655  1.0000
  S   S570      1.0  0.82687  0.47812  0.81856  1.0000
  C   C1410     1.0  0.81825  0.41770  0.48318  1.0000
  Fe  Fe278     1.0  0.61034  0.23836  0.50426  1.0000
  H   H2221     1.0  0.97850  0.39019  0.76767  1.0000
  S   S571      1.0  0.50423  0.33496  0.84756  1.0000
  S   S572      1.0  0.88148  0.48107  0.50153  1.0000
  H   H2222     1.0  0.77832  0.46260  0.92188  1.0000
  H   H2223     1.0  0.92915  0.31450  0.92807  1.0000
  C   C1411     1.0  0.73404  0.47602  0.84124  1.0000
  C   C1412     1.0  0.64851  0.29051  0.50759  1.0000
  C   C1413     1.0  0.88490  0.35425  0.48597  1.0000
  C   C1414     1.0  0.93842  0.46464  0.89535  1.0000
  H   H2224     1.0  0.59721  0.36037  0.95192  1.0000
  H   H2225     1.0  0.98138  0.48654  0.51082  1.0000
  H   H2226     1.0  0.96949  0.46082  0.80400  1.0000
  Fe  Fe279     1.0  0.83195  0.47176  0.78790  1.0000
  C   C1415     1.0  0.58444  0.36428  0.96453  1.0000
  N   N138      1.0  0.73265  0.46650  0.82510  1.0000
  H   H2227     1.0  0.84647  0.37183  0.48184  1.0000
  H   H2228     1.0  0.80643  0.41207  0.49507  1.0000
  C   C1416     1.0  0.62217  0.28313  0.89672  1.0000
  H   H2229     1.0  0.61244  0.30723  0.54605  1.0000
  H   H2230     1.0  0.90121  0.44310  0.97649  1.0000
  H   H2231     1.0  0.50409  0.27500  0.82317  1.0000
  H   H2232     1.0  0.58788  0.27379  0.89363  1.0000
  Fe  Fe280     1.0  0.69926  0.47778  0.66946  1.0000
  H   H2233     1.0  0.56018  0.24522  0.82973  1.0000
  H   H2234     1.0  0.74866  0.48148  0.83789  1.0000
  H   H2235     1.0  0.51685  0.24739  0.87412  1.0000
  H   H2236     1.0  0.79591  0.46009  0.72409  1.0000
  H   H2237     1.0  0.53310  0.25307  0.83748  1.0000
  C   C1417     1.0  0.92304  0.29885  0.96737  1.0000
  H   H2238     1.0  0.76455  0.45333  0.81995  1.0000
  H   H2239     1.0  0.82542  0.42475  0.74386  1.0000
  H   H2240     1.0  0.89198  0.44171  0.93663  1.0000
  H   H2241     1.0  0.98414  0.29430  0.84299  1.0000
  H   H2242     1.0  0.80604  0.44260  0.75612  1.0000
  S   S573      1.0  0.83632  0.43530  0.97553  1.0000
  Fe  Fe281     1.0  0.56832  0.23842  0.49784  1.0000
  H   H2243     1.0  0.97985  0.48567  0.56382  1.0000
  H   H2244     1.0  0.87392  0.45010  0.85554  1.0000
  H   H2245     1.0  0.99384  0.47968  0.71095  1.0000
  H   H2246     1.0  0.97462  0.29224  0.95112  1.0000
  C   C1418     1.0  0.98678  0.24315  0.96715  1.0000
  C   C1419     1.0  0.86738  0.47418  0.94973  1.0000
  C   C1420     1.0  0.82714  0.47534  0.61497  1.0000
  C   C1421     1.0  0.86566  0.46596  0.85313  1.0000
  C   C1422     1.0  0.95170  0.47417  0.92580  1.0000
  S   S574      1.0  0.64252  0.24388  0.49357  1.0000
  H   H2247     1.0  0.82131  0.46136  0.62288  1.0000
  H   H2248     1.0  0.87789  0.43856  0.97308  1.0000
  H   H2249     1.0  0.73595  0.48464  0.71418  1.0000
  H   H2250     1.0  0.96722  0.48055  0.54683  1.0000
  H   H2251     1.0  0.94169  0.47656  0.58984  1.0000
  S   S575      1.0  0.97952  0.47885  0.60699  1.0000
  H   H2252     1.0  0.95835  0.47671  0.84329  1.0000
  C   C1423     1.0  0.99749  0.28968  0.80471  1.0000
  C   C1424     1.0  0.94705  0.48023  0.83353  1.0000
  C   C1425     1.0  0.76040  0.48551  0.75058  1.0000
  H   H2253     1.0  0.51291  0.30801  0.81992  1.0000
  C   C1426     1.0  0.93234  0.48195  0.57872  1.0000
  H   H2254     1.0  0.85769  0.48154  0.96223  1.0000
  H   H2255     1.0  0.91434  0.47393  0.95696  1.0000
  H   H2256     1.0  0.99182  0.27641  0.81483  1.0000
  H   H2257     1.0  0.98456  0.29936  0.79815  1.0000
  H   H2258     1.0  0.86545  0.46496  0.62173  1.0000
  H   H2259     1.0  0.60849  0.32904  0.97383  1.0000
  H   H2260     1.0  0.74067  0.48006  0.58827  1.0000
  C   C1427     1.0  0.89862  0.48044  0.95434  1.0000
  H   H2261     1.0  0.82917  0.48291  0.62637  1.0000
  C   C1428     1.0  0.50383  0.30160  0.83373  1.0000
  C   C1429     1.0  0.72438  0.47999  0.59568  1.0000
  C   C1430     1.0  0.50011  0.37944  0.80250  1.0000
  H   H2262     1.0  0.62023  0.23710  0.92611  1.0000
  Fe  Fe282     1.0  0.79900  0.50385  0.98008  1.0000
  Fe  Fe283     1.0  0.60835  0.67543  0.97987  1.0000
  Fe  Fe284     1.0  0.83430  0.60967  0.39731  1.0000
  S   S576      1.0  0.86600  0.59736  0.38185  1.0000
  S   S577      1.0  0.81718  0.59246  0.42521  1.0000
  Fe  Fe285     1.0  0.82862  0.64564  0.36409  1.0000
  S   S578      1.0  0.85979  0.63590  0.34602  1.0000
  S   S579      1.0  0.80965  0.67369  0.34947  1.0000
  Fe  Fe286     1.0  0.85253  0.60488  0.35442  1.0000
  S   S580      1.0  0.86078  0.58424  0.33167  1.0000
  Fe  Fe287     1.0  0.87034  0.62957  0.37498  1.0000
  S   S581      1.0  0.90061  0.63853  0.37322  1.0000
  S   S582      1.0  0.82054  0.61521  0.37027  1.0000
  S   S583      1.0  0.83943  0.64135  0.39262  1.0000
  H   H2263     1.0  0.90825  0.52992  0.28130  1.0000
  H   H2264     1.0  0.94900  0.48905  0.26310  1.0000
  H   H2265     1.0  0.50532  0.54671  0.08441  1.0000
  H   H2266     1.0  0.78481  0.52223  0.37457  1.0000
  Fe  Fe288     1.0  0.80054  0.53232  0.28292  1.0000
  S   S584      1.0  0.77292  0.51968  0.28443  1.0000
  S   S585      1.0  0.79429  0.55711  0.30082  1.0000
  H   H2267     1.0  0.51416  0.71579  0.09033  1.0000
  H   H2268     1.0  0.80682  0.56391  0.46088  1.0000
  Fe  Fe289     1.0  0.78586  0.51571  0.25267  1.0000
  S   S586      1.0  0.77015  0.52356  0.22621  1.0000
  C   C1431     1.0  0.55760  0.67320  0.29150  1.0000
  S   S587      1.0  0.81155  0.53161  0.25009  1.0000
  H   H2269     1.0  0.55136  0.55774  0.15364  1.0000
  C   C1432     1.0  0.53236  0.68821  0.06725  1.0000
  H   H2270     1.0  0.77915  0.49098  0.04433  1.0000
  C   C1433     1.0  0.64701  0.73616  0.46946  1.0000
  H   H2271     1.0  0.52777  0.69926  0.27542  1.0000
  H   H2272     1.0  0.55859  0.70634  0.24598  1.0000
  H   H2273     1.0  0.53790  0.68268  0.05287  1.0000
  H   H2274     1.0  0.53216  0.64684  0.30424  1.0000
  H   H2275     1.0  0.75135  0.50950  0.02723  1.0000
  H   H2276     1.0  0.94249  0.67334  0.39548  1.0000
  H   H2277     1.0  0.91387  0.54864  0.25935  1.0000
  H   H2278     1.0  0.93374  0.71024  0.38333  1.0000
  H   H2279     1.0  0.62968  0.73265  0.35855  1.0000
  H   H2280     1.0  0.51552  0.68924  0.07142  1.0000
  C   C1434     1.0  0.76081  0.73069  0.42044  1.0000
  C   C1435     1.0  0.78463  0.50528  0.04204  1.0000
  S   S588      1.0  0.67576  0.53574  0.14197  1.0000
  C   C1436     1.0  0.56060  0.54602  0.16321  1.0000
  C   C1437     1.0  0.89156  0.67516  0.41331  1.0000
  C   C1438     1.0  0.87498  0.50481  0.44884  1.0000
  H   H2281     1.0  0.72124  0.68509  0.37417  1.0000
  C   C1439     1.0  0.59065  0.66439  0.23232  1.0000
  C   C1440     1.0  0.55715  0.66691  0.22561  1.0000
  H   H2282     1.0  0.60601  0.70183  0.17577  1.0000
  H   H2283     1.0  0.54425  0.69811  0.36354  1.0000
  H   H2284     1.0  0.69621  0.54672  0.21722  1.0000
  Fe  Fe290     1.0  0.56712  0.63219  0.15257  1.0000
  S   S589      1.0  0.58108  0.62476  0.17969  1.0000
  S   S590      1.0  0.58271  0.65082  0.12471  1.0000
  Fe  Fe291     1.0  0.57174  0.59499  0.18450  1.0000
  S   S591      1.0  0.58925  0.56411  0.19467  1.0000
  Fe  Fe292     1.0  0.54925  0.63535  0.19607  1.0000
  S   S592      1.0  0.56057  0.60138  0.15593  1.0000
  Fe  Fe293     1.0  0.57509  0.66454  0.01571  1.0000
  S   S593      1.0  0.56301  0.64373  0.04380  1.0000
  H   H2285     1.0  0.78742  0.65932  0.38935  1.0000
  H   H2286     1.0  0.64893  0.52742  0.22228  1.0000
  Fe  Fe294     1.0  0.57969  0.70779  0.00051  1.0000
  H   H2287     1.0  0.55332  0.72364  0.33346  1.0000
  S   S594      1.0  0.55310  0.69264  0.00682  1.0000
  C   C1441     1.0  0.57800  0.64763  0.10234  1.0000
  C   C1442     1.0  0.56313  0.63697  0.10254  1.0000
  C   C1443     1.0  0.55909  0.63531  0.08446  1.0000
  C   C1444     1.0  0.56975  0.64444  0.06612  1.0000
  C   C1445     1.0  0.58479  0.65485  0.06598  1.0000
  C   C1446     1.0  0.58891  0.65643  0.08402  1.0000
  H   H2288     1.0  0.55459  0.63016  0.11660  1.0000
  H   H2289     1.0  0.54745  0.62719  0.08471  1.0000
  H   H2290     1.0  0.59335  0.66161  0.05199  1.0000
  C   C1447     1.0  0.65078  0.54348  0.15505  1.0000
  C   C1448     1.0  0.64259  0.56405  0.15388  1.0000
  C   C1449     1.0  0.62332  0.57055  0.16546  1.0000
  C   C1450     1.0  0.61240  0.55648  0.17855  1.0000
  C   C1451     1.0  0.62040  0.53593  0.17941  1.0000
  C   C1452     1.0  0.63938  0.52945  0.16743  1.0000
  H   H2291     1.0  0.65126  0.57497  0.14416  1.0000
  H   H2292     1.0  0.61718  0.58644  0.16464  1.0000
  H   H2293     1.0  0.61197  0.52496  0.18942  1.0000
  H   H2294     1.0  0.64531  0.51359  0.16803  1.0000
  H   H2295     1.0  0.95170  0.50508  0.27828  1.0000
  S   S595      1.0  0.60101  0.69060  0.24978  1.0000
  C   C1453     1.0  0.51183  0.70822  0.36594  1.0000
  H   H2296     1.0  0.84802  0.53301  0.41413  1.0000
  H   H2297     1.0  0.58261  0.64294  0.21937  1.0000
  H   H2298     1.0  0.52260  0.52200  0.19190  1.0000
  S   S596      1.0  0.97029  0.71193  0.39854  1.0000
  H   H2299     1.0  0.94935  0.72495  0.36383  1.0000
  H   H2300     1.0  0.67412  0.56065  0.20749  1.0000
  H   H2301     1.0  0.61564  0.72779  0.99536  1.0000
  H   H2302     1.0  0.87897  0.68168  0.42400  1.0000
  C   C1454     1.0  0.75778  0.50699  0.22012  1.0000
  C   C1455     1.0  0.75205  0.51167  0.20150  1.0000
  C   C1456     1.0  0.85963  0.52911  0.42360  1.0000
  H   H2303     1.0  0.71397  0.72213  0.36307  1.0000
  C   C1457     1.0  0.65898  0.52875  0.20713  1.0000
  H   H2304     1.0  0.53823  0.65258  0.32542  1.0000
  H   H2305     1.0  0.75513  0.52535  0.19125  1.0000
  H   H2306     1.0  0.92862  0.49523  0.28337  1.0000
  S   S597      1.0  0.53584  0.64470  0.16853  1.0000
  H   H2307     1.0  0.93127  0.53976  0.27612  1.0000
  H   H2308     1.0  0.99189  0.51688  0.15850  1.0000
  C   C1458     1.0  0.60537  0.66685  0.16656  1.0000
  C   C1459     1.0  0.75388  0.48918  0.23318  1.0000
  N   N139      1.0  0.57123  0.71666  0.46063  1.0000
  H   H2309     1.0  0.98111  0.72295  0.46849  1.0000
  N   N140      1.0  0.68018  0.52894  0.20780  1.0000
  H   H2310     1.0  0.53966  0.51672  0.16900  1.0000
  H   H2311     1.0  0.81025  0.51286  0.19574  1.0000
  C   C1460     1.0  0.52949  0.65868  0.31327  1.0000
  H   H2312     1.0  0.57233  0.52887  0.19788  1.0000
  S   S598      1.0  0.82003  0.50266  0.29260  1.0000
  S   S599      1.0  0.58150  0.71247  0.29938  1.0000
  C   C1461     1.0  0.84225  0.57526  0.32450  1.0000
  C   C1462     1.0  0.84847  0.56370  0.30941  1.0000
  C   C1463     1.0  0.83401  0.55738  0.30246  1.0000
  C   C1464     1.0  0.81317  0.56283  0.31041  1.0000
  C   C1465     1.0  0.80697  0.57400  0.32578  1.0000
  C   C1466     1.0  0.82144  0.58006  0.33292  1.0000
  H   H2313     1.0  0.86454  0.55985  0.30288  1.0000
  H   H2314     1.0  0.83895  0.54879  0.29060  1.0000
  H   H2315     1.0  0.79088  0.57822  0.33206  1.0000
  H   H2316     1.0  0.81646  0.58870  0.34471  1.0000
  C   C1467     1.0  0.90424  0.65404  0.38816  1.0000
  C   C1468     1.0  0.92383  0.65812  0.38582  1.0000
  C   C1469     1.0  0.88811  0.66261  0.40199  1.0000
  H   H2317     1.0  0.93644  0.65134  0.37533  1.0000
  H   H2318     1.0  0.87301  0.65950  0.40405  1.0000
  H   H2319     1.0  0.90037  0.70558  0.37749  1.0000
  C   C1470     1.0  0.86323  0.56785  0.45496  1.0000
  C   C1471     1.0  0.85184  0.57990  0.44098  1.0000
  C   C1472     1.0  0.83153  0.57838  0.44300  1.0000
  C   C1473     1.0  0.82260  0.56496  0.45916  1.0000
  C   C1474     1.0  0.68858  0.51002  0.22020  1.0000
  H   H2320     1.0  0.87897  0.56902  0.45331  1.0000
  H   H2321     1.0  0.85878  0.59036  0.42868  1.0000
  C   C1475     1.0  0.51401  0.58244  0.14557  1.0000
  H   H2322     1.0  0.53489  0.69276  0.23355  1.0000
  C   C1476     1.0  0.58391  0.68216  0.24013  1.0000
  C   C1477     1.0  0.77908  0.67381  0.38340  1.0000
  C   C1478     1.0  0.78677  0.68405  0.36438  1.0000
  H   H2323     1.0  0.61070  0.70058  0.13965  1.0000
  C   C1479     1.0  0.68228  0.70316  0.37550  1.0000
  H   H2324     1.0  0.65832  0.51589  0.20068  1.0000
  H   H2325     1.0  0.82109  0.49098  0.17034  1.0000
  H   H2326     1.0  0.83494  0.51928  0.45919  1.0000
  N   N141      1.0  0.92009  0.72508  0.35821  1.0000
  C   C1480     1.0  0.75727  0.52348  0.02530  1.0000
  S   S600      1.0  0.58414  0.65716  0.98485  1.0000
  C   C1481     1.0  0.68966  0.69930  0.34107  1.0000
  S   S601      1.0  0.72208  0.49261  0.14777  1.0000
  H   H2327     1.0  0.81584  0.50333  0.21999  1.0000
  H   H2328     1.0  0.60202  0.65813  0.18207  1.0000
  C   C1482     1.0  0.79720  0.50529  0.34205  1.0000
  H   H2329     1.0  0.56542  0.72022  0.05718  1.0000
  H   H2330     1.0  0.78673  0.54335  0.02359  1.0000
  H   H2331     1.0  0.80257  0.51818  0.33087  1.0000
  H   H2332     1.0  0.67763  0.71254  0.33728  1.0000
  C   C1483     1.0  0.99630  0.51289  0.18855  1.0000
  S   S602      1.0  0.60113  0.68022  0.01152  1.0000
  H   H2333     1.0  0.75447  0.67417  0.40935  1.0000
  H   H2334     1.0  0.56884  0.53409  0.15445  1.0000
  H   H2335     1.0  0.60060  0.66447  0.08377  1.0000
  Fe  Fe295     1.0  0.59306  0.71691  0.26609  1.0000
  C   C1484     1.0  0.53233  0.52873  0.17791  1.0000
  Fe  Fe296     1.0  0.53029  0.61317  0.17434  1.0000
  H   H2336     1.0  0.55143  0.51593  0.20884  1.0000
  H   H2337     1.0  0.92521  0.50127  0.23984  1.0000
  N   N142      1.0  0.85968  0.50892  0.43628  1.0000
  H   H2338     1.0  0.59512  0.68757  0.13219  1.0000
  H   H2339     1.0  0.50598  0.70931  0.98260  1.0000
  Fe  Fe297     1.0  0.98151  0.71964  0.42278  1.0000
  C   C1485     1.0  0.57736  0.65682  0.22501  1.0000
  H   H2340     1.0  0.80786  0.49982  0.35253  1.0000
  H   H2341     1.0  0.50388  0.58030  0.06215  1.0000
  H   H2342     1.0  0.58734  0.71887  0.43000  1.0000
  H   H2343     1.0  0.98482  0.50369  0.19502  1.0000
  H   H2344     1.0  0.69565  0.73353  0.34772  1.0000
  H   H2345     1.0  0.94235  0.54002  0.23134  1.0000
  Fe  Fe298     1.0  0.68857  0.50252  0.14787  1.0000
  H   H2346     1.0  0.74627  0.52325  0.34555  1.0000
  H   H2347     1.0  0.76003  0.52011  0.07357  1.0000
  H   H2348     1.0  0.99324  0.62232  0.08692  1.0000
  H   H2349     1.0  0.63925  0.73192  0.99843  1.0000
  S   S603      1.0  0.50582  0.68875  0.38592  1.0000
  C   C1486     1.0  0.83923  0.50812  0.44921  1.0000
  Fe  Fe299     1.0  0.82876  0.50069  0.26010  1.0000
  N   N143      1.0  0.76756  0.52274  0.04158  1.0000
  Fe  Fe300     1.0  0.60503  0.72980  0.29973  1.0000
  H   H2350     1.0  0.56576  0.67194  0.18292  1.0000
  S   S604      1.0  0.53971  0.65764  0.21723  1.0000
  H   H2351     1.0  0.77976  0.54071  0.35292  1.0000
  H   H2352     1.0  0.62112  0.66978  0.16370  1.0000
  H   H2353     1.0  0.53399  0.71908  0.03555  1.0000
  C   C1487     1.0  0.52358  0.68506  0.28498  1.0000
  H   H2354     1.0  0.76306  0.55487  0.03757  1.0000
  H   H2355     1.0  0.87565  0.48963  0.45846  1.0000
  H   H2356     1.0  0.73836  0.50235  0.18155  1.0000
  C   C1488     1.0  0.94064  0.50140  0.27123  1.0000
  H   H2357     1.0  0.51548  0.69593  0.32100  1.0000
  S   S605      1.0  0.61840  0.73188  0.26695  1.0000
  H   H2358     1.0  0.72744  0.68255  0.34848  1.0000
  H   H2359     1.0  0.74670  0.50676  0.06401  1.0000
  H   H2360     1.0  0.85596  0.54088  0.43285  1.0000
  C   C1489     1.0  0.56064  0.52241  0.19437  1.0000
  H   H2361     1.0  0.56826  0.69497  0.07122  1.0000
  H   H2362     1.0  0.67526  0.68953  0.38069  1.0000
  H   H2363     1.0  0.60616  0.65630  0.23218  1.0000
  C   C1490     1.0  0.77478  0.52726  0.36346  1.0000
  H   H2364     1.0  0.82723  0.51140  0.44028  1.0000
  C   C1491     1.0  0.85443  0.55413  0.47088  1.0000
  H   H2365     1.0  0.89056  0.50573  0.43969  1.0000
  C   C1492     1.0  0.93815  0.71490  0.36684  1.0000
  H   H2366     1.0  0.59460  0.69196  0.46964  1.0000
  H   H2367     1.0  0.52762  0.56641  0.18434  1.0000
  H   H2368     1.0  0.53908  0.67644  0.07877  1.0000
  H   H2369     1.0  0.91433  0.69711  0.35495  1.0000
  H   H2370     1.0  0.68844  0.70500  0.38802  1.0000
  C   C1493     1.0  0.68039  0.54614  0.21653  1.0000
  H   H2371     1.0  0.80049  0.72702  0.40267  1.0000
  H   H2372     1.0  0.52686  0.54875  0.20747  1.0000
  H   H2373     1.0  0.67905  0.50762  0.23555  1.0000
  C   C1494     1.0  0.76935  0.49347  0.36695  1.0000
  H   H2374     1.0  0.68243  0.68582  0.34532  1.0000
  H   H2375     1.0  0.95989  0.53037  0.24795  1.0000
  N   N144      1.0  0.93179  0.51907  0.25765  1.0000
  C   C1495     1.0  0.94833  0.52645  0.24170  1.0000
  C   C1496     1.0  0.92081  0.53506  0.26910  1.0000
  H   H2376     1.0  0.51298  0.66134  0.32057  1.0000
  C   C1497     1.0  0.91738  0.51331  0.24860  1.0000
  N   N145      1.0  0.54767  0.53784  0.18219  1.0000
  S   S606      1.0  0.85941  0.49097  0.24083  1.0000
  H   H2377     1.0  0.83869  0.49306  0.45894  1.0000
  H   H2378     1.0  0.60310  0.71541  0.45920  1.0000
  H   H2379     1.0  0.76282  0.50676  0.32975  1.0000
  H   H2380     1.0  0.52481  0.56361  0.12336  1.0000
  H   H2381     1.0  0.79257  0.50401  0.05433  1.0000
  H   H2382     1.0  0.94620  0.70117  0.36065  1.0000
  C   C1498     1.0  0.59003  0.70850  0.46866  1.0000
  S   S607      1.0  0.57433  0.73592  0.01249  1.0000
  C   C1499     1.0  0.63015  0.73274  0.98718  1.0000
  H   H2383     1.0  0.70879  0.53150  0.18715  1.0000
  N   N146      1.0  0.81818  0.63908  0.29938  1.0000
  C   C1500     1.0  0.83588  0.62987  0.30886  1.0000
  C   C1501     1.0  0.82551  0.64738  0.27810  1.0000
  C   C1502     1.0  0.80530  0.65535  0.30963  1.0000
  C   C1503     1.0  0.80608  0.62368  0.30101  1.0000
  H   H2384     1.0  0.83094  0.62323  0.32489  1.0000
  H   H2385     1.0  0.84522  0.64108  0.30820  1.0000
  H   H2386     1.0  0.84610  0.61756  0.30151  1.0000
  H   H2387     1.0  0.81255  0.65458  0.27046  1.0000
  H   H2388     1.0  0.83483  0.65893  0.27641  1.0000
  H   H2389     1.0  0.83524  0.63539  0.27000  1.0000
  H   H2390     1.0  0.79171  0.66269  0.30302  1.0000
  H   H2391     1.0  0.81400  0.66719  0.30883  1.0000
  H   H2392     1.0  0.79975  0.64958  0.32581  1.0000
  H   H2393     1.0  0.79969  0.61774  0.31692  1.0000
  H   H2394     1.0  0.81559  0.61065  0.29431  1.0000
  H   H2395     1.0  0.79301  0.62985  0.29336  1.0000
  C   C1504     1.0  0.53184  0.69255  0.31340  1.0000
  H   H2396     1.0  0.79866  0.49293  0.33400  1.0000
  S   S608      1.0  0.91411  0.69632  0.42465  1.0000
  H   H2397     1.0  0.91031  0.52625  0.23829  1.0000
  C   C1505     1.0  0.53233  0.70885  0.35716  1.0000
  H   H2398     1.0  0.65220  0.54275  0.19775  1.0000
  C   C1506     1.0  0.71463  0.68393  0.36166  1.0000
  S   S609      1.0  0.54096  0.60481  0.20333  1.0000
  N   N147      1.0  0.53811  0.70769  0.06572  1.0000
  C   C1507     1.0  0.69277  0.53090  0.18730  1.0000
  C   C1508     1.0  0.53106  0.71395  0.08535  1.0000
  H   H2399     1.0  0.56107  0.66210  0.28150  1.0000
  C   C1509     1.0  0.77555  0.54141  0.03808  1.0000
  H   H2400     1.0  0.70858  0.66974  0.36612  1.0000
  N   N148      1.0  0.53562  0.67736  0.30078  1.0000
  N   N149      1.0  0.77593  0.51114  0.35267  1.0000
  H   H2401     1.0  0.87479  0.53034  0.41360  1.0000
  H   H2402     1.0  0.90478  0.50748  0.26020  1.0000
  C   C1510     1.0  0.86490  0.49360  0.42358  1.0000
  C   C1511     1.0  0.92728  0.67066  0.39716  1.0000
  C   C1512     1.0  0.74255  0.49867  0.19596  1.0000
  H   H2403     1.0  0.51158  0.72477  0.05442  1.0000
  H   H2404     1.0  0.52622  0.67405  0.27502  1.0000
  H   H2405     1.0  0.76713  0.53169  0.32687  1.0000
  H   H2406     1.0  0.85367  0.49622  0.41390  1.0000
  C   C1513     1.0  0.55047  0.68479  0.23321  1.0000
  C   C1514     1.0  0.56055  0.70556  0.05968  1.0000
  H   H2407     1.0  0.76666  0.71691  0.41377  1.0000
  C   C1515     1.0  0.76043  0.68226  0.39470  1.0000
  C   C1516     1.0  0.92683  0.73249  0.33660  1.0000
  H   H2408     1.0  0.56893  0.50987  0.18641  1.0000
  H   H2409     1.0  0.88032  0.49367  0.41376  1.0000
  S   S610      1.0  0.72594  0.71096  0.40150  1.0000
  N   N150      1.0  0.59023  0.68573  0.16387  1.0000
  C   C1517     1.0  0.59062  0.69820  0.17801  1.0000
  H   H2410     1.0  0.54820  0.56117  0.19712  1.0000
  C   C1518     1.0  0.59525  0.69675  0.14313  1.0000
  C   C1519     1.0  0.56964  0.68102  0.16776  1.0000
  H   H2411     1.0  0.57943  0.71260  0.17639  1.0000
  H   H2412     1.0  0.56720  0.66722  0.30295  1.0000
  H   H2413     1.0  0.58664  0.69034  0.19379  1.0000
  H   H2414     1.0  0.58401  0.71098  0.14051  1.0000
  C   C1520     1.0  0.56383  0.69248  0.24030  1.0000
  S   S611      1.0  0.62182  0.72124  0.32520  1.0000
  H   H2415     1.0  0.50692  0.68832  0.29147  1.0000
  H   H2416     1.0  0.54094  0.68736  0.32529  1.0000
  H   H2417     1.0  0.74410  0.53627  0.02462  1.0000
  H   H2418     1.0  0.56854  0.67216  0.15700  1.0000
  H   H2419     1.0  0.55761  0.69482  0.16674  1.0000
  H   H2420     1.0  0.75334  0.49726  0.37526  1.0000
  Fe  Fe301     1.0  0.93978  0.71339  0.42008  1.0000
  H   H2421     1.0  0.99539  0.60840  0.06781  1.0000
  H   H2422     1.0  0.71973  0.71929  0.33747  1.0000
  N   N151      1.0  0.69848  0.70156  0.35731  1.0000
  H   H2423     1.0  0.68653  0.54473  0.17734  1.0000
  C   C1521     1.0  0.76244  0.51856  0.33810  1.0000
  S   S612      1.0  0.95190  0.71810  0.44521  1.0000
  C   C1522     1.0  0.70737  0.71991  0.35109  1.0000
  H   H2424     1.0  0.69330  0.51799  0.18036  1.0000
  C   C1523     1.0  0.90633  0.71078  0.36131  1.0000
  H   H2425     1.0  0.57231  0.55305  0.16591  1.0000
  C   C1524     1.0  0.91109  0.67940  0.41086  1.0000
  H   H2426     1.0  0.60535  0.65705  0.15615  1.0000
  H   H2427     1.0  0.78350  0.54132  0.05002  1.0000
  H   H2428     1.0  0.70429  0.50995  0.22166  1.0000
  H   H2429     1.0  0.78177  0.71079  0.34210  1.0000
  H   H2430     1.0  0.52710  0.58972  0.14086  1.0000
  H   H2431     1.0  0.53996  0.71276  0.46804  1.0000
  C   C1525     1.0  0.74953  0.70105  0.38715  1.0000
  C   C1526     1.0  0.75736  0.71132  0.36819  1.0000
  H   H2432     1.0  0.68945  0.49675  0.21359  1.0000
  H   H2433     1.0  0.74920  0.72574  0.36214  1.0000
  H   H2434     1.0  0.52191  0.54011  0.16928  1.0000
  H   H2435     1.0  0.93526  0.71992  0.32873  1.0000
  C   C1527     1.0  0.77585  0.70280  0.35681  1.0000
  C   C1528     1.0  0.75281  0.52077  0.06090  1.0000
  H   H2436     1.0  0.76792  0.52517  0.01048  1.0000
  C   C1529     1.0  0.82159  0.50231  0.20398  1.0000
  H   H2437     1.0  0.89289  0.71769  0.35433  1.0000
  H   H2438     1.0  0.67104  0.54515  0.23201  1.0000
  C   C1530     1.0  0.53712  0.55422  0.19328  1.0000
  H   H2439     1.0  0.79618  0.50636  0.02776  1.0000
  S   S613      1.0  0.80864  0.52875  0.98820  1.0000
  H   H2440     1.0  0.95669  0.51486  0.23255  1.0000
  H   H2441     1.0  0.66982  0.71630  0.37278  1.0000
  H   H2442     1.0  0.70985  0.48978  0.05152  1.0000
  H   H2443     1.0  0.87127  0.51580  0.45893  1.0000
  H   H2444     1.0  0.53795  0.70258  0.09707  1.0000
  H   H2445     1.0  0.83624  0.50790  0.19915  1.0000
  H   H2446     1.0  0.70148  0.69791  0.32715  1.0000
  H   H2447     1.0  0.56279  0.68707  0.28228  1.0000
  H   H2448     1.0  0.73956  0.53352  0.06109  1.0000
  H   H2449     1.0  0.57836  0.69569  0.44077  1.0000
  H   H2450     1.0  0.56067  0.71829  0.43396  1.0000
  H   H2451     1.0  0.65833  0.72477  0.47611  1.0000
  H   H2452     1.0  0.53600  0.70699  0.30445  1.0000
  H   H2453     1.0  0.56653  0.69973  0.04548  1.0000
  C   C1531     1.0  0.53747  0.72319  0.34004  1.0000
  H   H2454     1.0  0.76245  0.72653  0.43629  1.0000
  C   C1532     1.0  0.52851  0.72302  0.05066  1.0000
  H   H2455     1.0  0.55786  0.69073  0.47570  1.0000
  C   C1533     1.0  0.83403  0.55284  0.47306  1.0000
  C   C1534     1.0  0.55426  0.70738  0.47395  1.0000
  Fe  Fe302     1.0  0.79299  0.48999  0.29270  1.0000
  C   C1535     1.0  0.51261  0.56776  0.13560  1.0000
  H   H2456     1.0  0.75893  0.53215  0.37161  1.0000
  C   C1536     1.0  0.57458  0.71217  0.44044  1.0000
  H   H2457     1.0  0.53533  0.72851  0.08479  1.0000
  H   H2458     1.0  0.74418  0.73502  0.42045  1.0000
  H   H2459     1.0  0.77930  0.48730  0.37807  1.0000
  C   C1537     1.0  0.50159  0.73642  0.34045  1.0000
  S   S614      1.0  0.49995  0.60564  0.17481  1.0000
  C   C1538     1.0  0.52212  0.73644  0.33122  1.0000
  H   H2460     1.0  0.90388  0.73696  0.38454  1.0000
  H   H2461     1.0  0.79626  0.73683  0.42507  1.0000
  H   H2462     1.0  0.99239  0.52322  0.51797  1.0000
  H   H2463     1.0  0.51346  0.62265  0.61530  1.0000
  H   H2464     1.0  0.56330  0.63993  0.60047  1.0000
  S   S615      1.0  0.54065  0.70960  0.58474  1.0000
  C   C1539     1.0  0.93061  0.50192  0.56855  1.0000
  S   S616      1.0  0.99650  0.51986  0.58162  1.0000
  S   S617      1.0  0.85369  0.50240  0.53846  1.0000
  H   H2465     1.0  0.51922  0.53089  0.68424  1.0000
  H   H2466     1.0  0.52151  0.53370  0.72592  1.0000
  C   C1540     1.0  0.68808  0.69281  0.94593  1.0000
  S   S618      1.0  0.96029  0.52281  0.62150  1.0000
  S   S619      1.0  0.94412  0.51867  0.57252  1.0000
  C   C1541     1.0  0.52731  0.61065  0.61326  1.0000
  H   H2467     1.0  0.55112  0.63242  0.58452  1.0000
  H   H2468     1.0  0.94626  0.50027  0.78469  1.0000
  H   H2469     1.0  0.57802  0.61134  0.77138  1.0000
  H   H2470     1.0  0.52933  0.60678  0.59835  1.0000
  H   H2471     1.0  0.96774  0.53201  0.92156  1.0000
  Fe  Fe303     1.0  0.81232  0.50905  0.80567  1.0000
  S   S620      1.0  0.81665  0.53482  0.81735  1.0000
  Fe  Fe304     1.0  0.99208  0.52911  0.61097  1.0000
  Fe  Fe305     1.0  0.58079  0.62189  0.66443  1.0000
  S   S621      1.0  0.54910  0.63148  0.68170  1.0000
  S   S622      1.0  0.59458  0.63833  0.63406  1.0000
  Fe  Fe306     1.0  0.58968  0.58431  0.69544  1.0000
  S   S623      1.0  0.55844  0.59110  0.71452  1.0000
  S   S624      1.0  0.60904  0.55661  0.71010  1.0000
  Fe  Fe307     1.0  0.54710  0.59896  0.68603  1.0000
  S   S625      1.0  0.51790  0.59025  0.68451  1.0000
  Fe  Fe308     1.0  0.56365  0.62270  0.70861  1.0000
  S   S626      1.0  0.55344  0.63800  0.73570  1.0000
  S   S627      1.0  0.57797  0.58976  0.66722  1.0000
  S   S628      1.0  0.59563  0.61552  0.69096  1.0000
  Fe  Fe309     1.0  0.58142  0.67538  0.85214  1.0000
  S   S629      1.0  0.58764  0.70451  0.85506  1.0000
  S   S630      1.0  0.57442  0.65242  0.87999  1.0000
  Fe  Fe310     1.0  0.59556  0.68288  0.80661  1.0000
  S   S631      1.0  0.60267  0.71284  0.80625  1.0000
  S   S632      1.0  0.60752  0.67112  0.77741  1.0000
  Fe  Fe311     1.0  0.61638  0.69741  0.83277  1.0000
  S   S633      1.0  0.64658  0.69941  0.83808  1.0000
  H   H2472     1.0  0.53892  0.60865  0.64716  1.0000
  H   H2473     1.0  0.70401  0.68921  0.94691  1.0000
  S   S634      1.0  0.61149  0.66718  0.83186  1.0000
  S   S635      1.0  0.56454  0.68852  0.82698  1.0000
  C   C1542     1.0  0.98997  0.58094  0.66141  1.0000
  Fe  Fe312     1.0  0.95899  0.67587  0.91806  1.0000
  S   S636      1.0  0.58950  0.70478  0.96839  1.0000
  S   S637      1.0  0.54301  0.69459  0.95495  1.0000
  H   H2474     1.0  0.72229  0.49491  0.80701  1.0000
  S   S638      1.0  0.96700  0.69603  0.88852  1.0000
  S   S639      1.0  0.93997  0.65187  0.92419  1.0000
  Fe  Fe313     1.0  0.95407  0.72108  0.90595  1.0000
  H   H2475     1.0  0.66576  0.72433  0.77305  1.0000
  S   S640      1.0  0.94473  0.70087  0.93516  1.0000
  Fe  Fe314     1.0  0.87800  0.56588  0.89234  1.0000
  S   S641      1.0  0.90501  0.56765  0.90357  1.0000
  S   S642      1.0  0.84653  0.57967  0.90679  1.0000
  Fe  Fe315     1.0  0.90347  0.54496  0.85889  1.0000
  S   S643      1.0  0.93297  0.54554  0.86662  1.0000
  S   S644      1.0  0.90359  0.52709  0.83612  1.0000
  Fe  Fe316     1.0  0.91684  0.53627  0.89805  1.0000
  S   S645      1.0  0.93351  0.51345  0.91948  1.0000
  Fe  Fe317     1.0  0.91879  0.57711  0.87125  1.0000
  S   S646      1.0  0.93822  0.60116  0.86109  1.0000
  S   S647      1.0  0.88834  0.53334  0.89023  1.0000
  S   S648      1.0  0.89076  0.57756  0.86013  1.0000
  C   C1543     1.0  0.96555  0.56439  0.89221  1.0000
  C   C1544     1.0  0.63149  0.69211  0.89434  1.0000
  C   C1545     1.0  0.66351  0.52209  0.67135  1.0000
  H   H2476     1.0  0.50681  0.55214  0.70997  1.0000
  H   H2477     1.0  0.77558  0.50040  0.59839  1.0000
  H   H2478     1.0  0.55591  0.62601  0.63745  1.0000
  S   S649      1.0  0.76805  0.50869  0.97340  1.0000
  N   N152      1.0  0.96932  0.56338  0.91220  1.0000
  S   S650      1.0  0.98440  0.72204  0.91220  1.0000
  H   H2479     1.0  0.97183  0.57679  0.88100  1.0000
  C   C1546     1.0  0.50745  0.72747  0.50365  1.0000
  H   H2480     1.0  0.80681  0.54392  0.86237  1.0000
  H   H2481     1.0  0.73189  0.51561  0.57389  1.0000
  N   N153      1.0  0.99462  0.49227  0.53296  1.0000
  C   C1547     1.0  0.93892  0.63928  0.90563  1.0000
  C   C1548     1.0  0.92369  0.62784  0.90954  1.0000
  C   C1549     1.0  0.92292  0.61668  0.89566  1.0000
  C   C1550     1.0  0.93760  0.61661  0.87787  1.0000
  C   C1551     1.0  0.95256  0.62846  0.87372  1.0000
  C   C1552     1.0  0.95319  0.63984  0.88753  1.0000
  H   H2482     1.0  0.91253  0.62743  0.92347  1.0000
  H   H2483     1.0  0.91103  0.60805  0.89881  1.0000
  H   H2484     1.0  0.96386  0.62862  0.85989  1.0000
  H   H2485     1.0  0.96496  0.64868  0.88436  1.0000
  C   C1553     1.0  0.60399  0.59797  0.73947  1.0000
  Fe  Fe318     1.0  0.58859  0.73474  0.51907  1.0000
  H   H2486     1.0  0.68948  0.48862  0.62225  1.0000
  H   H2487     1.0  0.54010  0.72094  0.86231  1.0000
  C   C1554     1.0  0.67584  0.67826  0.95414  1.0000
  H   H2488     1.0  0.90604  0.68436  0.93809  1.0000
  H   H2489     1.0  0.64407  0.69025  0.88107  1.0000
  H   H2490     1.0  0.77682  0.73328  0.91343  1.0000
  C   C1555     1.0  0.98430  0.53049  0.70583  1.0000
  C   C1556     1.0  0.84651  0.54577  0.93602  1.0000
  C   C1557     1.0  0.83781  0.56600  0.93048  1.0000
  C   C1558     1.0  0.82076  0.57494  0.94320  1.0000
  S   S651      1.0  0.81991  0.50351  0.77427  1.0000
  H   H2491     1.0  0.71354  0.52057  0.61806  1.0000
  H   H2492     1.0  0.85968  0.53881  0.92631  1.0000
  H   H2493     1.0  0.98569  0.71170  0.50319  1.0000
  C   C1559     1.0  0.81297  0.57327  0.87858  1.0000
  N   N154      1.0  0.62583  0.67262  0.90489  1.0000
  H   H2494     1.0  0.99681  0.72624  0.51401  1.0000
  H   H2495     1.0  0.97246  0.55012  0.88664  1.0000
  H   H2496     1.0  0.63091  0.70553  0.94292  1.0000
  H   H2497     1.0  0.61804  0.55913  0.75276  1.0000
  N   N155      1.0  0.59683  0.58596  0.75923  1.0000
  H   H2498     1.0  0.99411  0.73453  0.95013  1.0000
  C   C1560     1.0  0.87527  0.70018  0.90431  1.0000
  S   S652      1.0  0.56103  0.72075  0.52474  1.0000
  H   H2499     1.0  0.51211  0.72896  0.93823  1.0000
  C   C1561     1.0  0.51411  0.54888  0.64425  1.0000
  H   H2500     1.0  0.64642  0.68903  0.75316  1.0000
  H   H2501     1.0  0.81398  0.59057  0.93893  1.0000
  H   H2502     1.0  0.83090  0.49392  0.85270  1.0000
  H   H2503     1.0  0.98662  0.52304  0.66941  1.0000
  H   H2504     1.0  0.86039  0.70253  0.91506  1.0000
  C   C1562     1.0  0.95933  0.58248  0.91908  1.0000
  H   H2505     1.0  0.61837  0.70283  0.88889  1.0000
  C   C1563     1.0  0.64678  0.70198  0.94391  1.0000
  H   H2506     1.0  0.67025  0.71156  0.85986  1.0000
  C   C1564     1.0  0.56489  0.66374  0.90106  1.0000
  C   C1565     1.0  0.56820  0.65300  0.91984  1.0000
  C   C1566     1.0  0.56170  0.66244  0.93650  1.0000
  C   C1567     1.0  0.55153  0.68248  0.93442  1.0000
  C   C1568     1.0  0.54793  0.69306  0.91574  1.0000
  C   C1569     1.0  0.55476  0.68376  0.89905  1.0000
  H   H2507     1.0  0.57597  0.63747  0.92144  1.0000
  H   H2508     1.0  0.56427  0.65412  0.95098  1.0000
  H   H2509     1.0  0.54004  0.70855  0.91409  1.0000
  H   H2510     1.0  0.55185  0.69194  0.88468  1.0000
  C   C1570     1.0  0.51698  0.57475  0.66838  1.0000
  C   C1571     1.0  0.64732  0.72317  0.84197  1.0000
  C   C1572     1.0  0.83744  0.49054  0.86632  1.0000
  C   C1573     1.0  0.53322  0.55238  0.64476  1.0000
  C   C1574     1.0  0.53469  0.56503  0.65703  1.0000
  H   H2511     1.0  0.97756  0.58643  0.63503  1.0000
  H   H2512     1.0  0.54695  0.54482  0.63607  1.0000
  H   H2513     1.0  0.54949  0.56700  0.65792  1.0000
  C   C1575     1.0  0.56852  0.64817  0.74640  1.0000
  C   C1576     1.0  0.58887  0.64950  0.73751  1.0000
  C   C1577     1.0  0.60059  0.65657  0.74718  1.0000
  C   C1578     1.0  0.59206  0.66259  0.76570  1.0000
  C   C1579     1.0  0.57167  0.66146  0.77448  1.0000
  C   C1580     1.0  0.55999  0.65429  0.76487  1.0000
  H   H2514     1.0  0.59556  0.64519  0.72314  1.0000
  H   H2515     1.0  0.61631  0.65751  0.74019  1.0000
  H   H2516     1.0  0.56488  0.66608  0.78870  1.0000
  H   H2517     1.0  0.54425  0.65339  0.77185  1.0000
  C   C1581     1.0  0.84107  0.53273  0.82196  1.0000
  C   C1582     1.0  0.84441  0.54676  0.83151  1.0000
  C   C1583     1.0  0.86345  0.54488  0.83625  1.0000
  C   C1584     1.0  0.87946  0.52931  0.83086  1.0000
  C   C1585     1.0  0.87624  0.51542  0.82104  1.0000
  C   C1586     1.0  0.85705  0.51706  0.81670  1.0000
  H   H2518     1.0  0.83229  0.55921  0.83509  1.0000
  H   H2519     1.0  0.86591  0.55580  0.84358  1.0000
  H   H2520     1.0  0.88859  0.50341  0.81671  1.0000
  H   H2521     1.0  0.85477  0.50644  0.80891  1.0000
  H   H2522     1.0  0.60378  0.60572  0.77483  1.0000
  H   H2523     1.0  0.99836  0.57245  0.90047  1.0000
  H   H2524     1.0  0.63681  0.69921  0.90419  1.0000
  C   C1587     1.0  0.65262  0.54044  0.66276  1.0000
  H   H2525     1.0  0.96226  0.58255  0.93388  1.0000
  S   S653      1.0  0.98363  0.69577  0.97039  1.0000
  C   C1588     1.0  0.61847  0.66406  0.89134  1.0000
  C   C1589     1.0  0.51824  0.51739  0.69625  1.0000
  C   C1590     1.0  0.63573  0.55110  0.67445  1.0000
  C   C1591     1.0  0.62980  0.54351  0.69484  1.0000
  C   C1592     1.0  0.64071  0.52521  0.70343  1.0000
  C   C1593     1.0  0.65748  0.51449  0.69171  1.0000
  H   H2526     1.0  0.62745  0.56524  0.66774  1.0000
  H   H2527     1.0  0.63621  0.51929  0.71919  1.0000
  C   C1594     1.0  0.69156  0.49965  0.60796  1.0000
  C   C1595     1.0  0.91171  0.69748  0.89841  1.0000
  H   H2528     1.0  0.51625  0.49829  0.73457  1.0000
  H   H2529     1.0  0.70751  0.53027  0.58304  1.0000
  H   H2530     1.0  0.53192  0.68754  0.62463  1.0000
  H   H2531     1.0  0.80906  0.57937  0.86363  1.0000
  H   H2532     1.0  0.94400  0.54881  0.92755  1.0000
  H   H2533     1.0  0.57315  0.56882  0.77326  1.0000
  H   H2534     1.0  0.87720  0.68548  0.89977  1.0000
  C   C1596     1.0  0.91837  0.50871  0.55421  1.0000
  H   H2535     1.0  0.97167  0.73566  0.50873  1.0000
  C   C1597     1.0  0.81164  0.53950  0.87701  1.0000
  H   H2536     1.0  0.56610  0.59058  0.75503  1.0000
  H   H2537     1.0  0.82394  0.48775  0.72316  1.0000
  H   H2538     1.0  0.51521  0.50561  0.68973  1.0000
  C   C1598     1.0  0.57892  0.57810  0.75866  1.0000
  H   H2539     1.0  0.89028  0.48899  0.96641  1.0000
  C   C1599     1.0  0.55628  0.69078  0.59867  1.0000
  C   C1600     1.0  0.57678  0.68392  0.59054  1.0000
  C   C1601     1.0  0.58855  0.66817  0.60178  1.0000
  C   C1602     1.0  0.57996  0.65936  0.62123  1.0000
  C   C1603     1.0  0.55961  0.66670  0.62954  1.0000
  C   C1604     1.0  0.54776  0.68222  0.61822  1.0000
  H   H2540     1.0  0.58347  0.69044  0.57546  1.0000
  H   H2541     1.0  0.60430  0.66259  0.59526  1.0000
  H   H2542     1.0  0.55290  0.66030  0.64459  1.0000
  H   H2543     1.0  0.82861  0.53573  0.87398  1.0000
  H   H2544     1.0  0.61651  0.60543  0.73959  1.0000
  S   S654      1.0  0.98946  0.67244  0.92560  1.0000
  C   C1605     1.0  0.96079  0.54667  0.92639  1.0000
  H   H2545     1.0  0.58792  0.71150  0.48396  1.0000
  H   H2546     1.0  0.82589  0.54366  0.90739  1.0000
  H   H2547     1.0  0.53635  0.64814  0.60202  1.0000
  H   H2548     1.0  0.82702  0.54261  0.48554  1.0000
  H   H2549     1.0  0.65726  0.54645  0.64704  1.0000
  H   H2550     1.0  0.75264  0.72899  0.92906  1.0000
  N   N156      1.0  0.54555  0.61710  0.61518  1.0000
  H   H2551     1.0  0.58276  0.56859  0.74707  1.0000
  H   H2552     1.0  0.65635  0.65568  0.89805  1.0000
  H   H2553     1.0  0.72176  0.49465  0.62805  1.0000
  H   H2554     1.0  0.68238  0.66346  0.96134  1.0000
  H   H2555     1.0  0.79894  0.57052  0.97104  1.0000
  H   H2556     1.0  0.92650  0.50461  0.80616  1.0000
  C   C1606     1.0  0.56357  0.60078  0.61243  1.0000
  S   S655      1.0  0.76849  0.50284  0.76011  1.0000
  H   H2557     1.0  0.78011  0.51555  0.87599  1.0000
  Fe  Fe319     1.0  0.97590  0.49208  0.63410  1.0000
  H   H2558     1.0  0.89580  0.66938  0.92717  1.0000
  H   H2559     1.0  0.65140  0.71413  0.74850  1.0000
  N   N157      1.0  0.89235  0.70061  0.91322  1.0000
  H   H2560     1.0  0.80219  0.53492  0.91716  1.0000
  H   H2561     1.0  0.56676  0.59691  0.59736  1.0000
  C   C1607     1.0  0.53185  0.73593  0.86376  1.0000
  H   H2562     1.0  0.92483  0.69747  0.90480  1.0000
  H   H2563     1.0  0.82996  0.56949  0.87627  1.0000
  H   H2564     1.0  0.53353  0.51208  0.70021  1.0000
  H   H2565     1.0  0.57752  0.60514  0.61412  1.0000
  H   H2566     1.0  0.94248  0.58515  0.92059  1.0000
  H   H2567     1.0  0.96484  0.59555  0.90836  1.0000
  H   H2568     1.0  0.77665  0.56657  0.87672  1.0000
  H   H2569     1.0  0.85646  0.49795  0.60032  1.0000
  H   H2570     1.0  0.97355  0.50544  0.82207  1.0000
  H   H2571     1.0  0.55654  0.73374  0.60787  1.0000
  H   H2572     1.0  0.77479  0.57303  0.90048  1.0000
  H   H2573     1.0  0.90215  0.72121  0.92555  1.0000
  H   H2574     1.0  0.59138  0.60985  0.73463  1.0000
  C   C1608     1.0  0.94015  0.49371  0.80046  1.0000
  H   H2575     1.0  0.59554  0.68596  0.91855  1.0000
  H   H2576     1.0  0.58590  0.59016  0.78970  1.0000
  H   H2577     1.0  0.95342  0.51036  0.71915  1.0000
  H   H2578     1.0  0.55076  0.71111  0.48911  1.0000
  C   C1609     1.0  0.59093  0.59880  0.77449  1.0000
  H   H2579     1.0  0.97938  0.59333  0.66736  1.0000
  H   H2580     1.0  0.52404  0.59712  0.62471  1.0000
  H   H2581     1.0  0.60980  0.58853  0.72779  1.0000
  H   H2582     1.0  0.99373  0.49627  0.67584  1.0000
  C   C1610     1.0  0.67980  0.71193  0.93650  1.0000
  C   C1611     1.0  0.94040  0.48927  0.91380  1.0000
  S   S656      1.0  0.83217  0.49799  0.50346  1.0000
  H   H2583     1.0  0.65015  0.66497  0.92096  1.0000
  C   C1612     1.0  0.90797  0.49572  0.54995  1.0000
  S   S657      1.0  0.86954  0.53814  0.48721  1.0000
  H   H2584     1.0  0.74814  0.50831  0.72781  1.0000
  H   H2585     1.0  0.60861  0.55957  0.77893  1.0000
  N   N158      1.0  0.71342  0.50011  0.59954  1.0000
  H   H2586     1.0  0.89871  0.50118  0.53875  1.0000
  Fe  Fe320     1.0  0.85912  0.50973  0.50512  1.0000
  C   C1613     1.0  0.99404  0.51060  0.67999  1.0000
  C   C1614     1.0  0.81223  0.56361  0.96131  1.0000
  C   C1615     1.0  0.88932  0.72029  0.91904  1.0000
  H   H2587     1.0  0.65288  0.73080  0.92738  1.0000
  Fe  Fe321     1.0  0.55517  0.72742  0.55563  1.0000
  C   C1616     1.0  0.50643  0.53809  0.72147  1.0000
  H   H2588     1.0  0.61453  0.68196  0.93327  1.0000
  C   C1617     1.0  0.64389  0.65870  0.91115  1.0000
  H   H2589     1.0  0.60464  0.67403  0.88665  1.0000
  H   H2590     1.0  0.66583  0.50047  0.69850  1.0000
  H   H2591     1.0  0.52909  0.63443  0.63782  1.0000
  N   N159      1.0  0.66120  0.69452  0.77436  1.0000
  C   C1618     1.0  0.65471  0.67751  0.78972  1.0000
  C   C1619     1.0  0.64700  0.70138  0.76043  1.0000
  C   C1620     1.0  0.68209  0.68794  0.76322  1.0000
  C   C1621     1.0  0.66100  0.71115  0.78413  1.0000
  H   H2592     1.0  0.65474  0.66458  0.78299  1.0000
  H   H2593     1.0  0.73832  0.50762  0.60769  1.0000
  H   H2594     1.0  0.66460  0.67223  0.80094  1.0000
  H   H2595     1.0  0.69312  0.68255  0.77337  1.0000
  S   S658      1.0  0.77882  0.50540  0.91767  1.0000
  Fe  Fe322     1.0  0.56467  0.68693  0.97568  1.0000
  H   H2596     1.0  0.68752  0.70044  0.75153  1.0000
  H   H2597     1.0  0.68273  0.67541  0.75568  1.0000
  H   H2598     1.0  0.96850  0.51544  0.79745  1.0000
  C   C1622     1.0  0.66056  0.72485  0.85343  1.0000
  C   C1623     1.0  0.78042  0.49959  0.88057  1.0000
  H   H2599     1.0  0.98604  0.49426  0.73031  1.0000
  H   H2600     1.0  0.96334  0.54535  0.94166  1.0000
  H   H2601     1.0  0.77391  0.54790  0.89916  1.0000
  H   H2602     1.0  0.61419  0.64924  0.89866  1.0000
  H   H2603     1.0  0.67138  0.70641  0.79493  1.0000
  H   H2604     1.0  0.63888  0.68192  0.79796  1.0000
  S   S659      1.0  0.51273  0.53216  0.62956  1.0000
  Fe  Fe323     1.0  0.96613  0.51024  0.59354  1.0000
  H   H2605     1.0  0.95398  0.52188  0.69333  1.0000
  H   H2606     1.0  0.60495  0.66114  0.93106  1.0000
  C   C1624     1.0  0.82042  0.54320  0.96643  1.0000
  H   H2607     1.0  0.51204  0.72480  0.51780  1.0000
  C   C1625     1.0  0.65511  0.68292  0.95349  1.0000
  H   H2608     1.0  0.82450  0.49354  0.87903  1.0000
  H   H2609     1.0  0.96822  0.51541  0.52883  1.0000
  S   S660      1.0  0.78089  0.50222  0.81170  1.0000
  H   H2610     1.0  0.68291  0.51449  0.61149  1.0000
  C   C1626     1.0  0.80907  0.54818  0.90877  1.0000
  Fe  Fe324     1.0  0.82851  0.48791  0.53688  1.0000
  H   H2611     1.0  0.94894  0.56727  0.89247  1.0000
  C   C1627     1.0  0.96189  0.50816  0.81283  1.0000
  H   H2612     1.0  0.63868  0.72156  0.97761  1.0000
  H   H2613     1.0  0.91461  0.68278  0.89360  1.0000
  S   S661      1.0  0.68468  0.50917  0.65630  1.0000
  H   H2614     1.0  0.80353  0.55995  0.91814  1.0000
  C   C1628     1.0  0.61342  0.56903  0.76412  1.0000
  H   H2615     1.0  0.63021  0.66203  0.87747  1.0000
  H   H2616     1.0  0.80591  0.52559  0.88506  1.0000
  C   C1629     1.0  0.75054  0.49247  0.73437  1.0000
  H   H2617     1.0  0.64551  0.71640  0.79282  1.0000
  C   C1630     1.0  0.83757  0.53427  0.95382  1.0000
  H   H2618     1.0  0.91696  0.52413  0.54626  1.0000
  H   H2619     1.0  0.98289  0.51965  0.54446  1.0000
  C   C1631     1.0  0.96198  0.50962  0.70359  1.0000
  C   C1632     1.0  0.60948  0.67560  0.92270  1.0000
  C   C1633     1.0  0.54920  0.63517  0.59986  1.0000
  H   H2620     1.0  0.63107  0.70643  0.76835  1.0000
  H   H2621     1.0  0.84777  0.50131  0.86403  1.0000
  H   H2622     1.0  0.51515  0.72684  0.89364  1.0000
  H   H2623     1.0  0.84396  0.51853  0.95787  1.0000
  Fe  Fe325     1.0  0.78990  0.49315  0.78174  1.0000
  H   H2624     1.0  0.70906  0.51098  0.56940  1.0000
  Fe  Fe326     1.0  0.97610  0.69939  0.94002  1.0000
  H   H2625     1.0  0.92526  0.49629  0.88898  1.0000
  H   H2626     1.0  0.97708  0.54362  0.69576  1.0000
  H   H2627     1.0  0.84126  0.50058  0.58222  1.0000
  C   C1634     1.0  0.71553  0.51491  0.58062  1.0000
  Fe  Fe327     1.0  0.57312  0.71726  0.82853  1.0000
  H   H2628     1.0  0.56131  0.58689  0.62368  1.0000
  H   H2629     1.0  0.78328  0.49561  0.85079  1.0000
  C   C1635     1.0  0.65923  0.71634  0.93513  1.0000
  H   H2630     1.0  0.64001  0.64405  0.91977  1.0000
  H   H2631     1.0  0.87434  0.71213  0.89074  1.0000
  H   H2632     1.0  0.99497  0.55912  0.92590  1.0000
  C   C1636     1.0  0.54218  0.62179  0.63526  1.0000
  N   N160      1.0  0.95571  0.48930  0.81281  1.0000
  H   H2633     1.0  0.62723  0.57447  0.76442  1.0000
  N   N161      1.0  0.80372  0.55553  0.88893  1.0000
  H   H2634     1.0  0.52204  0.73508  0.95681  1.0000
  H   H2635     1.0  0.80783  0.58549  0.88745  1.0000
  H   H2636     1.0  0.93342  0.49052  0.84029  1.0000
  C   C1637     1.0  0.78127  0.56105  0.89141  1.0000
  H   H2637     1.0  0.90013  0.49150  0.94002  1.0000
  C   C1638     1.0  0.89321  0.68448  0.93107  1.0000
  C   C1639     1.0  0.99154  0.56002  0.91106  1.0000
  H   H2638     1.0  0.97628  0.53173  0.72144  1.0000
  S   S662      1.0  0.64019  0.66440  0.96393  1.0000
  H   H2639     1.0  0.68427  0.49546  0.59755  1.0000
  C   C1640     1.0  0.99375  0.49445  0.71437  1.0000
  H   H2640     1.0  0.99952  0.54576  0.90581  1.0000
  S   S663      1.0  0.61866  0.72147  0.50114  1.0000
  N   N162      1.0  0.98351  0.51128  0.70095  1.0000
  H   H2641     1.0  0.91194  0.70964  0.88491  1.0000
  H   H2642     1.0  0.96080  0.49519  0.70025  1.0000
  H   H2643     1.0  0.87497  0.72322  0.93034  1.0000
  S   S664      1.0  0.69540  0.73007  0.92719  1.0000
  C   C1641     1.0  0.72220  0.50598  0.61391  1.0000
  Fe  Fe328     1.0  0.99624  0.69507  0.89747  1.0000
  Fe  Fe329     1.0  0.78349  0.49137  0.94887  1.0000
  H   H2644     1.0  0.87888  0.68628  0.94262  1.0000
  S   S665      1.0  0.79964  0.49627  0.55966  1.0000
  C   C1642     1.0  0.98414  0.51355  0.53088  1.0000
  H   H2645     1.0  0.94859  0.51919  0.81904  1.0000
  C   C1643     1.0  0.98718  0.72724  0.50314  1.0000
  C   C1644     1.0  0.98881  0.57693  0.64322  1.0000
  N   N163      1.0  0.50209  0.52197  0.71376  1.0000
  H   H2646     1.0  0.88869  0.73281  0.90591  1.0000
  H   H2647     1.0  0.72142  0.48912  0.84346  1.0000
  C   C1645     1.0  0.50153  0.50371  0.72948  1.0000
  C   C1646     1.0  0.85313  0.49009  0.58984  1.0000
  H   H2648     1.0  0.86731  0.48747  0.57823  1.0000
  C   C1647     1.0  0.77940  0.49041  0.90064  1.0000
  S   S666      1.0  0.81480  0.48930  0.95385  1.0000
  H   H2649     1.0  0.51940  0.73448  0.61669  1.0000
  C   C1648     1.0  0.78192  0.48828  0.86618  1.0000
  Fe  Fe330     1.0  0.67527  0.77612  0.40403  1.0000
  S   S667      1.0  0.68476  0.79852  0.37645  1.0000
  C   C1649     1.0  0.55416  0.75323  0.00357  1.0000
  S   S668      1.0  0.72264  0.76289  0.36348  1.0000
  H   H2650     1.0  0.51631  0.79169  0.01743  1.0000
  Fe  Fe331     1.0  0.71639  0.78631  0.38248  1.0000
  S   S669      1.0  0.74210  0.80270  0.37901  1.0000
  Fe  Fe332     1.0  0.68986  0.77278  0.36058  1.0000
  S   S670      1.0  0.68151  0.77522  0.33077  1.0000
  S   S671      1.0  0.70642  0.76582  0.41130  1.0000
  H   H2651     1.0  0.97847  0.79445  0.32901  1.0000
  Fe  Fe333     1.0  0.81559  0.86708  0.43385  1.0000
  S   S672      1.0  0.79306  0.87560  0.41369  1.0000
  S   S673      1.0  0.84772  0.85054  0.42474  1.0000
  S   S674      1.0  0.78322  0.93586  0.40364  1.0000
  S   S675      1.0  0.67847  0.75116  0.38788  1.0000
  Fe  Fe334     1.0  0.59527  0.76054  0.26327  1.0000
  C   C1650     1.0  0.52015  0.77954  0.99106  1.0000
  S   S676      1.0  0.60362  0.78892  0.24312  1.0000
  S   S677      1.0  0.95112  0.95633  0.29264  1.0000
  H   H2652     1.0  0.53398  0.93221  0.11416  1.0000
  H   H2653     1.0  0.80808  0.91548  0.34544  1.0000
  H   H2654     1.0  0.58741  0.81976  0.29255  1.0000
  S   S678      1.0  0.58398  0.75965  0.29615  1.0000
  H   H2655     1.0  0.75139  0.93848  0.43920  1.0000
  S   S679      1.0  0.55062  0.95029  0.21953  1.0000
  Fe  Fe335     1.0  0.56550  0.92102  0.20992  1.0000
  S   S680      1.0  0.58136  0.92299  0.17767  1.0000
  S   S681      1.0  0.57873  0.90752  0.23726  1.0000
  C   C1651     1.0  0.98294  0.73821  0.46905  1.0000
  C   C1652     1.0  0.56081  0.84548  0.26134  1.0000
  N   N164      1.0  0.77173  0.74709  0.40917  1.0000
  C   C1653     1.0  0.52549  0.78072  0.00858  1.0000
  Fe  Fe336     1.0  0.95551  0.98628  0.13688  1.0000
  C   C1654     1.0  0.96226  0.81403  0.47020  1.0000
  H   H2656     1.0  0.92071  0.87205  0.07097  1.0000
  S   S682      1.0  0.85498  0.98635  0.04889  1.0000
  C   C1655     1.0  0.92199  0.80579  0.38273  1.0000
  C   C1656     1.0  0.57815  0.84707  0.24605  1.0000
  S   S683      1.0  0.99004  0.98003  0.13027  1.0000
  H   H2657     1.0  0.54600  0.89803  0.14851  1.0000
  H   H2658     1.0  0.92724  0.84357  0.38006  1.0000
  Fe  Fe337     1.0  0.85366  0.94040  0.02704  1.0000
  C   C1657     1.0  0.90917  0.74217  0.36817  1.0000
  S   S684      1.0  0.85792  0.91130  0.01588  1.0000
  Fe  Fe338     1.0  0.87464  0.95568  0.05316  1.0000
  Fe  Fe339     1.0  0.56150  0.74280  0.29311  1.0000
  S   S685      1.0  0.89946  0.94319  0.07157  1.0000
  Fe  Fe340     1.0  0.82905  0.97025  0.05348  1.0000
  Fe  Fe341     1.0  0.52335  0.93595  0.23351  1.0000
  H   H2659     1.0  0.64882  0.74421  0.29467  1.0000
  H   H2660     1.0  0.63645  0.78306  0.28424  1.0000
  S   S686      1.0  0.84825  0.93965  0.06011  1.0000
  S   S687      1.0  0.88140  0.95432  0.02052  1.0000
  H   H2661     1.0  0.92677  0.90423  0.02039  1.0000
  S   S688      1.0  0.66060  0.97873  0.09684  1.0000
  S   S689      1.0  0.66464  0.95420  0.15338  1.0000
  H   H2662     1.0  0.86195  0.87882  0.99574  1.0000
  H   H2663     1.0  0.92361  0.89783  0.06539  1.0000
  H   H2664     1.0  0.97553  0.95942  0.25293  1.0000
  S   S690      1.0  0.96109  0.76407  0.35980  1.0000
  H   H2665     1.0  0.72901  0.87748  0.99256  1.0000
  C   C1658     1.0  0.52133  0.98292  0.01539  1.0000
  C   C1659     1.0  0.63898  0.73975  0.34515  1.0000
  Fe  Fe342     1.0  0.94432  0.75105  0.43325  1.0000
  N   N165      1.0  0.98503  0.92073  0.35692  1.0000
  H   H2666     1.0  0.52261  0.91175  0.30859  1.0000
  H   H2667     1.0  0.56613  0.90816  0.15198  1.0000
  H   H2668     1.0  0.69463  0.94803  0.11701  1.0000
  H   H2669     1.0  0.96739  0.74714  0.47354  1.0000
  H   H2670     1.0  0.80160  0.94234  0.33777  1.0000
  H   H2671     1.0  0.93860  0.86063  0.46481  1.0000
  C   C1660     1.0  0.97190  0.94083  0.35726  1.0000
  C   C1661     1.0  0.56601  0.73864  0.45948  1.0000
  H   H2672     1.0  0.82488  0.93756  0.99752  1.0000
  S   S691      1.0  0.95278  0.96314  0.16514  1.0000
  H   H2673     1.0  0.82253  0.96245  0.41392  1.0000
  H   H2674     1.0  0.84613  0.91695  0.37389  1.0000
  S   S692      1.0  0.76118  0.89660  0.44971  1.0000
  H   H2675     1.0  0.71086  0.95620  0.14094  1.0000
  H   H2676     1.0  0.60578  0.80364  0.32948  1.0000
  H   H2677     1.0  0.60598  0.83454  0.27838  1.0000
  H   H2678     1.0  0.93509  0.80974  0.37056  1.0000
  C   C1662     1.0  0.55471  0.91045  0.14256  1.0000
  H   H2679     1.0  0.71226  0.96000  0.09712  1.0000
  Fe  Fe343     1.0  0.89653  0.92249  0.34072  1.0000
  S   S693      1.0  0.92844  0.92345  0.34138  1.0000
  S   S694      1.0  0.88698  0.89431  0.33955  1.0000
  H   H2680     1.0  0.92546  0.78923  0.38789  1.0000
  H   H2681     1.0  0.51676  0.92077  0.13539  1.0000
  Fe  Fe344     1.0  0.54907  0.89654  0.24977  1.0000
  H   H2682     1.0  0.91926  0.75308  0.36636  1.0000
  C   C1663     1.0  0.84852  0.95717  0.43858  1.0000
  Fe  Fe345     1.0  0.91386  0.94308  0.36412  1.0000
  S   S695      1.0  0.92571  0.93517  0.39251  1.0000
  S   S696      1.0  0.89373  0.94926  0.31603  1.0000
  S   S697      1.0  0.88204  0.93986  0.36527  1.0000
  C   C1664     1.0  0.51145  0.95136  0.30906  1.0000
  C   C1665     1.0  0.65320  0.75022  0.45236  1.0000
  C   C1666     1.0  0.91219  0.94386  0.43007  1.0000
  H   H2683     1.0  0.59665  0.83462  0.30463  1.0000
  H   H2684     1.0  0.91935  0.92857  0.43520  1.0000
  H   H2685     1.0  0.80868  0.95496  0.45017  1.0000
  C   C1667     1.0  0.61043  0.79506  0.31709  1.0000
  H   H2686     1.0  0.65253  0.75410  0.36107  1.0000
  H   H2687     1.0  0.75268  0.75671  0.38758  1.0000
  H   H2688     1.0  0.88355  0.88320  0.07188  1.0000
  H   H2689     1.0  0.97055  0.90845  0.38670  1.0000
  H   H2690     1.0  0.54937  0.93210  0.29446  1.0000
  H   H2691     1.0  0.62458  0.76785  0.99938  1.0000
  H   H2692     1.0  0.95085  0.81596  0.39615  1.0000
  H   H2693     1.0  0.97140  0.77925  0.44059  1.0000
  C   C1668     1.0  0.98951  0.91626  0.33659  1.0000
  C   C1669     1.0  0.55626  0.82650  0.27052  1.0000
  N   N166      1.0  0.54104  0.93030  0.14270  1.0000
  H   H2694     1.0  0.89991  0.91215  0.02099  1.0000
  H   H2695     1.0  0.89887  0.81827  0.42809  1.0000
  C   C1670     1.0  0.94218  0.78909  0.45894  1.0000
  N   N167      1.0  0.91882  0.81657  0.39930  1.0000
  S   S698      1.0  0.98680  0.98139  0.17799  1.0000
  Fe  Fe346     1.0  0.96017  0.74537  0.39043  1.0000
  H   H2696     1.0  0.62250  0.78200  0.32107  1.0000
  C   C1671     1.0  0.95989  0.96594  0.25175  1.0000
  H   H2697     1.0  0.95722  0.94167  0.35297  1.0000
  C   C1672     1.0  0.52100  0.91621  0.32316  1.0000
  C   C1673     1.0  0.54275  0.76790  0.01457  1.0000
  C   C1674     1.0  0.90848  0.95765  0.08403  1.0000
  H   H2698     1.0  0.51902  0.94632  0.16391  1.0000
  H   H2699     1.0  0.98027  0.89496  0.25936  1.0000
  H   H2700     1.0  0.99013  0.87758  0.22113  1.0000
  C   C1675     1.0  0.93102  0.95914  0.10545  1.0000
  C   C1676     1.0  0.92339  0.94814  0.09547  1.0000
  S   S699      1.0  0.97375  0.83037  0.47743  1.0000
  H   H2701     1.0  0.65326  0.81811  0.46282  1.0000
  H   H2702     1.0  0.94258  0.95164  0.11406  1.0000
  H   H2703     1.0  0.92920  0.93218  0.09652  1.0000
  C   C1677     1.0  0.66299  0.75810  0.31065  1.0000
  C   C1678     1.0  0.91959  0.98325  0.24870  1.0000
  H   H2704     1.0  0.51479  0.96673  0.30631  1.0000
  H   H2705     1.0  0.59071  0.96490  0.19100  1.0000
  H   H2706     1.0  0.89549  0.75036  0.36199  1.0000
  H   H2707     1.0  0.99759  0.92746  0.32538  1.0000
  C   C1679     1.0  0.77614  0.97475  0.40886  1.0000
  C   C1680     1.0  0.93481  0.98233  0.23128  1.0000
  H   H2708     1.0  0.77111  0.77784  0.41013  1.0000
  H   H2709     1.0  0.78705  0.96763  0.04585  1.0000
  H   H2710     1.0  0.91069  0.96701  0.18785  1.0000
  C   C1681     1.0  0.94459  0.96651  0.26916  1.0000
  C   C1682     1.0  0.82907  0.92370  0.99188  1.0000
  H   H2711     1.0  0.77444  0.87906  0.98320  1.0000
  C   C1683     1.0  0.59085  0.98041  0.18223  1.0000
  H   H2712     1.0  0.96687  0.97301  0.21956  1.0000
  C   C1684     1.0  0.84472  0.90858  0.99832  1.0000
  S   S700      1.0  0.80084  0.98134  0.07534  1.0000
  H   H2713     1.0  0.52243  0.79947  0.32642  1.0000
  H   H2714     1.0  0.65235  0.79270  0.46281  1.0000
  C   C1685     1.0  0.50581  0.74743  0.47076  1.0000
  C   C1686     1.0  0.61784  0.76604  0.45273  1.0000
  C   C1687     1.0  0.54687  0.93653  0.30917  1.0000
  H   H2715     1.0  0.88645  0.95924  0.19491  1.0000
  H   H2716     1.0  0.77057  0.82551  0.38149  1.0000
  H   H2717     1.0  0.54280  0.82523  0.28224  1.0000
  H   H2718     1.0  0.54053  0.93055  0.17331  1.0000
  Fe  Fe347     1.0  0.98694  0.95872  0.16001  1.0000
  H   H2719     1.0  0.88669  0.90886  0.06640  1.0000
  C   C1688     1.0  0.92385  0.97985  0.10400  1.0000
  S   S701      1.0  0.57105  0.74593  0.25972  1.0000
  Fe  Fe348     1.0  0.78554  0.90540  0.42356  1.0000
  H   H2720     1.0  0.54692  0.76906  0.02801  1.0000
  S   S702      1.0  0.53716  0.90768  0.22140  1.0000
  H   H2721     1.0  0.78777  0.97710  0.39545  1.0000
  C   C1689     1.0  0.95499  0.97366  0.23284  1.0000
  H   H2722     1.0  0.92531  0.88493  0.45464  1.0000
  H   H2723     1.0  0.54343  0.96148  0.13403  1.0000
  H   H2724     1.0  0.99871  0.74231  0.37095  1.0000
  S   S703      1.0  0.64586  0.78514  0.42519  1.0000
  Fe  Fe349     1.0  0.77067  0.86588  0.44177  1.0000
  C   C1690     1.0  0.96307  0.78884  0.45110  1.0000
  H   H2725     1.0  0.61061  0.78928  0.28107  1.0000
  C   C1691     1.0  0.73431  0.89137  0.98346  1.0000
  Fe  Fe350     1.0  0.56120  0.93585  0.24791  1.0000
  H   H2726     1.0  0.84017  0.97942  0.40399  1.0000
  H   H2727     1.0  0.61622  0.82851  0.46268  1.0000
  C   C1692     1.0  0.61170  0.75188  0.46959  1.0000
  C   C1693     1.0  0.92444  0.97527  0.26758  1.0000
  H   H2728     1.0  0.53231  0.73795  0.04939  1.0000
  S   S704      1.0  0.97429  0.75296  0.41233  1.0000
  C   C1694     1.0  0.77099  0.95573  0.41635  1.0000
  C   C1695     1.0  0.58662  0.81065  0.24956  1.0000
  H   H2729     1.0  0.89541  0.87711  0.02856  1.0000
  H   H2730     1.0  0.53360  0.93071  0.34910  1.0000
  C   C1696     1.0  0.99628  0.89198  0.25081  1.0000
  C   C1697     1.0  0.60477  0.93109  0.17111  1.0000
  C   C1698     1.0  0.61089  0.94158  0.15172  1.0000
  C   C1699     1.0  0.62919  0.94885  0.14630  1.0000
  C   C1700     1.0  0.64178  0.94504  0.16004  1.0000
  C   C1701     1.0  0.63587  0.93422  0.17934  1.0000
  C   C1702     1.0  0.61720  0.92753  0.18499  1.0000
  H   H2731     1.0  0.60137  0.94438  0.14091  1.0000
  H   H2732     1.0  0.63362  0.95721  0.13140  1.0000
  H   H2733     1.0  0.64559  0.93125  0.19001  1.0000
  H   H2734     1.0  0.61260  0.91934  0.19995  1.0000
  H   H2735     1.0  0.60650  0.77762  0.44632  1.0000
  H   H2736     1.0  0.73412  0.91255  0.14176  1.0000
  H   H2737     1.0  0.51309  0.80376  0.29417  1.0000
  S   S705      1.0  0.81021  0.89774  0.44097  1.0000
  H   H2738     1.0  0.87487  0.90017  0.05092  1.0000
  H   H2739     1.0  0.86231  0.95998  0.42685  1.0000
  C   C1703     1.0  0.59111  0.82965  0.24026  1.0000
  H   H2740     1.0  0.58172  0.86168  0.23886  1.0000
  H   H2741     1.0  0.60465  0.83088  0.22859  1.0000
  C   C1704     1.0  0.85884  0.86260  0.40116  1.0000
  C   C1705     1.0  0.87072  0.87685  0.39945  1.0000
  C   C1706     1.0  0.87997  0.88622  0.38052  1.0000
  C   C1707     1.0  0.87718  0.88145  0.36330  1.0000
  C   C1708     1.0  0.86570  0.86685  0.36504  1.0000
  C   C1709     1.0  0.85645  0.85749  0.38396  1.0000
  H   H2742     1.0  0.87274  0.88064  0.41277  1.0000
  H   H2743     1.0  0.88923  0.89710  0.37929  1.0000
  H   H2744     1.0  0.86355  0.86311  0.35175  1.0000
  H   H2745     1.0  0.84735  0.84639  0.38529  1.0000
  N   N168      1.0  0.99806  0.90188  0.22958  1.0000
  H   H2746     1.0  0.55078  0.95171  0.30613  1.0000
  H   H2747     1.0  0.53078  0.96838  0.26440  1.0000
  H   H2748     1.0  0.81044  0.95369  0.37297  1.0000
  H   H2749     1.0  0.58806  0.96282  0.08625  1.0000
  S   S706      1.0  0.54503  0.86681  0.26989  1.0000
  C   C1710     1.0  0.56902  0.80914  0.26454  1.0000
  C   C1711     1.0  0.66433  0.76073  0.32939  1.0000
  H   H2750     1.0  0.51042  0.83418  0.30817  1.0000
  C   C1712     1.0  0.64958  0.74643  0.30915  1.0000
  C   C1713     1.0  0.90144  0.81072  0.41515  1.0000
  C   C1714     1.0  0.99060  0.78437  0.33561  1.0000
  H   H2751     1.0  0.90063  0.84275  0.38490  1.0000
  C   C1715     1.0  0.52325  0.94170  0.34007  1.0000
  H   H2752     1.0  0.81544  0.96718  0.46669  1.0000
  H   H2753     1.0  0.53105  0.95074  0.04327  1.0000
  S   S707      1.0  0.57426  0.95438  0.26163  1.0000
  C   C1716     1.0  0.74262  0.81556  0.39765  1.0000
  C   C1717     1.0  0.72758  0.81556  0.41521  1.0000
  C   C1718     1.0  0.72874  0.82557  0.42994  1.0000
  C   C1719     1.0  0.75998  0.83552  0.40972  1.0000
  C   C1720     1.0  0.75885  0.82548  0.39502  1.0000
  H   H2754     1.0  0.71500  0.80798  0.41740  1.0000
  H   H2755     1.0  0.77251  0.84319  0.40747  1.0000
  C   C1721     1.0  0.74489  0.83567  0.42723  1.0000
  H   H2756     1.0  0.52110  0.91950  0.16988  1.0000
  H   H2757     1.0  0.90384  0.97644  0.38731  1.0000
  H   H2758     1.0  0.51767  0.98579  0.21184  1.0000
  Fe  Fe351     1.0  0.92461  0.95200  0.31872  1.0000
  H   H2759     1.0  0.73310  0.96698  0.45591  1.0000
  C   C1722     1.0  0.54884  0.75197  0.98606  1.0000
  C   C1723     1.0  0.84990  0.89063  0.99086  1.0000
  C   C1724     1.0  0.89416  0.98355  0.41688  1.0000
  H   H2760     1.0  0.58755  0.97773  0.22183  1.0000
  H   H2761     1.0  0.99222  0.93170  0.21228  1.0000
  H   H2762     1.0  0.98918  0.80124  0.45063  1.0000
  C   C1725     1.0  0.90342  0.97079  0.40307  1.0000
  H   H2763     1.0  0.91260  0.97613  0.28091  1.0000
  C   C1726     1.0  0.93752  0.81133  0.40755  1.0000
  C   C1727     1.0  0.91433  0.83845  0.39173  1.0000
  H   H2764     1.0  0.94162  0.79484  0.41284  1.0000
  H   H2765     1.0  0.62162  0.96677  0.20131  1.0000
  H   H2766     1.0  0.64175  0.82462  0.28452  1.0000
  H   H2767     1.0  0.51244  0.94762  0.29433  1.0000
  H   H2768     1.0  0.56517  0.79461  0.27145  1.0000
  H   H2769     1.0  0.50934  0.76024  0.45933  1.0000
  H   H2770     1.0  0.71701  0.82562  0.44344  1.0000
  H   H2771     1.0  0.59706  0.78895  0.31665  1.0000
  C   C1728     1.0  0.74532  0.96913  0.44298  1.0000
  H   H2772     1.0  0.98651  0.90112  0.20419  1.0000
  C   C1729     1.0  0.77654  0.98282  0.07091  1.0000
  S   S708      1.0  0.83208  0.96991  0.02096  1.0000
  H   H2773     1.0  0.91116  0.84706  0.40396  1.0000
  C   C1730     1.0  0.90233  0.95645  0.44392  1.0000
  H   H2774     1.0  0.84525  0.94259  0.43768  1.0000
  H   H2775     1.0  0.90820  0.80941  0.37610  1.0000
  H   H2776     1.0  0.95973  0.90525  0.36740  1.0000
  S   S709      1.0  0.92858  0.77393  0.45264  1.0000
  C   C1731     1.0  0.62357  0.79577  0.28180  1.0000
  H   H2777     1.0  0.60017  0.97914  0.16701  1.0000
  H   H2778     1.0  0.51537  0.94725  0.13011  1.0000
  H   H2779     1.0  0.98396  0.89007  0.37141  1.0000
  H   H2780     1.0  0.90190  0.95081  0.45962  1.0000
  C   C1732     1.0  0.63571  0.81517  0.29894  1.0000
  S   S710      1.0  0.74573  0.84815  0.44607  1.0000
  H   H2781     1.0  0.93885  0.88091  0.04927  1.0000
  C   C1733     1.0  0.76910  0.75198  0.38827  1.0000
  N   N169      1.0  0.52563  0.93644  0.32037  1.0000
  C   C1734     1.0  0.81274  0.96910  0.45136  1.0000
  S   S711      1.0  0.54454  0.97405  0.08885  1.0000
  H   H2782     1.0  0.91159  0.92102  0.03661  1.0000
  Fe  Fe352     1.0  0.66405  0.97997  0.12735  1.0000
  H   H2783     1.0  0.55144  0.74530  0.45429  1.0000
  H   H2784     1.0  0.55807  0.92585  0.31744  1.0000
  Fe  Fe353     1.0  0.78635  0.88703  0.46671  1.0000
  C   C1735     1.0  0.52620  0.93266  0.13000  1.0000
  H   H2785     1.0  0.56249  0.94517  0.11962  1.0000
  H   H2786     1.0  0.90808  0.90973  0.47684  1.0000
  S   S712      1.0  0.79381  0.85538  0.46143  1.0000
  H   H2787     1.0  0.60051  0.76418  0.99685  1.0000
  H   H2788     1.0  0.96792  0.94457  0.37247  1.0000
  N   N170      1.0  0.72620  0.93781  0.11897  1.0000
  C   C1736     1.0  0.72604  0.95273  0.13082  1.0000
  C   C1737     1.0  0.71007  0.94549  0.10719  1.0000
  C   C1738     1.0  0.72226  0.91885  0.13260  1.0000
  C   C1739     1.0  0.74631  0.93427  0.10527  1.0000
  H   H2789     1.0  0.73769  0.94724  0.14027  1.0000
  H   H2790     1.0  0.72944  0.96709  0.12098  1.0000
  H   H2791     1.0  0.71001  0.93490  0.09765  1.0000
  H   H2792     1.0  0.93548  0.81862  0.42055  1.0000
  H   H2793     1.0  0.72206  0.90730  0.12419  1.0000
  H   H2794     1.0  0.70714  0.92126  0.14311  1.0000
  H   H2795     1.0  0.74703  0.92310  0.09605  1.0000
  H   H2796     1.0  0.75894  0.92868  0.11357  1.0000
  H   H2797     1.0  0.74953  0.94837  0.09471  1.0000
  C   C1740     1.0  0.97439  0.90542  0.37123  1.0000
  C   C1741     1.0  0.93457  0.87679  0.46601  1.0000
  H   H2798     1.0  0.63065  0.98258  0.17814  1.0000
  C   C1742     1.0  0.52993  0.93175  0.16334  1.0000
  C   C1743     1.0  0.55872  0.97820  0.26228  1.0000
  H   H2799     1.0  0.84494  0.91626  0.33126  1.0000
  C   C1744     1.0  0.55328  0.94628  0.13490  1.0000
  H   H2800     1.0  0.62821  0.80502  0.26679  1.0000
  H   H2801     1.0  0.56334  0.90888  0.12719  1.0000
  C   C1745     1.0  0.63859  0.76549  0.44435  1.0000
  C   C1746     1.0  0.60126  0.82494  0.29316  1.0000
  C   C1747     1.0  0.98529  0.89410  0.22030  1.0000
  C   C1748     1.0  0.62054  0.98264  0.19323  1.0000
  S   S713      1.0  0.53272  0.92386  0.26285  1.0000
  H   H2802     1.0  0.63188  0.82435  0.31078  1.0000
  H   H2803     1.0  0.52061  0.96280  0.06445  1.0000
  H   H2804     1.0  0.79392  0.93079  0.36337  1.0000
  H   H2805     1.0  0.77545  0.73884  0.38071  1.0000
  N   N171      1.0  0.82581  0.93221  0.35405  1.0000
  C   C1749     1.0  0.84213  0.93101  0.33593  1.0000
  C   C1750     1.0  0.82311  0.95183  0.35984  1.0000
  C   C1751     1.0  0.83161  0.91586  0.37045  1.0000
  C   C1752     1.0  0.80652  0.93012  0.34992  1.0000
  H   H2806     1.0  0.64837  0.80252  0.30258  1.0000
  H   H2807     1.0  0.85680  0.93267  0.33859  1.0000
  H   H2808     1.0  0.83838  0.94311  0.32319  1.0000
  H   H2809     1.0  0.81961  0.96456  0.34751  1.0000
  H   H2810     1.0  0.88691  0.81492  0.40964  1.0000
  H   H2811     1.0  0.83711  0.95354  0.36386  1.0000
  H   H2812     1.0  0.83367  0.90085  0.36660  1.0000
  H   H2813     1.0  0.81980  0.91624  0.38445  1.0000
  C   C1753     1.0  0.75415  0.97659  0.05234  1.0000
  H   H2814     1.0  0.75211  0.97039  0.04044  1.0000
  N   N172      1.0  0.61775  0.80775  0.29776  1.0000
  C   C1754     1.0  0.97314  0.80126  0.45682  1.0000
  S   S714      1.0  0.52845  0.75167  0.30774  1.0000
  H   H2815     1.0  0.88961  0.95620  0.15968  1.0000
  H   H2816     1.0  0.73962  0.89834  0.99343  1.0000
  H   H2817     1.0  0.50324  0.80499  0.34802  1.0000
  C   C1755     1.0  0.75577  0.95292  0.43358  1.0000
  N   N173      1.0  0.90744  0.89043  0.04656  1.0000
  C   C1756     1.0  0.90740  0.87327  0.03768  1.0000
  C   C1757     1.0  0.91162  0.90772  0.03042  1.0000
  C   C1758     1.0  0.92338  0.88500  0.05857  1.0000
  C   C1759     1.0  0.88726  0.89588  0.05953  1.0000
  H   H2818     1.0  0.90424  0.85992  0.04939  1.0000
  H   H2819     1.0  0.92234  0.86881  0.02766  1.0000
  H   H2820     1.0  0.88897  0.98241  0.20028  1.0000
  C   C1760     1.0  0.93143  0.80200  0.47211  1.0000
  H   H2821     1.0  0.56410  0.94539  0.14454  1.0000
  H   H2822     1.0  0.85266  0.95541  0.45328  1.0000
  Fe  Fe354     1.0  0.88187  0.96693  0.34074  1.0000
  C   C1761     1.0  0.91276  0.95101  0.40963  1.0000
  N   N174      1.0  0.83090  0.97376  0.43601  1.0000
  H   H2823     1.0  0.90414  0.79424  0.42108  1.0000
  C   C1762     1.0  0.89357  0.97643  0.43734  1.0000
  S   S715      1.0  0.92936  0.74652  0.41037  1.0000
  H   H2824     1.0  0.97945  0.95278  0.34670  1.0000
  H   H2825     1.0  0.80238  0.75264  0.40107  1.0000
  C   C1763     1.0  0.77391  0.97501  0.05539  1.0000
  H   H2826     1.0  0.52663  0.95687  0.33848  1.0000
  H   H2827     1.0  0.97527  0.91647  0.33175  1.0000
  C   C1764     1.0  0.98623  0.76804  0.35082  1.0000
  C   C1765     1.0  0.90117  0.97831  0.08280  1.0000
  H   H2828     1.0  0.53134  0.90459  0.33170  1.0000
  C   C1766     1.0  0.82665  0.97621  0.41594  1.0000
  H   H2829     1.0  0.97493  0.92761  0.23602  1.0000
  C   C1767     1.0  0.53768  0.98102  0.26347  1.0000
  H   H2830     1.0  0.61259  0.78331  0.97959  1.0000
  H   H2831     1.0  0.59571  0.75230  0.47580  1.0000
  H   H2832     1.0  0.98957  0.74512  0.45355  1.0000
  S   S716      1.0  0.91267  0.97198  0.34163  1.0000
  Fe  Fe355     1.0  0.71085  0.74312  0.39198  1.0000
  H   H2833     1.0  0.76495  0.76209  0.43419  1.0000
  C   C1768     1.0  0.52701  0.96551  0.04809  1.0000
  H   H2834     1.0  0.74679  0.77052  0.41819  1.0000
  H   H2835     1.0  0.94916  0.88245  0.46191  1.0000
  C   C1769     1.0  0.61558  0.76774  0.98838  1.0000
  C   C1770     1.0  0.73703  0.98605  0.06471  1.0000
  H   H2836     1.0  0.77667  0.76466  0.37940  1.0000
  C   C1771     1.0  0.89398  0.97250  0.18896  1.0000
  C   C1772     1.0  0.76331  0.76511  0.41838  1.0000
  H   H2837     1.0  0.91354  0.96468  0.15227  1.0000
  H   H2838     1.0  0.67249  0.76495  0.29725  1.0000
  H   H2839     1.0  0.79917  0.98132  0.44972  1.0000
  H   H2840     1.0  0.57817  0.74626  0.44911  1.0000
  H   H2841     1.0  0.66927  0.74969  0.44587  1.0000
  C   C1773     1.0  0.65208  0.75172  0.34661  1.0000
  H   H2842     1.0  0.96890  0.89723  0.22776  1.0000
  C   C1774     1.0  0.58319  0.97812  0.08866  1.0000
  C   C1775     1.0  0.99112  0.92382  0.22815  1.0000
  C   C1776     1.0  0.65012  0.80370  0.47270  1.0000
  H   H2843     1.0  0.61370  0.98192  0.08762  1.0000
  H   H2844     1.0  0.61589  0.80322  0.46185  1.0000
  C   C1777     1.0  0.61420  0.81362  0.47218  1.0000
  H   H2845     1.0  0.52485  0.96857  0.00984  1.0000
  H   H2846     1.0  0.56400  0.74254  0.47438  1.0000
  H   H2847     1.0  0.88976  0.98586  0.07404  1.0000
  N   N175      1.0  0.51237  0.98005  0.03703  1.0000
  C   C1778     1.0  0.89665  0.96980  0.15475  1.0000
  N   N176      1.0  0.88927  0.98334  0.16941  1.0000
  H   H2848     1.0  0.50507  0.91556  0.33150  1.0000
  C   C1779     1.0  0.50619  0.79922  0.33392  1.0000
  H   H2849     1.0  0.50448  0.78319  0.33801  1.0000
  H   H2850     1.0  0.50736  0.94183  0.34892  1.0000
  H   H2851     1.0  0.54141  0.97110  0.04595  1.0000
  H   H2852     1.0  0.89315  0.97750  0.13989  1.0000
  H   H2853     1.0  0.99935  0.90114  0.33584  1.0000
  Fe  Fe356     1.0  0.85954  0.98369  0.01684  1.0000
  H   H2854     1.0  0.85876  0.97747  0.17683  1.0000
  C   C1780     1.0  0.53208  0.76544  0.97956  1.0000
  C   C1781     1.0  0.94139  0.81442  0.47766  1.0000
  C   C1782     1.0  0.79370  0.74061  0.40951  1.0000
  H   H2855     1.0  0.76400  0.85810  0.98181  1.0000
  H   H2856     1.0  0.93727  0.74331  0.33387  1.0000
  C   C1783     1.0  0.63761  0.73714  0.32643  1.0000
  H   H2857     1.0  0.91363  0.74033  0.32952  1.0000
  H   H2858     1.0  0.72086  0.90198  0.97856  1.0000
  C   C1784     1.0  0.81867  0.92080  0.97823  1.0000
  Fe  Fe357     1.0  0.56641  0.76866  0.54122  1.0000
  S   S717      1.0  0.56615  0.79614  0.55325  1.0000
  C   C1785     1.0  0.63286  0.97510  0.71270  1.0000
  H   H2859     1.0  0.60976  0.89671  0.68491  1.0000
  Fe  Fe358     1.0  0.64157  0.85730  0.56536  1.0000
  S   S718      1.0  0.63108  0.88940  0.55106  1.0000
  S   S719      1.0  0.64478  0.82842  0.55419  1.0000
  Fe  Fe359     1.0  0.65045  0.86930  0.60088  1.0000
  S   S720      1.0  0.64057  0.90215  0.59018  1.0000
  S   S721      1.0  0.66037  0.85389  0.62977  1.0000
  Fe  Fe360     1.0  0.61489  0.89336  0.58224  1.0000
  S   S722      1.0  0.58369  0.91177  0.59022  1.0000
  Fe  Fe361     1.0  0.65758  0.89597  0.55999  1.0000
  S   S723      1.0  0.67731  0.91818  0.54214  1.0000
  S   S724      1.0  0.62296  0.86087  0.59575  1.0000
  S   S725      1.0  0.66990  0.86360  0.57128  1.0000
  H   H2860     1.0  0.71018  0.91425  0.50329  1.0000
  H   H2861     1.0  0.93290  0.82410  0.48807  1.0000
  H   H2862     1.0  0.62069  0.79371  0.61417  1.0000
  H   H2863     1.0  0.93218  0.90784  0.48337  1.0000
  H   H2864     1.0  0.65471  0.74837  0.95381  1.0000
  H   H2865     1.0  0.57698  0.95524  0.58630  1.0000
  H   H2866     1.0  0.73933  0.76291  0.88283  1.0000
  H   H2867     1.0  0.67016  0.78005  0.63096  1.0000
  C   C1786     1.0  0.50727  0.75878  0.88345  1.0000
  C   C1787     1.0  0.56023  0.92303  0.62482  1.0000
  H   H2868     1.0  0.62699  0.80358  0.64363  1.0000
  H   H2869     1.0  0.60304  0.93983  0.60676  1.0000
  Fe  Fe362     1.0  0.50885  0.96410  0.71219  1.0000
  S   S726      1.0  0.84832  0.95346  0.81525  1.0000
  Fe  Fe363     1.0  0.69782  0.92604  0.67757  1.0000
  H   H2870     1.0  0.74552  0.89381  0.71823  1.0000
  S   S727      1.0  0.68742  0.89633  0.68669  1.0000
  H   H2871     1.0  0.63145  0.82732  0.62848  1.0000
  S   S728      1.0  0.57279  0.76624  0.50901  1.0000
  Fe  Fe364     1.0  0.84483  0.83252  0.93067  1.0000
  S   S729      1.0  0.81765  0.84138  0.95449  1.0000
  S   S730      1.0  0.87246  0.81104  0.94011  1.0000
  Fe  Fe365     1.0  0.82635  0.86097  0.89750  1.0000
  S   S731      1.0  0.79791  0.87247  0.91831  1.0000
  S   S732      1.0  0.82953  0.86929  0.86407  1.0000
  Fe  Fe366     1.0  0.81871  0.87300  0.93821  1.0000
  C   C1788     1.0  0.51695  0.75032  0.60847  1.0000
  Fe  Fe367     1.0  0.79871  0.84024  0.93313  1.0000
  S   S733      1.0  0.76905  0.82859  0.94530  1.0000
  S   S734      1.0  0.84732  0.86443  0.91575  1.0000
  S   S735      1.0  0.82585  0.82836  0.91087  1.0000
  H   H2872     1.0  0.65744  0.82841  0.59700  1.0000
  S   S736      1.0  0.66161  0.81470  0.88657  1.0000
  H   H2873     1.0  0.67626  0.81304  0.61023  1.0000
  S   S737      1.0  0.67962  0.78715  0.92565  1.0000
  C   C1789     1.0  0.55327  0.74947  0.59957  1.0000
  Fe  Fe368     1.0  0.64906  0.79827  0.91706  1.0000
  S   S738      1.0  0.62024  0.80857  0.93844  1.0000
  Fe  Fe369     1.0  0.69246  0.80113  0.89423  1.0000
  S   S739      1.0  0.71985  0.81658  0.88504  1.0000
  H   H2874     1.0  0.79651  0.91985  0.60323  1.0000
  H   H2875     1.0  0.75322  0.87189  0.49229  1.0000
  H   H2876     1.0  0.50665  0.75424  0.94202  1.0000
  H   H2877     1.0  0.71635  0.89154  0.53480  1.0000
  H   H2878     1.0  0.69572  0.87713  0.73131  1.0000
  C   C1790     1.0  0.51021  0.77476  0.86742  1.0000
  H   H2879     1.0  0.61075  0.76894  0.95145  1.0000
  Fe  Fe370     1.0  0.51864  0.82227  0.91088  1.0000
  S   S740      1.0  0.54733  0.83261  0.89283  1.0000
  S   S741      1.0  0.53657  0.75818  0.54759  1.0000
  N   N177      1.0  0.75077  0.88682  0.96619  1.0000
  H   H2880     1.0  0.60977  0.77854  0.54529  1.0000
  Fe  Fe371     1.0  0.86647  0.93887  0.51233  1.0000
  S   S742      1.0  0.89528  0.95128  0.50098  1.0000
  H   H2881     1.0  0.68583  0.88840  0.75319  1.0000
  C   C1791     1.0  0.57765  0.77479  0.89253  1.0000
  H   H2882     1.0  0.74292  0.88500  0.52361  1.0000
  H   H2883     1.0  0.65095  0.92643  0.67460  1.0000
  H   H2884     1.0  0.93971  0.85218  0.50126  1.0000
  Fe  Fe372     1.0  0.88570  0.96574  0.52819  1.0000
  S   S743      1.0  0.90764  0.96193  0.54872  1.0000
  H   H2885     1.0  0.62484  0.93247  0.65428  1.0000
  S   S744      1.0  0.85875  0.95040  0.54084  1.0000
  H   H2886     1.0  0.89381  0.87991  0.48120  1.0000
  H   H2887     1.0  0.56603  0.75696  0.59896  1.0000
  H   H2888     1.0  0.95119  0.87365  0.49717  1.0000
  C   C1792     1.0  0.78594  0.93362  0.59772  1.0000
  H   H2889     1.0  0.73422  0.86933  0.48014  1.0000
  H   H2890     1.0  0.82244  0.92709  0.57253  1.0000
  S   S745      1.0  0.69568  0.77353  0.88155  1.0000
  H   H2891     1.0  0.84285  0.97234  0.69784  1.0000
  H   H2892     1.0  0.92220  0.96098  0.58364  1.0000
  H   H2893     1.0  0.62531  0.81743  0.59911  1.0000
  H   H2894     1.0  0.52617  0.78366  0.83713  1.0000
  H   H2895     1.0  0.98275  0.76713  0.48815  1.0000
  H   H2896     1.0  0.99181  0.96215  0.62760  1.0000
  H   H2897     1.0  0.59825  0.81521  0.48107  1.0000
  C   C1793     1.0  0.66426  0.81260  0.60239  1.0000
  C   C1794     1.0  0.59968  0.81580  0.92610  1.0000
  C   C1795     1.0  0.57983  0.81409  0.93674  1.0000
  C   C1796     1.0  0.56355  0.81934  0.92668  1.0000
  C   C1797     1.0  0.56708  0.82676  0.90605  1.0000
  C   C1798     1.0  0.58685  0.82869  0.89554  1.0000
  C   C1799     1.0  0.60314  0.82295  0.90548  1.0000
  H   H2898     1.0  0.57705  0.80856  0.95270  1.0000
  H   H2899     1.0  0.54828  0.81785  0.93490  1.0000
  H   H2900     1.0  0.58964  0.83459  0.87965  1.0000
  H   H2901     1.0  0.61831  0.82453  0.89719  1.0000
  C   C1800     1.0  0.75518  0.82592  0.92840  1.0000
  C   C1801     1.0  0.73663  0.81904  0.93586  1.0000
  C   C1802     1.0  0.72535  0.81660  0.92278  1.0000
  C   C1803     1.0  0.73262  0.82088  0.90210  1.0000
  C   C1804     1.0  0.75108  0.82791  0.89467  1.0000
  C   C1805     1.0  0.76233  0.83041  0.90774  1.0000
  H   H2902     1.0  0.73095  0.81565  0.95183  1.0000
  H   H2903     1.0  0.71103  0.81144  0.92869  1.0000
  H   H2904     1.0  0.75679  0.83134  0.87869  1.0000
  H   H2905     1.0  0.77655  0.83581  0.90179  1.0000
  C   C1806     1.0  0.83980  0.93160  0.82969  1.0000
  C   C1807     1.0  0.84230  0.92538  0.84954  1.0000
  C   C1808     1.0  0.83793  0.90679  0.86069  1.0000
  C   C1809     1.0  0.83190  0.89396  0.85172  1.0000
  C   C1810     1.0  0.82915  0.90028  0.83196  1.0000
  C   C1811     1.0  0.83279  0.91920  0.82105  1.0000
  H   H2906     1.0  0.84784  0.93490  0.85622  1.0000
  H   H2907     1.0  0.83985  0.90216  0.87599  1.0000
  H   H2908     1.0  0.82450  0.89040  0.82495  1.0000
  H   H2909     1.0  0.83112  0.92376  0.80567  1.0000
  H   H2910     1.0  0.93140  0.75661  0.92898  1.0000
  S   S746      1.0  0.58455  0.73819  0.55088  1.0000
  C   C1812     1.0  0.75748  0.90558  0.95458  1.0000
  C   C1813     1.0  0.91386  0.76276  0.90617  1.0000
  C   C1814     1.0  0.91800  0.76553  0.92364  1.0000
  C   C1815     1.0  0.90504  0.78029  0.93398  1.0000
  C   C1816     1.0  0.88769  0.79209  0.92715  1.0000
  C   C1817     1.0  0.88314  0.78879  0.91008  1.0000
  C   C1818     1.0  0.89638  0.77439  0.89944  1.0000
  C   C1819     1.0  0.66130  0.74374  0.85666  1.0000
  H   H2911     1.0  0.90856  0.78268  0.94728  1.0000
  H   H2912     1.0  0.86947  0.79737  0.90509  1.0000
  S   S747      1.0  0.81009  0.89978  0.95388  1.0000
  C   C1820     1.0  0.63840  0.92903  0.68774  1.0000
  S   S748      1.0  0.74800  0.93869  0.71084  1.0000
  S   S749      1.0  0.56497  0.91037  0.68276  1.0000
  H   H2913     1.0  0.80654  0.93254  0.97344  1.0000
  H   H2914     1.0  0.53603  0.74572  0.63857  1.0000
  N   N178      1.0  0.64853  0.80164  0.61571  1.0000
  S   S750      1.0  0.52085  0.79048  0.92736  1.0000
  H   H2915     1.0  0.78094  0.86933  0.96077  1.0000
  H   H2916     1.0  0.62771  0.77515  0.48851  1.0000
  H   H2917     1.0  0.82249  0.87694  0.48434  1.0000
  H   H2918     1.0  0.56827  0.76350  0.90147  1.0000
  S   S751      1.0  0.69151  0.94340  0.70226  1.0000
  C   C1821     1.0  0.83962  0.88780  0.97708  1.0000
  C   C1822     1.0  0.65559  0.97793  0.53983  1.0000
  C   C1823     1.0  0.80508  0.91628  0.50879  1.0000
  C   C1824     1.0  0.82377  0.91875  0.51158  1.0000
  H   H2919     1.0  0.73376  0.96611  0.50673  1.0000
  H   H2920     1.0  0.68878  0.90378  0.72867  1.0000
  H   H2921     1.0  0.77035  0.92013  0.57311  1.0000
  H   H2922     1.0  0.76591  0.74574  0.93439  1.0000
  H   H2923     1.0  0.82413  0.93042  0.51911  1.0000
  H   H2924     1.0  0.73684  0.90778  0.49222  1.0000
  H   H2925     1.0  0.58914  0.92248  0.70351  1.0000
  H   H2926     1.0  0.59711  0.88813  0.65756  1.0000
  H   H2927     1.0  0.52806  0.76457  0.96600  1.0000
  H   H2928     1.0  0.60024  0.75277  0.86546  1.0000
  C   C1825     1.0  0.57780  0.91078  0.61607  1.0000
  C   C1826     1.0  0.63285  0.80182  0.60466  1.0000
  H   H2929     1.0  0.68985  0.88773  0.51827  1.0000
  H   H2930     1.0  0.54271  0.93262  0.65209  1.0000
  C   C1827     1.0  0.58684  0.89796  0.64848  1.0000
  C   C1828     1.0  0.59115  0.89837  0.62791  1.0000
  S   S752      1.0  0.73090  0.92819  0.66841  1.0000
  H   H2931     1.0  0.60481  0.88901  0.62131  1.0000
  C   C1829     1.0  0.66753  0.86702  0.64470  1.0000
  C   C1830     1.0  0.67169  0.88653  0.63789  1.0000
  C   C1831     1.0  0.67811  0.89584  0.65043  1.0000
  C   C1832     1.0  0.68006  0.88569  0.66983  1.0000
  C   C1833     1.0  0.67553  0.86643  0.67656  1.0000
  C   C1834     1.0  0.66946  0.85713  0.66407  1.0000
  H   H2932     1.0  0.67034  0.89426  0.62289  1.0000
  H   H2933     1.0  0.68158  0.91074  0.64507  1.0000
  H   H2934     1.0  0.67690  0.85851  0.69150  1.0000
  H   H2935     1.0  0.66628  0.84211  0.66947  1.0000
  C   C1835     1.0  0.66154  0.94212  0.53984  1.0000
  C   C1836     1.0  0.66868  0.95902  0.54071  1.0000
  H   H2936     1.0  0.92860  0.87101  0.51635  1.0000
  H   H2937     1.0  0.72219  0.75571  0.92864  1.0000
  C   C1837     1.0  0.62871  0.96320  0.53604  1.0000
  C   C1838     1.0  0.64151  0.94427  0.53760  1.0000
  H   H2938     1.0  0.68413  0.95740  0.54255  1.0000
  C   C1839     1.0  0.90920  0.98151  0.55996  1.0000
  H   H2939     1.0  0.72602  0.98600  0.48717  1.0000
  H   H2940     1.0  0.63594  0.93139  0.53668  1.0000
  H   H2941     1.0  0.85526  0.88063  0.49013  1.0000
  C   C1840     1.0  0.73766  0.86849  0.49497  1.0000
  H   H2942     1.0  0.64395  0.77412  0.95510  1.0000
  C   C1841     1.0  0.72567  0.87241  0.75144  1.0000
  Fe  Fe373     1.0  0.87511  0.97829  0.48688  1.0000
  H   H2943     1.0  0.59853  0.74994  0.96887  1.0000
  H   H2944     1.0  0.67174  0.80584  0.58891  1.0000
  C   C1842     1.0  0.65821  0.78067  0.62261  1.0000
  C   C1843     1.0  0.51773  0.73930  0.88143  1.0000
  C   C1844     1.0  0.51195  0.74414  0.48903  1.0000
  C   C1845     1.0  0.58827  0.80461  0.55360  1.0000
  C   C1846     1.0  0.58603  0.82333  0.55884  1.0000
  C   C1847     1.0  0.60321  0.83073  0.55919  1.0000
  C   C1848     1.0  0.62281  0.81943  0.55431  1.0000
  C   C1849     1.0  0.62508  0.80054  0.54936  1.0000
  C   C1850     1.0  0.60788  0.79314  0.54900  1.0000
  H   H2945     1.0  0.57092  0.83230  0.56248  1.0000
  H   H2946     1.0  0.60124  0.84529  0.56305  1.0000
  H   H2947     1.0  0.64021  0.79161  0.54575  1.0000
  C   C1851     1.0  0.52390  0.77128  0.84953  1.0000
  C   C1852     1.0  0.76225  0.74063  0.92209  1.0000
  H   H2948     1.0  0.78760  0.94610  0.60418  1.0000
  H   H2949     1.0  0.51851  0.76940  0.63685  1.0000
  H   H2950     1.0  0.58428  0.80800  0.86487  1.0000
  H   H2951     1.0  0.70160  0.86181  0.51869  1.0000
  H   H2952     1.0  0.59933  0.94328  0.70465  1.0000
  H   H2953     1.0  0.72995  0.88776  0.94758  1.0000
  C   C1853     1.0  0.70698  0.98454  0.59975  1.0000
  C   C1854     1.0  0.76821  0.87269  0.97343  1.0000
  C   C1855     1.0  0.81155  0.94104  0.56799  1.0000
  H   H2954     1.0  0.79104  0.92616  0.51401  1.0000
  H   H2955     1.0  0.55460  0.78936  0.85277  1.0000
  H   H2956     1.0  0.63966  0.79475  0.59126  1.0000
  H   H2957     1.0  0.63566  0.94522  0.68858  1.0000
  C   C1856     1.0  0.60341  0.92708  0.70387  1.0000
  C   C1857     1.0  0.84134  0.89070  0.49525  1.0000
  H   H2958     1.0  0.62976  0.89217  0.69851  1.0000
  H   H2959     1.0  0.64408  0.92019  0.70129  1.0000
  C   C1858     1.0  0.61386  0.97083  0.72379  1.0000
  C   C1859     1.0  0.61298  0.93521  0.66787  1.0000
  N   N179      1.0  0.92338  0.87949  0.48636  1.0000
  C   C1860     1.0  0.73234  0.76678  0.92136  1.0000
  H   H2960     1.0  0.90999  0.90364  0.50251  1.0000
  C   C1861     1.0  0.57691  0.97325  0.61615  1.0000
  C   C1862     1.0  0.90438  0.87140  0.49127  1.0000
  C   C1863     1.0  0.59625  0.97851  0.71582  1.0000
  C   C1864     1.0  0.63503  0.74046  0.83350  1.0000
  H   H2961     1.0  0.70695  0.90774  0.76268  1.0000
  H   H2962     1.0  0.82664  0.96675  0.72205  1.0000
  H   H2963     1.0  0.62730  0.77280  0.82901  1.0000
  H   H2964     1.0  0.90754  0.85534  0.48994  1.0000
  Fe  Fe374     1.0  0.54480  0.75242  0.51629  1.0000
  C   C1865     1.0  0.93627  0.86864  0.50093  1.0000
  H   H2965     1.0  0.64680  0.77192  0.63270  1.0000
  N   N180      1.0  0.57698  0.77860  0.87113  1.0000
  H   H2966     1.0  0.57060  0.95929  0.62209  1.0000
  C   C1866     1.0  0.58440  0.75961  0.86348  1.0000
  C   C1867     1.0  0.58997  0.79333  0.85983  1.0000
  C   C1868     1.0  0.55574  0.78673  0.86870  1.0000
  H   H2967     1.0  0.77910  0.96183  0.55258  1.0000
  H   H2968     1.0  0.52963  0.78136  0.58129  1.0000
  H   H2969     1.0  0.75522  0.87393  0.94015  1.0000
  N   N181      1.0  0.62925  0.80619  0.48521  1.0000
  S   S753      1.0  0.55383  0.74828  0.82626  1.0000
  C   C1869     1.0  0.72174  0.90331  0.49504  1.0000
  H   H2970     1.0  0.69838  0.97368  0.60970  1.0000
  H   H2971     1.0  0.81305  0.97620  0.68222  1.0000
  H   H2972     1.0  0.54212  0.78937  0.59651  1.0000
  H   H2973     1.0  0.54967  0.80131  0.87379  1.0000
  H   H2974     1.0  0.76005  0.95651  0.57503  1.0000
  H   H2975     1.0  0.73615  0.73948  0.89938  1.0000
  N   N182      1.0  0.89154  0.84870  0.86459  1.0000
  C   C1870     1.0  0.87882  0.83474  0.87825  1.0000
  C   C1871     1.0  0.88788  0.85189  0.84416  1.0000
  C   C1872     1.0  0.91331  0.84001  0.86465  1.0000
  C   C1873     1.0  0.88608  0.86814  0.87136  1.0000
  H   H2976     1.0  0.88094  0.83220  0.89390  1.0000
  H   H2977     1.0  0.88265  0.81987  0.87367  1.0000
  H   H2978     1.0  0.86231  0.84066  0.87843  1.0000
  H   H2979     1.0  0.89718  0.86241  0.83343  1.0000
  H   H2980     1.0  0.89162  0.83753  0.83860  1.0000
  H   H2981     1.0  0.87155  0.85852  0.84370  1.0000
  H   H2982     1.0  0.92342  0.85017  0.85461  1.0000
  H   H2983     1.0  0.91791  0.82530  0.85962  1.0000
  H   H2984     1.0  0.91641  0.83727  0.87995  1.0000
  H   H2985     1.0  0.86966  0.87485  0.87173  1.0000
  H   H2986     1.0  0.89508  0.87922  0.86121  1.0000
  H   H2987     1.0  0.88873  0.86638  0.88669  1.0000
  H   H2988     1.0  0.89301  0.77215  0.88602  1.0000
  C   C1874     1.0  0.63889  0.81145  0.63314  1.0000
  H   H2989     1.0  0.57446  0.74843  0.87127  1.0000
  H   H2990     1.0  0.65037  0.81193  0.64159  1.0000
  C   C1875     1.0  0.62570  0.78663  0.49778  1.0000
  H   H2991     1.0  0.73832  0.85265  0.50298  1.0000
  C   C1876     1.0  0.76461  0.77282  0.90023  1.0000
  H   H2992     1.0  0.95422  0.98458  0.55132  1.0000
  H   H2993     1.0  0.58436  0.76204  0.84725  1.0000
  C   C1877     1.0  0.72765  0.88108  0.52580  1.0000
  H   H2994     1.0  0.57136  0.98207  0.57833  1.0000
  S   S754      1.0  0.93011  0.74492  0.89238  1.0000
  H   H2995     1.0  0.71009  0.92283  0.73800  1.0000
  H   H2996     1.0  0.72625  0.85885  0.74544  1.0000
  H   H2997     1.0  0.60993  0.78783  0.50708  1.0000
  H   H2998     1.0  0.98541  0.96944  0.59048  1.0000
  H   H2999     1.0  0.77911  0.97024  0.57461  1.0000
  H   H3000     1.0  0.98272  0.95235  0.57630  1.0000
  H   H3001     1.0  0.81511  0.94492  0.55137  1.0000
  C   C1878     1.0  0.64940  0.76108  0.84776  1.0000
  H   H3002     1.0  0.55762  0.74070  0.97745  1.0000
  N   N183      1.0  0.53333  0.76057  0.60867  1.0000
  C   C1879     1.0  0.62696  0.82080  0.49815  1.0000
  C   C1880     1.0  0.61368  0.75374  0.96091  1.0000
  H   H3003     1.0  0.50192  0.78979  0.86877  1.0000
  H   H3004     1.0  0.60813  0.91878  0.71804  1.0000
  H   H3005     1.0  0.77957  0.76632  0.89151  1.0000
  H   H3006     1.0  0.81479  0.95343  0.57349  1.0000
  H   H3007     1.0  0.78018  0.93390  0.73154  1.0000
  H   H3008     1.0  0.97482  0.96553  0.54255  1.0000
  H   H3009     1.0  0.59026  0.79622  0.84355  1.0000
  Fe  Fe375     1.0  0.66367  0.78566  0.87693  1.0000
  C   C1881     1.0  0.62386  0.90165  0.68532  1.0000
  C   C1882     1.0  0.97105  0.98101  0.54574  1.0000
  N   N184      1.0  0.79009  0.93861  0.57566  1.0000
  H   H3010     1.0  0.76085  0.74262  0.88404  1.0000
  S   S755      1.0  0.52510  0.76121  0.49300  1.0000
  N   N185      1.0  0.62638  0.75321  0.97516  1.0000
  Fe  Fe376     1.0  0.54721  0.93995  0.69006  1.0000
  H   H3011     1.0  0.84379  0.87390  0.97148  1.0000
  H   H3012     1.0  0.54558  0.76877  0.63013  1.0000
  C   C1883     1.0  0.80320  0.98313  0.69493  1.0000
  C   C1884     1.0  0.97764  0.96803  0.57897  1.0000
  H   H3013     1.0  0.71783  0.90497  0.48026  1.0000
  H   H3014     1.0  0.76375  0.91268  0.96373  1.0000
  H   H3015     1.0  0.61337  0.96478  0.53386  1.0000
  N   N186      1.0  0.59283  0.97158  0.59779  1.0000
  C   C1885     1.0  0.77305  0.95866  0.74713  1.0000
  H   H3016     1.0  0.64632  0.96948  0.71907  1.0000
  N   N187      1.0  0.71688  0.89094  0.73880  1.0000
  C   C1886     1.0  0.52981  0.78128  0.59708  1.0000
  H   H3017     1.0  0.62124  0.95223  0.58806  1.0000
  S   S756      1.0  0.73969  0.96418  0.61702  1.0000
  C   C1887     1.0  0.78646  0.92228  0.56772  1.0000
  Fe  Fe377     1.0  0.53378  0.98418  0.67429  1.0000
  C   C1888     1.0  0.58367  0.96907  0.58190  1.0000
  H   H3018     1.0  0.74153  0.87267  0.75226  1.0000
  S   S757      1.0  0.84699  0.96482  0.49648  1.0000
  S   S758      1.0  0.68810  0.95252  0.65466  1.0000
  N   N188      1.0  0.75155  0.75761  0.90920  1.0000
  H   H3019     1.0  0.73016  0.87994  0.71133  1.0000
  H   H3020     1.0  0.59358  0.76929  0.89487  1.0000
  H   H3021     1.0  0.89597  0.87244  0.50683  1.0000
  C   C1889     1.0  0.72959  0.89281  0.71837  1.0000
  C   C1890     1.0  0.73834  0.97119  0.73004  1.0000
  H   H3022     1.0  0.76994  0.90267  0.94143  1.0000
  C   C1891     1.0  0.63556  0.98001  0.53748  1.0000
  C   C1892     1.0  0.80458  0.90120  0.49894  1.0000
  H   H3023     1.0  0.65611  0.75840  0.97448  1.0000
  C   C1893     1.0  0.82277  0.88861  0.49195  1.0000
  C   C1894     1.0  0.75214  0.95370  0.72593  1.0000
  C   C1895     1.0  0.91779  0.97659  0.57700  1.0000
  H   H3024     1.0  0.51497  0.79023  0.60352  1.0000
  H   H3025     1.0  0.60977  0.95159  0.66805  1.0000
  H   H3026     1.0  0.58292  0.97626  0.62819  1.0000
  C   C1896     1.0  0.56947  0.91041  0.65719  1.0000
  Fe  Fe378     1.0  0.55107  0.97097  0.71162  1.0000
  S   S759      1.0  0.71650  0.97620  0.66981  1.0000
  H   H3027     1.0  0.61655  0.95543  0.61356  1.0000
  H   H3028     1.0  0.54543  0.77627  0.87758  1.0000
  Fe  Fe379     1.0  0.68087  0.76050  0.91254  1.0000
  C   C1897     1.0  0.77642  0.95757  0.56915  1.0000
  Fe  Fe380     1.0  0.72414  0.94760  0.69151  1.0000
  N   N189      1.0  0.98225  0.98282  0.56039  1.0000
  C   C1898     1.0  0.84191  0.90580  0.50499  1.0000
  H   H3029     1.0  0.73523  0.77302  0.93331  1.0000
  H   H3030     1.0  0.78631  0.95359  0.75387  1.0000
  C   C1899     1.0  0.71643  0.90854  0.74728  1.0000
  H   H3031     1.0  0.76794  0.97551  0.49899  1.0000
  S   S760      1.0  0.57266  0.97299  0.72992  1.0000
  H   H3032     1.0  0.77004  0.93104  0.60398  1.0000
  H   H3033     1.0  0.96099  0.97019  0.58550  1.0000
  C   C1900     1.0  0.55622  0.92308  0.64537  1.0000
  S   S761      1.0  0.64915  0.77023  0.90693  1.0000
  C   C1901     1.0  0.76950  0.94750  0.73453  1.0000
  H   H3034     1.0  0.59526  0.96786  0.56783  1.0000
  Fe  Fe381     1.0  0.82899  0.97606  0.79546  1.0000
  H   H3035     1.0  0.66567  0.77289  0.60979  1.0000
  H   H3036     1.0  0.79654  0.90774  0.57237  1.0000
  H   H3037     1.0  0.78962  0.92555  0.55109  1.0000
  C   C1902     1.0  0.69588  0.88999  0.73804  1.0000
  H   H3038     1.0  0.72813  0.86565  0.53485  1.0000
  N   N190      1.0  0.72223  0.88253  0.50642  1.0000
  H   H3039     1.0  0.57154  0.78875  0.89881  1.0000
  H   H3040     1.0  0.71646  0.87053  0.76700  1.0000
  S   S762      1.0  0.53664  0.94376  0.72181  1.0000
  S   S763      1.0  0.65068  0.78501  0.85080  1.0000
  S   S764      1.0  0.78120  0.89810  0.49545  1.0000
  N   N191      1.0  0.61967  0.92323  0.68621  1.0000
  S   S765      1.0  0.86540  0.90794  0.50908  1.0000
  H   H3041     1.0  0.61275  0.96171  0.73863  1.0000
  H   H3042     1.0  0.51648  0.74967  0.59294  1.0000
  Fe  Fe382     1.0  0.84145  0.97769  0.52395  1.0000
  H   H3043     1.0  0.63654  0.78071  0.50807  1.0000
  H   H3044     1.0  0.54988  0.93264  0.61570  1.0000
  H   H3045     1.0  0.59878  0.93131  0.66632  1.0000
  C   C1903     1.0  0.53512  0.75195  0.84787  1.0000
  Fe  Fe383     1.0  0.72065  0.95644  0.64769  1.0000
  H   H3046     1.0  0.72336  0.90664  0.70856  1.0000
  C   C1904     1.0  0.75902  0.97594  0.75155  1.0000
  H   H3047     1.0  0.91279  0.97871  0.72249  1.0000
  S   S766      1.0  0.51833  0.95778  0.68105  1.0000
  S   S767      1.0  0.82428  0.97642  0.76470  1.0000
  H   H3048     1.0  0.63542  0.89829  0.67173  1.0000
  C   C1905     1.0  0.63639  0.75940  0.83606  1.0000
  H   H3049     1.0  0.50165  0.75812  0.61537  1.0000
  H   H3050     1.0  0.76758  0.77955  0.91182  1.0000
  C   C1906     1.0  0.91826  0.90111  0.48727  1.0000
  H   H3051     1.0  0.61153  0.82265  0.50816  1.0000
  Fe  Fe384     1.0  0.68451  0.97012  0.67852  1.0000
  S   S768      1.0  0.56364  0.96570  0.68037  1.0000
  C   C1907     1.0  0.99797  0.75769  0.48353  1.0000
  H   H3052     1.0  0.73208  0.90980  0.74788  1.0000
  H   H3053     1.0  0.72371  0.77928  0.91194  1.0000
  C   C1908     1.0  0.60915  0.95401  0.60179  1.0000
  H   H3054     1.0  0.74702  0.97395  0.53341  1.0000
  C   C1909     1.0  0.64616  0.75873  0.96416  1.0000
  H   H3055     1.0  0.62117  0.74293  0.95075  1.0000
  H   H3056     1.0  0.69751  0.87807  0.49551  1.0000
  C   C1910     1.0  0.82390  0.90287  0.97074  1.0000
  H   H3057     1.0  0.75719  0.78543  0.88981  1.0000
  C   C1911     1.0  0.83198  0.97916  0.71016  1.0000
  H   H3058     1.0  0.60603  0.78804  0.86184  1.0000
  H   H3059     1.0  0.55352  0.74851  0.58403  1.0000
  H   H3060     1.0  0.74476  0.91672  0.94894  1.0000
  C   C1912     1.0  0.70191  0.87728  0.50988  1.0000
  C   C1913     1.0  0.74316  0.87761  0.95332  1.0000
  H   H3061     1.0  0.72488  0.97607  0.72359  1.0000
  H   H3062     1.0  0.63840  0.81593  0.50787  1.0000
  C   C1914     1.0  0.74681  0.75027  0.89317  1.0000
  H   H3063     1.0  0.73830  0.86321  0.96150  1.0000
  C   C1915     1.0  0.53335  0.76116  0.62949  1.0000
  H   H3064     1.0  0.56388  0.98569  0.61328  1.0000
  H   H3065     1.0  0.62482  0.73930  0.82459  1.0000
  H   H3066     1.0  0.62908  0.83587  0.48919  1.0000
  H   H3067     1.0  0.67147  0.74496  0.86560  1.0000
  C   C1916     1.0  0.72730  0.98345  0.60067  1.0000
  C   C1917     1.0  0.74169  0.98214  0.74294  1.0000
  H   H3068     1.0  0.79707  0.97094  0.70655  1.0000
  C   C1918     1.0  0.72699  0.98236  0.50323  1.0000
  H   H3069     1.0  0.66191  0.79815  0.48200  1.0000
  C   C1919     1.0  0.50851  0.73838  0.94987  1.0000
  H   H3070     1.0  0.71104  0.98467  0.51212  1.0000
  N   N192      1.0  0.99620  0.73717  0.48293  1.0000
  H   H3071     1.0  0.84079  0.98655  0.71658  1.0000
  C   C1920     1.0  0.62625  0.73736  0.47842  1.0000
  H   H3072     1.0  0.91529  0.80231  0.47818  1.0000
