data_image0
_chemical_formula_structural       FeS2FeS2FeSFeS3FeS2FeS2FeSFeS3FeS2FeS2FeSFeS3FeS2FeS2FeSFeS3FeS2FeS2FeSFeS3FeS2FeS2FeSFeS3FeS2FeS2FeSFeS3FeS2FeS2FeSFeS3FeS2FeS2FeSFeS3FeS2FeS2FeSFeS3FeS2FeS2FeSFeS3FeS2FeS2FeSFeS3FeS2FeS2FeSFeS3FeS2FeS2FeSFeS3FeS2FeS2FeSFeS3FeS2FeS2FeSFeS3C6H4C6H4C6H4C6H4C6H4C6H4C6H4C6H4C6H4C6H4C6H4C6H4C6H4C6H4C6H4C6H4C6H4C6H4C6H4C6H4C6H4C6H4C6H4C6H4C6H4C6H4C6H4C6H4C6H4C6H4C6H4C6H4NC4H12NC4H12NC4H12NC4H12NC4H12NC4H12NC4H12NC4H12NC4H12NC4H12NC4H12NC4H12NC4H12NC4H12NC4H12NC4H12NC4H12NC4H12NC4H12NC4H12NC4H12NC4H12NC4H12NC4H12NC4H12NC4H12NC4H12NC4H12NC4H12NC4H12NC4H12NC4H12
_chemical_formula_sum              "Fe64 S128 C320 H512 N32"
_cell_length_a       37.22779852086517
_cell_length_b       38.16178581095049
_cell_length_c       29.6867489659007
_cell_angle_alpha    89.91673836511936
_cell_angle_beta     90.40544480138391
_cell_angle_gamma    90.08168148693252

_space_group_name_H-M_alt    "P 1"
_space_group_IT_number       1

loop_
  _space_group_symop_operation_xyz
  'x, y, z'

loop_
  _atom_site_type_symbol
  _atom_site_label
  _atom_site_symmetry_multiplicity
  _atom_site_fract_x
  _atom_site_fract_y
  _atom_site_fract_z
  _atom_site_occupancy
  Fe  Fe1       1.0  0.31019636281187074  0.7411888133875638  0.41800001979969187  1.0000
  S   S1        1.0  0.3506661082941305  0.705752551508639  0.45059829829126  1.0000
  S   S2        1.0  0.3287820541755589  0.773339897498194  0.3588988647621311  1.0000
  Fe  Fe2       1.0  0.25091813184550177  0.7175134494731583  0.48014702641550816  1.0000
  S   S3        1.0  0.2866486824743327  0.6809488708496282  0.5190926673470527  1.0000
  S   S4        1.0  0.19265225790454496  0.7192144226711913  0.4993700435257855  1.0000
  Fe  Fe3       1.0  0.3269195367721  0.724562265359277  0.5152273712354705  1.0000
  S   S5        1.0  0.36485961503977243  0.7373638844763548  0.5721001361914774  1.0000
  Fe  Fe4       1.0  0.3069259094722792  0.6654727169847641  0.4511605569348044  1.0000
  S   S6        1.0  0.3169925985843524  0.6096207609984237  0.4312303497168054  1.0000
  S   S7        1.0  0.28928087090261523  0.7630291560691655  0.4827986887345555  1.0000
  S   S8        1.0  0.2684375671140357  0.6988236451706971  0.41210073837499744  1.0000
  Fe  Fe5       1.0  0.2753583062135721  0.7057038601714701  0.8272852160469893  1.0000
  S   S9        1.0  0.2761212688494182  0.7226121626356977  0.8997299918489386  1.0000
  S   S10       1.0  0.264098341848193  0.6507483043743492  0.8027505406803747  1.0000
  Fe  Fe6       1.0  0.2855624833664595  0.7803008350791546  0.7926326832807343  1.0000
  S   S11       1.0  0.286052885618388  0.8034213888906367  0.8618544519350869  1.0000
  S   S12       1.0  0.28905992479460035  0.8154736912336167  0.7320835272673528  1.0000
  Fe  Fe7       1.0  0.3215412369562078  0.757795863157909  0.8790577409939195  1.0000
  S   S13       1.0  0.37439963019085026  0.7636744732949454  0.9155848569748904  1.0000
  Fe  Fe8       1.0  0.24069854317283196  0.7662607745954878  0.875629481302399  1.0000
  S   S14       1.0  0.1895557812192981  0.7801044948866955  0.9110003000791618  1.0000
  S   S15       1.0  0.3240745276200738  0.736959666110236  0.8083869090473046  1.0000
  S   S16       1.0  0.23690402026770147  0.7472844543915679  0.8044008044833909  1.0000
  Fe  Fe9       1.0  0.43438064836758405  0.9341287665490887  0.37640326400328267  1.0000
  S   S17       1.0  0.46635728813006605  0.8863195713581833  0.36034010319463194  1.0000
  S   S18       1.0  0.37565709112719287  0.9306177056225029  0.3923888279993513  1.0000
  Fe  Fe10      1.0  0.5003989469404306  0.9811495011537388  0.376503896508334  1.0000
  S   S19       1.0  0.5380398696345867  0.9366811467432777  0.36211652054262333  1.0000
  S   S20       1.0  0.5210471113287796  0.036754596441071374  0.3771660351453755  1.0000
  Fe  Fe11      1.0  0.4957102350300086  0.9208251843105318  0.31194123427201803  1.0000
  S   S21       1.0  0.5120416922377957  0.8997533511582548  0.24445733598111186  1.0000
  Fe  Fe12      1.0  0.5050404502178935  0.9064914495279103  0.41204382429763303  1.0000
  S   S22       1.0  0.5193020809253491  0.8679846194692644  0.4664752266395617  1.0000
  S   S23       1.0  0.45989197239835006  0.9672195472373972  0.32307771515425254  1.0000
  S   S24       1.0  0.47122003981549565  0.9524702897605554  0.4312964089992073  1.0000
  Fe  Fe13      1.0  0.46168099970206916  0.9391542480833193  0.9677194588788378  1.0000
  S   S25       1.0  0.5046275540275094  0.9248343447569686  0.017341661919250795  1.0000
  S   S26       1.0  0.4049198829263019  0.9197669851798722  0.9741882149686345  1.0000
  Fe  Fe14      1.0  0.5084518018401526  0.9917112597086211  0.9197998575030951  1.0000
  S   S27       1.0  0.5557010986567023  0.9828146703235238  0.9657264092030221  1.0000
  S   S28       1.0  0.5128972217415021  0.031101429371204192  0.863696545854156  1.0000
  Fe  Fe15      1.0  0.5414110463825569  0.9260073911799204  0.9578663041829558  1.0000
  S   S29       1.0  0.5859405063929664  0.8864639211761439  0.9558013463474543  1.0000
  Fe  Fe16      1.0  0.5155299225380957  0.9824216333634521  0.021446604053004803  1.0000
  S   S30       1.0  0.5216324801265979  0.010686216262584258  0.08753472764145531  1.0000
  S   S31       1.0  0.497183984834663  0.9347280347493141  0.9071460176365197  1.0000
  S   S32       1.0  0.4695183002069007  0.9969695282465652  0.9765492238613037  1.0000
  Fe  Fe17      1.0  0.7153733344470967  0.8465948011810891  0.4396215279446098  1.0000
  S   S33       1.0  0.7210821200991014  0.9036371301678586  0.4541741440632868  1.0000
  S   S34       1.0  0.6787919403412387  0.8129107110074466  0.4802354306559795  1.0000
  Fe  Fe18      1.0  0.7713928276384764  0.8476181057513162  0.36622451114824517  1.0000
  S   S35       1.0  0.7823521218111397  0.9052446476755384  0.37408109246382104  1.0000
  S   S36       1.0  0.7971681340842112  0.8105338319459996  0.3174078296775638  1.0000
  Fe  Fe19      1.0  0.7801227163210861  0.8936007790691018  0.4483959647688324  1.0000
  S   S37       1.0  0.8156132477361823  0.916980039520891  0.5019604170265385  1.0000
  Fe  Fe20      1.0  0.7222447243263894  0.9100715261468294  0.37914781795167285  1.0000
  S   S38       1.0  0.6840980558917205  0.9489859231392452  0.3474043256396131  1.0000
  S   S39       1.0  0.7741191951961541  0.835644702184386  0.4399046356605635  1.0000
  S   S40       1.0  0.7114685450528256  0.8532193836573663  0.36505515638349545  1.0000
  Fe  Fe21      1.0  0.7952114046938861  0.9193147068190501  0.7860595389544417  1.0000
  S   S41       1.0  0.759396790027276  0.8985955132289218  0.8401670536893225  1.0000
  S   S42       1.0  0.8168161471850831  0.9739368399623638  0.7909700444057605  1.0000
  Fe  Fe22      1.0  0.7954963241190108  0.8506892859609478  0.7347075109497727  1.0000
  S   S43       1.0  0.7597161200613255  0.8237237249857643  0.7843521859566226  1.0000
  S   S44       1.0  0.8144963222387885  0.8205843345583603  0.6744482504566341  1.0000
  Fe  Fe23      1.0  0.728668919421199  0.874154270755216  0.7829406987725139  1.0000
  S   S45       1.0  0.66915446424418  0.8789021439045862  0.7715595734674277  1.0000
  Fe  Fe24      1.0  0.7940501198511541  0.8504412122901253  0.836621015296539  1.0000
  S   S46       1.0  0.8197515843310889  0.8261414299789549  0.8981238393098336  1.0000
  S   S47       1.0  0.7618030180191863  0.8989370259029585  0.7288900293826777  1.0000
  S   S48       1.0  0.8324332855375789  0.8733268520571947  0.7868228244573183  1.0000
  Fe  Fe25      1.0  0.9692259696875686  0.7093262428403938  0.3612081681070192  1.0000
  S   S49       1.0  0.00010837606469271677  0.7049210188267286  0.29696051824339803  1.0000
  S   S50       1.0  0.9490619076671035  0.7606230356548375  0.3880458796639139  1.0000
  Fe  Fe26      1.0  0.9827835359612938  0.6338257685686485  0.38768937984001406  1.0000
  S   S51       1.0  0.015120130468651904  0.6228419792526194  0.3259550311335242  1.0000
  S   S52       1.0  0.9790101405788213  0.5919731877216222  0.4408591727223564  1.0000
  Fe  Fe27      1.0  0.040196350726974694  0.6751862548603006  0.3385700880692536  1.0000
  S   S53       1.0  0.09865948936767177  0.6861497918067564  0.3266677712496458  1.0000
  Fe  Fe28      1.0  0.972198553309837  0.652989114639771  0.2895035312361659  1.0000
  S   S54       1.0  0.9515753872924533  0.6280066046005223  0.22556135974870886  1.0000
  S   S55       1.0  0.011759538008736081  0.6837588680795359  0.40368821422533246  1.0000
  S   S56       1.0  0.937414796947051  0.6599881981450676  0.3505093334638322  1.0000
  Fe  Fe29      1.0  0.02550122626506246  0.6644933133790104  0.8965725822484704  1.0000
  S   S57       1.0  0.9827151529837779  0.6281765546208206  0.8718718999705398  1.0000
  S   S58       1.0  0.07530397867887872  0.6658297657728649  0.8551763865708428  1.0000
  Fe  Fe30      1.0  0.9871979024211357  0.6783733054055603  0.9841787430917224  1.0000
  S   S59       1.0  0.9414393526293595  0.6421360388210007  0.9677107906640472  1.0000
  S   S60       1.0  0.9919919666924856  0.7099733594629156  0.047567917943529325  1.0000
  Fe  Fe31      1.0  0.9843636338690129  0.606234303478627  0.9416695424939556  1.0000
  S   S61       1.0  0.9915096515646914  0.5481856010576168  0.9509781194314724  1.0000
  Fe  Fe32      1.0  0.9442314366229948  0.6676305921204143  0.8995564053941871  1.0000
  S   S62       1.0  0.8943952957793454  0.6808821396324962  0.8599906515258338  1.0000
  S   S63       1.0  0.02978816038297105  0.6402476864279041  0.9649457390408993  1.0000
  S   S64       1.0  0.9872034509590106  0.7065331928995042  0.9176389815072717  1.0000
  Fe  Fe33      1.0  0.17971182477445966  0.4731074132511122  0.3828199520017546  1.0000
  S   S65       1.0  0.12809357100733773  0.459430885243179  0.3479782608190446  1.0000
  S   S66       1.0  0.17680375528486256  0.51657606464908  0.4335326730145731  1.0000
  Fe  Fe34      1.0  0.22190968754047113  0.41739144766077974  0.33275944139896924  1.0000
  S   S67       1.0  0.17373883969962023  0.3985970515159221  0.2937306385174388  1.0000
  S   S68       1.0  0.2776922600613372  0.3968148934906196  0.3201842298438591  1.0000
  Fe  Fe35      1.0  0.1612128621857024  0.4558402573590984  0.28546798379876875  1.0000
  S   S69       1.0  0.14547532639337932  0.4838784439217024  0.2216324865362013  1.0000
  Fe  Fe36      1.0  0.14520337525104726  0.40396461903196007  0.35971095410844467  1.0000
  S   S70       1.0  0.10659843664955586  0.36545126815866613  0.3893766276742228  1.0000
  S   S71       1.0  0.21167662720062297  0.47444359574115985  0.31925325399309357  1.0000
  S   S72       1.0  0.1945142818461585  0.4177720318888001  0.39984754308861664  1.0000
  Fe  Fe37      1.0  0.23392602178770075  0.42564849285576295  0.9004970725407061  1.0000
  S   S73       1.0  0.1838249856473562  0.39665595499198775  0.9197217465514371  1.0000
  S   S74       1.0  0.2764946485041785  0.4065835366682467  0.8532964606412478  1.0000
  Fe  Fe38      1.0  0.21118279318429484  0.49277029167603226  0.9458032695810505  1.0000
  S   S75       1.0  0.15909522653155775  0.47042103301794047  0.9695764450885243  1.0000
  S   S76       1.0  0.22832576222865641  0.5474697735431042  0.9632587643754291  1.0000
  Fe  Fe39      1.0  0.19147124205032212  0.42283729329579633  0.9869546758789043  1.0000
  S   S77       1.0  0.18003757707570356  0.3925260927644063  0.05023095776704145  1.0000
  Fe  Fe40      1.0  0.15531022874302128  0.44628748071078594  0.9011111498693118  1.0000
  S   S78       1.0  0.10327804976546355  0.45252804885306924  0.8636850401242391  1.0000
  S   S79       1.0  0.2444858101099488  0.44725704402533883  0.9695217249638662  1.0000
  S   S80       1.0  0.20454016118257384  0.47310745801643017  0.8754855562564805  1.0000
  Fe  Fe41      1.0  0.41824236944898435  0.25912264361406134  0.48784523710065086  1.0000
  S   S81       1.0  0.4087472461336655  0.2756595652677917  0.41632962174062543  1.0000
  S   S82       1.0  0.4290291865948931  0.29681022464236345  0.5442314796082734  1.0000
  Fe  Fe42      1.0  0.4130559740027588  0.1818839671706705  0.4663655374122138  1.0000
  S   S83       1.0  0.40140732498300924  0.19107273500010194  0.3931658073857727  1.0000
  S   S84       1.0  0.4192370010355199  0.12859922319436518  0.4972834352453032  1.0000
  Fe  Fe43      1.0  0.4455457665198999  0.23098445304934642  0.3989088940449318  1.0000
  S   S85       1.0  0.48597072565309396  0.23428353618468403  0.34309551650494774  1.0000
  Fe  Fe44      1.0  0.36561460604857526  0.23458317024013473  0.416838364957773  1.0000
  S   S86       1.0  0.308849022787976  0.24403110404859088  0.3929258261191138  1.0000
  S   S87       1.0  0.4595255036243604  0.21882663768519262  0.47075746804629093  1.0000
  S   S88       1.0  0.3726873662509688  0.22094827297526082  0.4899474666793892  1.0000
  Fe  Fe45      1.0  0.38928151480655976  0.17980092878023277  0.8363139682103441  1.0000
  S   S89       1.0  0.434465209677432  0.2083938494584807  0.8702360875038962  1.0000
  S   S90       1.0  0.3743137084782416  0.12550977455788714  0.8578949285361129  1.0000
  Fe  Fe46      1.0  0.3739107175015573  0.2394704906018207  0.7708209409776324  1.0000
  S   S91       1.0  0.4184306594122012  0.2729523815048305  0.79831919813065  1.0000
  S   S92       1.0  0.3372036409942419  0.25525527437812134  0.7138246611867782  1.0000
  Fe  Fe47      1.0  0.4500507517223263  0.22290425429481203  0.7997197298745135  1.0000
  S   S93       1.0  0.504891695437224  0.2143077775512193  0.7710552987039603  1.0000
  Fe  Fe48      1.0  0.3981117190586557  0.25540711638168206  0.8657972559675378  1.0000
  S   S94       1.0  0.3850612879431103  0.2916453597383444  0.9232214476824915  1.0000
  S   S95       1.0  0.4071671550892569  0.19094742358254962  0.7661369472840818  1.0000
  S   S96       1.0  0.35136033041738884  0.22518805716119067  0.8381052566124703  1.0000
  Fe  Fe49      1.0  0.7284432724554231  0.2025589868037752  0.2553440385008663  1.0000
  S   S97       1.0  0.669250702505791  0.21124302429471906  0.2605310773601669  1.0000
  S   S98       1.0  0.7638672362249737  0.25013024502864556  0.2511777894322423  1.0000
  Fe  Fe50      1.0  0.7204429649187156  0.1239570277288938  0.24799843559992568  1.0000
  S   S99       1.0  0.6604963483790037  0.12533795154648789  0.2531908977625825  1.0000
  S   S100      1.0  0.7521486431724089  0.07469241422805693  0.23855881919863017  1.0000
  Fe  Fe51      1.0  0.6645848563023521  0.17100770447721111  0.2063500790000224  1.0000
  S   S101      1.0  0.626419001038549  0.17815013182956385  0.14883509739434359  1.0000
  Fe  Fe52      1.0  0.6699694000803055  0.1649502703218551  0.30721672288913887  1.0000
  S   S102      1.0  0.6363961677069316  0.16027167678149717  0.3696017310498014  1.0000
  S   S103      1.0  0.7237944577937571  0.16644765750312399  0.19602876586157753  1.0000
  S   S104      1.0  0.7300125264045716  0.15955370513370157  0.3070463232221469  1.0000
  Fe  Fe53      1.0  0.6940269073725632  0.1118555663213402  0.855595921317573  1.0000
  S   S105      1.0  0.6439793678740234  0.11496708605559149  0.896923800918148  1.0000
  S   S106      1.0  0.6903070832958355  0.08334500900659159  0.7900077084663369  1.0000
  Fe  Fe54      1.0  0.7401204456408147  0.14709438961686078  0.9256653236287427  1.0000
  S   S107      1.0  0.6946104106450359  0.15338632017016177  0.9731066368842947  1.0000
  S   S108      1.0  0.7944934324479789  0.16442801704324403  0.9492494327406343  1.0000
  Fe  Fe55      1.0  0.6798260663219351  0.09877598140213044  0.9535111433038715  1.0000
  S   S109      1.0  0.66307870879766  0.062221821407302716  0.007875402118879826  1.0000
  Fe  Fe56      1.0  0.6627914678338346  0.16928745718900295  0.9125105555343144  1.0000
  S   S110      1.0  0.6231832959522002  0.2122356928724433  0.9242846102803074  1.0000
  S   S111      1.0  0.7284769027310761  0.09060737769723641  0.9116352726282279  1.0000
  S   S112      1.0  0.7099166334351046  0.16819786882641338  0.8656568660054532  1.0000
  Fe  Fe57      1.0  0.9134316599947222  0.39190756579853087  0.48277600629626605  1.0000
  S   S113      1.0  0.9069697188925094  0.34777281395085125  0.4336830221864257  1.0000
  S   S114      1.0  0.9504473330014244  0.39035158771205525  0.5428822508748853  1.0000
  Fe  Fe58      1.0  0.8652446203116211  0.44049962389400604  0.4295090116495217  1.0000
  S   S115      1.0  0.8541602095655965  0.4010109059680146  0.37536446057943873  1.0000
  S   S116      1.0  0.8435691383185038  0.49505905482738405  0.42364122527821285  1.0000
  Fe  Fe59      1.0  0.8487124641009842  0.3629388155428083  0.4326580654861347  1.0000
  S   S117      1.0  0.8078128011522752  0.3194274584572667  0.4365738425900437  1.0000
  Fe  Fe60      1.0  0.9129008167487319  0.3892501995968536  0.38067677926283  1.0000
  S   S118      1.0  0.9479630068611031  0.3869597393482158  0.31967166654822166  1.0000
  S   S119      1.0  0.8545357585015023  0.40381023803034916  0.4868355935834763  1.0000
  S   S120      1.0  0.9247187593738144  0.43197089204683603  0.42961956941700624  1.0000
  Fe  Fe61      1.0  0.8905213429683326  0.40715985508155167  0.8289341643840266  1.0000
  S   S121      1.0  0.8985808707319581  0.3793180576999283  0.8947395889501478  1.0000
  S   S122      1.0  0.8864247158394496  0.4655692949687969  0.8207391021114073  1.0000
  Fe  Fe62      1.0  0.8864235624718063  0.33967051795403813  0.7747016348516383  1.0000
  S   S123      1.0  0.8946458282989115  0.3056462419479225  0.8356265066842234  1.0000
  S   S124      1.0  0.8716181105314418  0.3181273519618588  0.7065169798185779  1.0000
  Fe  Fe63      1.0  0.85624361159045  0.34209433434449354  0.8696725519499676  1.0000
  S   S125      1.0  0.8068579331042445  0.32583920785324244  0.9076676352421372  1.0000
  Fe  Fe64      1.0  0.9363792654029895  0.3457100152510671  0.8550734390513016  1.0000
  S   S126      1.0  0.9900239548207767  0.3303994365434885  0.8841763719120876  1.0000
  S   S127      1.0  0.8447023113307527  0.3730245373766636  0.8072109229666997  1.0000
  S   S128      1.0  0.9314923910375011  0.3765400009619404  0.7907127887539915  1.0000
  C   C1        1.0  0.9304929563961976  0.36710977157741337  0.5873495257036632  1.0000
  C   C2        1.0  0.9466489802639879  0.3670360656285314  0.6301181899935375  1.0000
  C   C3        1.0  0.9291370151507689  0.3513065313296207  0.6667700464470292  1.0000
  C   C4        1.0  0.8955011521241862  0.33553742353953314  0.6606988618130295  1.0000
  C   C5        1.0  0.8799695239495635  0.33460335498769084  0.6176229480337783  1.0000
  C   C6        1.0  0.8973644192683223  0.3504155789006616  0.5810500968713023  1.0000
  H   H1        1.0  0.9724621126647816  0.3795547570840373  0.6350812394395069  1.0000
  H   H2        1.0  0.9417784425291356  0.3512244685870395  0.6996215215284237  1.0000
  H   H3        1.0  0.8541092189215564  0.3221638079711967  0.612610764279653  1.0000
  H   H4        1.0  0.8849272234751427  0.3498445742750649  0.5480588034386306  1.0000
  C   C7        1.0  0.8042707275228007  0.2814527898664394  0.9221921631650893  1.0000
  C   C8        1.0  0.835264782833233  0.2612122837713635  0.9278821842534447  1.0000
  C   C9        1.0  0.8323013727613796  0.22539791752910154  0.9382217189485098  1.0000
  C   C10       1.0  0.7983752088611693  0.20973639531921723  0.9415205605611052  1.0000
  C   C11       1.0  0.7674405686596474  0.2300467180582787  0.9359513445063058  1.0000
  C   C12       1.0  0.77039601648826  0.26595848266365035  0.9269661394545446  1.0000
  H   H5        1.0  0.8614843153680043  0.2731884349689296  0.924542651366915  1.0000
  H   H6        1.0  0.856277341046734  0.20966670698931336  0.9423101332186592  1.0000
  H   H7        1.0  0.7412275710662029  0.21800864796585384  0.9380159504594365  1.0000
  H   H8        1.0  0.7464085156375639  0.28159748034644055  0.922333838110201  1.0000
  C   C13       1.0  0.7745346536890342  0.2695439804137789  0.3030677799206374  1.0000
  C   C14       1.0  0.7868554829931746  0.30421076809668113  0.3039887949258236  1.0000
  C   C15       1.0  0.7970385524884643  0.31981442857301673  0.3449016758682264  1.0000
  C   C16       1.0  0.7949197655886473  0.30075726916332696  0.3850226675428702  1.0000
  C   C17       1.0  0.7822412086529933  0.2661897364969483  0.3841779943827446  1.0000
  C   C18       1.0  0.7719736205746195  0.2505982579685494  0.3432700471455031  1.0000
  H   H9        1.0  0.7884144217981598  0.3190811200521366  0.27298190896190805  1.0000
  H   H10       1.0  0.8060306257633829  0.3467076459041013  0.3453978629855439  1.0000
  H   H11       1.0  0.7810492035696733  0.25127449365748084  0.41517066075131365  1.0000
  H   H12       1.0  0.7629650439411965  0.2236944222765798  0.34274540129555364  1.0000
  C   C19       1.0  0.631341533847421  0.14321509704343446  0.11135904694990661  1.0000
  C   C20       1.0  0.6205846223243432  0.14729765340165618  0.06650198465822865  1.0000
  C   C21       1.0  0.6284067898784507  0.12115874675418217  0.03507791910380953  1.0000
  C   C22       1.0  0.645946642169344  0.09046494630172675  0.048702269699665734  1.0000
  C   C23       1.0  0.6547058917266396  0.08544483112311195  0.0941060033588561  1.0000
  C   C24       1.0  0.6480690363555799  0.11215901274803325  0.12528616375287677  1.0000
  H   H13       1.0  0.6077784733063554  0.17132523370717015  0.05557107967151365  1.0000
  H   H14       1.0  0.6220582684561404  0.1253613945989513  0.999933799276937  1.0000
  H   H15       1.0  0.6682618716410992  0.06175333051514627  0.10474398595221146  1.0000
  H   H16       1.0  0.6565405143445016  0.10883647669593843  0.15982327496827883  1.0000
  C   C25       1.0  0.5379207194484699  0.21433343445484726  0.8134157653900626  1.0000
  C   C26       1.0  0.5703709403953463  0.19667766552571256  0.8065259708035349  1.0000
  C   C27       1.0  0.5967051705918273  0.19597550456169383  0.8405519576355993  1.0000
  C   C28       1.0  0.5908734143934242  0.21357045104292813  0.8811332494886908  1.0000
  C   C29       1.0  0.5586142146211193  0.2315468805213204  0.8878553369302831  1.0000
  C   C30       1.0  0.5319660565236967  0.23159198240461845  0.8542172931690589  1.0000
  H   H17       1.0  0.5749881156724209  0.18323428351796417  0.775031040962785  1.0000
  H   H18       1.0  0.6216042044406335  0.1820686887416167  0.8351558404922796  1.0000
  H   H19       1.0  0.5541014383769285  0.2453035778319264  0.9191430196700136  1.0000
  H   H20       1.0  0.5071069741191269  0.24559930855936535  0.8594733471223759  1.0000
  C   C31       1.0  0.526966285013963  0.2123858680245794  0.35108099529678144  1.0000
  C   C32       1.0  0.5353773932600809  0.1951239509662161  0.3914345566482717  1.0000
  C   C33       1.0  0.5689082740712013  0.1787824364227751  0.39701259954627377  1.0000
  C   C34       1.0  0.5938446580177741  0.17924031572889956  0.3619684960026891  1.0000
  C   C35       1.0  0.584856025998755  0.19533140956255476  0.321142185683606  1.0000
  C   C36       1.0  0.5517672830853704  0.21227193965779248  0.31591474083565213  1.0000
  H   H21       1.0  0.5162805485194168  0.19458598661502385  0.4184883387980101  1.0000
  H   H22       1.0  0.5754651874162935  0.1660117486931733  0.42856885974066905  1.0000
  H   H23       1.0  0.6032677315491745  0.19490384932184016  0.2934478823139309  1.0000
  H   H24       1.0  0.5452625023896428  0.2252810984623794  0.2844617261399776  1.0000
  C   C37       1.0  0.4021417867620724  0.28834271306348386  0.5912630708822254  1.0000
  C   C38       1.0  0.41663781389907206  0.29236921949857153  0.6345010443863263  1.0000
  C   C39       1.0  0.39663194441615995  0.28250797644841513  0.6722858518279288  1.0000
  C   C40       1.0  0.36169671810996307  0.26956834514247985  0.6670228981900215  1.0000
  C   C41       1.0  0.34655965310022735  0.26710967148798787  0.6238529147082118  1.0000
  C   C42       1.0  0.36690484179146227  0.27615581958246377  0.5859729834609461  1.0000
  H   H25       1.0  0.44376588159610636  0.302124506527367  0.6387891802647933  1.0000
  H   H26       1.0  0.4083519439298797  0.28498222346010194  0.7054313837696087  1.0000
  H   H27       1.0  0.3194799295403906  0.25723261744049314  0.6196381332055723  1.0000
  H   H28       1.0  0.3552708453976983  0.27369813858481135  0.5527725349070716  1.0000
  C   C43       1.0  0.07266441927899314  0.41780240626725823  0.8682855518075153  1.0000
  C   C44       1.0  0.0368867073947301  0.42332602048226164  0.8555181283822637  1.0000
  C   C45       1.0  0.011586382783664861  0.39640686046960366  0.8601829556383556  1.0000
  C   C46       1.0  0.02190356633700286  0.3638078888939552  0.8773619452130655  1.0000
  C   C47       1.0  0.057717965148992086  0.35825340469884137  0.890220480867938  1.0000
  C   C48       1.0  0.08312019830952752  0.3852319670023692  0.8855972963857285  1.0000
  H   H29       1.0  0.028513740042958705  0.4485081529733789  0.8423877594461474  1.0000
  H   H30       1.0  0.9839995914366473  0.4010275715793195  0.8509266755155434  1.0000
  H   H31       1.0  0.06578773759963742  0.3330267744864639  0.9035278741048789  1.0000
  H   H32       1.0  0.11071846793292751  0.38065164395784473  0.8951457270382484  1.0000
  C   C49       1.0  0.3087101748216216  0.37767823833731984  0.8753823465793574  1.0000
  C   C50       1.0  0.307058865259114  0.36569879779787035  0.9198894844561012  1.0000
  C   C51       1.0  0.3313710116545063  0.3400000012224709  0.9350729344203751  1.0000
  C   C52       1.0  0.3567985695133802  0.32589707635051574  0.9055453108162955  1.0000
  C   C53       1.0  0.35876589237803935  0.33855843568542077  0.861453819500105  1.0000
  C   C54       1.0  0.335187409913743  0.3647593242865313  0.8466538923690922  1.0000
  H   H33       1.0  0.28662966259873546  0.37556643658393696  0.9422613116348241  1.0000
  H   H34       1.0  0.3298168380321291  0.3302536405017478  0.9692517721345104  1.0000
  H   H35       1.0  0.37870544335563217  0.3283628106728871  0.8387910166840056  1.0000
  H   H36       1.0  0.33692903381784706  0.3743149806009072  0.8124000577041237  1.0000
  C   C55       1.0  0.9923440232557555  0.3793062374359463  0.33703066086561995  1.0000
  C   C56       1.0  0.9990972309781675  0.36105571689773547  0.37702703684740296  1.0000
  C   C57       1.0  0.03443055942690787  0.35520398969978983  0.3914030103300646  1.0000
  C   C58       1.0  0.06314853877754367  0.3690045722753358  0.36700318659289816  1.0000
  C   C59       1.0  0.056534031913521694  0.3875182139168417  0.32705239669075054  1.0000
  C   C60       1.0  0.02108236039101064  0.39216056467242927  0.3116584700022276  1.0000
  H   H37       1.0  0.9772168121358441  0.3511717014213426  0.39694841789694896  1.0000
  H   H38       1.0  0.039496496113110124  0.3407379121007925  0.42218855554894713  1.0000
  H   H39       1.0  0.07872990496093764  0.3981282004675394  0.30801128474751394  1.0000
  H   H40       1.0  0.015988420604995168  0.4062481085691049  0.28062250375736625  1.0000
  C   C61       1.0  0.2852706671812702  0.3532844942296099  0.337004511571998  1.0000
  C   C62       1.0  0.3199863823361678  0.3393714266203408  0.3340697160809878  1.0000
  C   C63       1.0  0.3273537248013919  0.30559778805282234  0.35047787809702347  1.0000
  C   C64       1.0  0.2998384786196273  0.28532390430221044  0.36901711213081345  1.0000
  C   C65       1.0  0.2648104336273999  0.2987604690242935  0.37031004755060265  1.0000
  C   C66       1.0  0.2575833512526246  0.33285516004869514  0.35480056240028834  1.0000
  H   H41       1.0  0.3414463053783899  0.3550251432009094  0.32003692912987663  1.0000
  H   H42       1.0  0.35426517468269764  0.29515894547645916  0.3484743702992305  1.0000
  H   H43       1.0  0.2433885849599686  0.28309790853730066  0.3844486847824427  1.0000
  H   H44       1.0  0.23065791252451692  0.3433572628532874  0.3569839203189598  1.0000
  C   C67       1.0  0.15249167653170081  0.4587501059643174  0.17303973826296815  1.0000
  C   C68       1.0  0.14745167932994013  0.42244850737629697  0.17381282494442357  1.0000
  C   C69       1.0  0.15526132358157269  0.4023573636452203  0.1355706900092355  1.0000
  C   C70       1.0  0.1681512086328167  0.4185059127009827  0.09649577370951401  1.0000
  C   C71       1.0  0.17237003645527152  0.45491053389054  0.09531982635157932  1.0000
  C   C72       1.0  0.1642628888935804  0.4750351221497866  0.1334660086398087  1.0000
  H   H45       1.0  0.13765761823158548  0.40982569007227165  0.2039688191299421  1.0000
  H   H46       1.0  0.15168810634774013  0.3742115406819783  0.13647395438952103  1.0000
  H   H47       1.0  0.18271435398479402  0.4675510145112576  0.06548416025700887  1.0000
  H   H48       1.0  0.16817024070058398  0.503141734424421  0.13274529978977542  1.0000
  C   C73       1.0  0.9622233719263757  0.5252202364419949  0.9149350568059715  1.0000
  C   C74       1.0  0.9652029349486998  0.4887978008740008  0.9108107800189051  1.0000
  C   C75       1.0  0.9418023491653149  0.4703351048587607  0.8821338573615943  1.0000
  C   C76       1.0  0.9157172462694356  0.48827288693008747  0.8570440948388006  1.0000
  C   C77       1.0  0.9130393426816712  0.5247299383244922  0.8607816282529155  1.0000
  C   C78       1.0  0.9360809731803261  0.5431520451096239  0.8899269418766501  1.0000
  H   H49       1.0  0.9854860782701418  0.4747944824733595  0.9297000629325202  1.0000
  H   H50       1.0  0.9439178730651838  0.4422424925080986  0.8794277664471962  1.0000
  H   H51       1.0  0.8927550957869904  0.5387080733801851  0.8416684700448164  1.0000
  H   H52       1.0  0.9331516672767094  0.5711684777465956  0.8934205907962228  1.0000
  C   C79       1.0  0.9386109204050597  0.5683925696426876  0.4418396642109787  1.0000
  C   C80       1.0  0.9370035932983962  0.5371879833909684  0.46652769648999387  1.0000
  C   C81       1.0  0.9067356670129327  0.5154976136394306  0.46312167858894737  1.0000
  C   C82       1.0  0.8780349955159508  0.5250097846824435  0.4350772981819263  1.0000
  C   C83       1.0  0.878613462457348  0.5572693207899319  0.4127047866054013  1.0000
  C   C84       1.0  0.9090375863298163  0.5788353100896788  0.41581151607503697  1.0000
  H   H53       1.0  0.9595455172211895  0.5293561540086921  0.4873650603412177  1.0000
  H   H54       1.0  0.9056753284006904  0.4912847984258896  0.4819795416342237  1.0000
  H   H55       1.0  0.8562570177284978  0.5647979278576915  0.3913144161341647  1.0000
  H   H56       1.0  0.9098257446340434  0.6030651032293936  0.39727441671003366  1.0000
  C   C85       1.0  0.96291807420623  0.6508541015372298  0.17612477198391863  1.0000
  C   C86       1.0  0.9626900707578832  0.633343066708506  0.13462916724625681  1.0000
  C   C87       1.0  0.9721289572820973  0.6511686527966226  0.09498258141090199  1.0000
  C   C88       1.0  0.981253841326982  0.6867139292368929  0.09670330078208234  1.0000
  C   C89       1.0  0.9810559799864011  0.7043118592375013  0.1380059245539902  1.0000
  C   C90       1.0  0.9719161670959476  0.6864208437571457  0.177614140865819  1.0000
  H   H57       1.0  0.9556523043545972  0.6058421477430872  0.1332464993330392  1.0000
  H   H58       1.0  0.9723664403610469  0.6373321218645994  0.0632323253557594  1.0000
  H   H59       1.0  0.9877848382286091  0.7318861109182313  0.1394542370673637  1.0000
  H   H60       1.0  0.9711984936325505  0.7003672959457111  0.2091465649206533  1.0000
  C   C91       1.0  0.7823563934754525  0.005081308356667424  0.7877116255773349  1.0000
  C   C92       1.0  0.7874578164329047  0.0381739903426952  0.8069863420537675  1.0000
  C   C93       1.0  0.7594911824627716  0.06273009491195292  0.8065597949953254  1.0000
  C   C94       1.0  0.7267104851071228  0.054545880058688434  0.7858091814417021  1.0000
  C   C95       1.0  0.7220817621936005  0.022010131769908625  0.7648844803350258  1.0000
  C   C96       1.0  0.7496319985404817  0.9970083445408849  0.7666459730382599  1.0000
  H   H61       1.0  0.8128056948613526  0.04450481049865451  0.8230984186117795  1.0000
  H   H62       1.0  0.763384077262193  0.08803828355790277  0.8221576081851167  1.0000
  H   H63       1.0  0.6969021522508342  0.015779568185872783  0.7483523704186571  1.0000
  H   H64       1.0  0.7456531013558129  0.9716338554346307  0.7513899243293591  1.0000
  C   C97       1.0  0.8400233242186254  0.7855118681092622  0.8881523063979132  1.0000
  C   C98       1.0  0.824515753261099  0.7616027317956815  0.858186616465438  1.0000
  C   C99       1.0  0.8408418096192312  0.7290099972602266  0.851001960670172  1.0000
  C   C100      1.0  0.8732482726017231  0.7206426187550253  0.8726568321341148  1.0000
  C   C101      1.0  0.8888552449876383  0.7445756771613863  0.9026020621476597  1.0000
  C   C102      1.0  0.8720467220591974  0.7768807433475926  0.9106303661379531  1.0000
  H   H65       1.0  0.7995455573680479  0.7679605679469124  0.8412262290021423  1.0000
  H   H66       1.0  0.8285111386163361  0.7103804076537724  0.8281608147206572  1.0000
  H   H67       1.0  0.9140674595609463  0.7384461762085823  0.9189542755086895  1.0000
  H   H68       1.0  0.8842618379115569  0.7956721622333066  0.9333105391628012  1.0000
  C   C103      1.0  0.7035931931804094  0.9828520997467572  0.3158288787258699  1.0000
  C   C104      1.0  0.6811861458895753  0.006585724082474265  0.29312707948838934  1.0000
  C   C105      1.0  0.6960006868887811  0.03483952902608034  0.26936810122610777  1.0000
  C   C106      1.0  0.7332920663044452  0.03911931699337545  0.26759205306382094  1.0000
  C   C107      1.0  0.7556931403168471  0.014818461361927326  0.28918790738571754  1.0000
  C   C108      1.0  0.7408513529210984  0.9869006554180693  0.31367157665697554  1.0000
  H   H69       1.0  0.6523675371315691  0.0031718906637066002  0.2939126053731829  1.0000
  H   H70       1.0  0.6786337379826975  0.05273512970691607  0.25144100420046306  1.0000
  H   H71       1.0  0.7845639093882134  0.01796397053143406  0.28778031061431353  1.0000
  H   H72       1.0  0.7583247513829119  0.9687831627178803  0.33109694622199753  1.0000
  C   C109      1.0  0.840651846910403  0.7983839713827396  0.3344875736552704  1.0000
  C   C110      1.0  0.8580731400435564  0.8163579002669923  0.3693545825204108  1.0000
  C   C111      1.0  0.891859987808236  0.8050966517086963  0.3847180762054583  1.0000
  C   C112      1.0  0.9081260027284945  0.7755854853512804  0.3656710566949895  1.0000
  C   C113      1.0  0.8908862847200391  0.7577423684874756  0.3305099878127498  1.0000
  C   C114      1.0  0.8572800997675011  0.7693349539619165  0.314695704600258  1.0000
  H   H73       1.0  0.8455456728534368  0.8389830904701235  0.38452221074620735  1.0000
  H   H74       1.0  0.9051379336105528  0.8189966198916  0.4118957811462716  1.0000
  H   H75       1.0  0.9034023874516355  0.7350224534205348  0.3155699683192408  1.0000
  H   H76       1.0  0.8438893118228513  0.7554547546201358  0.2876048026296901  1.0000
  C   C115      1.0  0.8192675189538956  0.8900911790038794  0.5498301557103735  1.0000
  C   C116      1.0  0.8188341012775484  0.8535914607231507  0.5456699372721128  1.0000
  C   C117      1.0  0.8188503988807935  0.832305303246656  0.5841536771461787  1.0000
  C   C118      1.0  0.819134417349166  0.8474895692810277  0.6269887346893602  1.0000
  C   C119      1.0  0.8213696616920069  0.8839159087492052  0.6313303962338034  1.0000
  C   C120      1.0  0.8215208839016456  0.9052109650320239  0.5927167367582106  1.0000
  H   H77       1.0  0.8191762972016342  0.8417462011224617  0.5128171890122332  1.0000
  H   H78       1.0  0.8178387683878565  0.8041103710558556  0.5807133828543749  1.0000
  H   H79       1.0  0.8225143591686327  0.8957971447757093  0.6643608008733686  1.0000
  H   H80       1.0  0.8224799853572468  0.9334388717544613  0.5961188183724174  1.0000
  C   C121      1.0  0.6077131398691702  0.8822515053951192  0.9038644062598341  1.0000
  C   C122      1.0  0.6427445828100176  0.8689477211677871  0.9028895350455589  1.0000
  C   C123      1.0  0.6616853491534442  0.8676930970871968  0.8622485503880801  1.0000
  C   C124      1.0  0.6452510262336648  0.8788431014086235  0.8222622564040115  1.0000
  C   C125      1.0  0.6098614180133802  0.891266957259285  0.822982700934844  1.0000
  C   C126      1.0  0.5912681451997733  0.8934679691705302  0.8638626919232694  1.0000
  H   H81       1.0  0.6555393533177389  0.8602751458999508  0.9337866596911287  1.0000
  H   H82       1.0  0.6889103747309361  0.8578397524667914  0.8618508742493831  1.0000
  H   H83       1.0  0.5970879869134794  0.8998758256824784  0.7920534710334305  1.0000
  H   H84       1.0  0.5642180736293516  0.9036872115742789  0.8643954543308798  1.0000
  C   C127      1.0  0.47257854637590757  0.054286559551465885  0.8556132818001702  1.0000
  C   C128      1.0  0.44102210244777595  0.0432642267979908  0.8766625346780502  1.0000
  C   C129      1.0  0.4104675769408184  0.06474024520305367  0.8760506939807592  1.0000
  C   C130      1.0  0.4114685081294381  0.09741341563671914  0.8546375557157039  1.0000
  C   C131      1.0  0.44252752080439567  0.10778093532264041  0.8318672773413426  1.0000
  C   C132      1.0  0.47276614110055887  0.08588804776347869  0.8315341995125954  1.0000
  H   H85       1.0  0.4401220217286346  0.018304800104746555  0.8936992914152426  1.0000
  H   H86       1.0  0.38633605278821265  0.0564341191154083  0.8931810264343588  1.0000
  H   H87       1.0  0.44342040921880577  0.132799255505793  0.8148467101072244  1.0000
  H   H88       1.0  0.4966848079459888  0.09412222734879316  0.8139396205101228  1.0000
  C   C133      1.0  0.5638457666733478  0.8532345650896431  0.46900183679612634  1.0000
  C   C134      1.0  0.5721311436706754  0.8247933001380976  0.4969843406819848  1.0000
  C   C135      1.0  0.6074093185810026  0.8122845995836675  0.49989721138994314  1.0000
  C   C136      1.0  0.6346309574370489  0.8283886388122217  0.4751664851440623  1.0000
  C   C137      1.0  0.6265294805388847  0.857111160473518  0.4474266845758698  1.0000
  C   C138      1.0  0.5910475615784249  0.8694528572277948  0.4441672457805792  1.0000
  H   H89       1.0  0.551187147611378  0.8122860191807313  0.5163464473423053  1.0000
  H   H90       1.0  0.6135826389521468  0.7901628050293406  0.5214291454680304  1.0000
  H   H91       1.0  0.6475830339418591  0.8699231983205857  0.4286930817248207  1.0000
  H   H92       1.0  0.5848519499101368  0.8917719811804201  0.4231136120846912  1.0000
  C   C139      1.0  0.49609004423236047  0.06322161819516237  0.4136281950308876  1.0000
  C   C140      1.0  0.4790299881296103  0.04859132053935311  0.45100504655090506  1.0000
  C   C141      1.0  0.4568785155407344  0.06928198630926106  0.47808508921418613  1.0000
  C   C142      1.0  0.451328480299772  0.10456583077244846  0.4674684921071255  1.0000
  C   C143      1.0  0.46941473371058334  0.11957990678008353  0.4310075033855781  1.0000
  C   C144      1.0  0.4921213933910737  0.09899388062563182  0.4043905257225108  1.0000
  H   H93       1.0  0.4830843906269166  0.021393031591549372  0.45938637234225893  1.0000
  H   H94       1.0  0.44342894657720994  0.057732410717616915  0.5067084125946407  1.0000
  H   H95       1.0  0.4654423141531265  0.1468965584709748  0.4227348035844012  1.0000
  H   H96       1.0  0.5056729264776839  0.1106571458893038  0.375946959190652  1.0000
  C   C145      1.0  0.5176579486134292  0.9316835421647315  0.20254043665324195  1.0000
  C   C146      1.0  0.5327539940116018  0.9221462851772714  0.1613031137666465  1.0000
  C   C147      1.0  0.5354786740332067  0.946800666328921  0.12641777346299254  1.0000
  C   C148      1.0  0.5224266517992985  0.9808174368313479  0.13239115151192093  1.0000
  C   C149      1.0  0.5081280574442602  0.9905493690811337  0.1739594331798866  1.0000
  C   C150      1.0  0.5060162620103998  0.9660967326978597  0.20912378849283664  1.0000
  H   H97       1.0  0.5421264998513707  0.8956367077526614  0.15611918900497987  1.0000
  H   H98       1.0  0.5476484170079393  0.9394742451684652  0.09486077348240829  1.0000
  H   H99       1.0  0.4974536772007216  0.016611918424345395  0.17832025664301288  1.0000
  H   H100      1.0  0.4944611674816809  0.9737011762059835  0.24074788425465385  1.0000
  C   C151      1.0  0.15743704753865775  0.7487480877510116  0.895394611191081  1.0000
  C   C152      1.0  0.12077038788315374  0.7554752754798012  0.901030928370492  1.0000
  C   C153      1.0  0.09518258960256154  0.7298681935418994  0.8893966528583487  1.0000
  C   C154      1.0  0.10638644386881801  0.6979787712100989  0.8710463556563292  1.0000
  C   C155      1.0  0.14297394529268215  0.6914183196846764  0.8651321147318828  1.0000
  C   C156      1.0  0.16846116320955584  0.716569535377798  0.8778161893316185  1.0000
  H   H101      1.0  0.11224919878517994  0.7806048496792232  0.9139286565861636  1.0000
  H   H102      1.0  0.06685584956774648  0.7351596478786494  0.8934024964397048  1.0000
  H   H103      1.0  0.15176516742042678  0.6667184612678461  0.8511537020789809  1.0000
  H   H104      1.0  0.19670413981141838  0.7108320424596699  0.8742510434135154  1.0000
  C   C157      1.0  0.2535129899621063  0.6222384942390512  0.8472931477296928  1.0000
  C   C158      1.0  0.2667625462977502  0.6285575172581235  0.8906836662938842  1.0000
  C   C159      1.0  0.25831127129619863  0.6057592918714594  0.926112759443404  1.0000
  C   C160      1.0  0.23709363361425453  0.5760999531991969  0.9182378078090094  1.0000
  C   C161      1.0  0.22415365995233255  0.5693990937025603  0.8747056175510969  1.0000
  C   C162      1.0  0.23234199077061218  0.5924645412694313  0.8392599755679179  1.0000
  H   H105      1.0  0.28428143692072705  0.6505624901752134  0.8968789063982677  1.0000
  H   H106      1.0  0.26867128888979835  0.6109390890552473  0.9596140489234297  1.0000
  H   H107      1.0  0.20751442575079349  0.5468023751929586  0.868374276744272  1.0000
  H   H108      1.0  0.222106367716893  0.5873943673554685  0.8056968394707869  1.0000
  C   C163      1.0  0.38301353705253155  0.8062276113197382  0.9352594074372876  1.0000
  C   C164      1.0  0.41854253917374307  0.8181494718262049  0.9392040361523701  1.0000
  C   C165      1.0  0.42568261388365547  0.8530067591950407  0.9515443193863481  1.0000
  C   C166      1.0  0.397216652218782  0.875769887716088  0.9605010680937043  1.0000
  C   C167      1.0  0.3617924794880939  0.8635861323810723  0.9577524529052657  1.0000
  C   C168      1.0  0.35468555443993355  0.8289297104437556  0.9449077594045003  1.0000
  H   H109      1.0  0.4405285797160939  0.8006175158439679  0.9316781270985571  1.0000
  H   H110      1.0  0.45313102026987695  0.8623062714491483  0.9535733824869724  1.0000
  H   H111      1.0  0.33973365036971614  0.881113482649345  0.964943211488341  1.0000
  H   H112      1.0  0.3272715142314119  0.8196764850960467  0.9428929384660156  1.0000
  C   C169      1.0  0.12400572488136863  0.6953751598815247  0.37522261535585744  1.0000
  C   C170      1.0  0.15663382835646011  0.713215343091349  0.37086494507085754  1.0000
  C   C171      1.0  0.17750679896919186  0.7208291250201867  0.4090519766945824  1.0000
  C   C172      1.0  0.16607333832408402  0.7102778094341308  0.45173360412760305  1.0000
  C   C173      1.0  0.13329639107466773  0.6925799051115172  0.4561840754238095  1.0000
  C   C174      1.0  0.11232045303175586  0.684982658830929  0.41789253632043677  1.0000
  H   H113      1.0  0.16570794109397902  0.721489465863001  0.33795984852334116  1.0000
  H   H114      1.0  0.20217707571346996  0.7355085227271542  0.4055264628358103  1.0000
  H   H115      1.0  0.12445218010222917  0.6842195740409461  0.4891524688969038  1.0000
  H   H116      1.0  0.08754263855746625  0.6705021373510169  0.4214240378210024  1.0000
  C   C175      1.0  0.27872832094778793  0.5829632657869458  0.4353085057053636  1.0000
  C   C176      1.0  0.24722110568570493  0.5955814129874389  0.4549149142310869  1.0000
  C   C177      1.0  0.2164263019306659  0.5743433964825047  0.45631666732316717  1.0000
  C   C178      1.0  0.21681197304772057  0.5408310815487476  0.4371264244752411  1.0000
  C   C179      1.0  0.24843660910639212  0.5280366166626497  0.41808738371934356  1.0000
  C   C180      1.0  0.27940582628204697  0.5490239734668627  0.4174147706210649  1.0000
  H   H117      1.0  0.2465035644062392  0.62178339770671  0.4687000576043073  1.0000
  H   H118      1.0  0.1920169060416814  0.5843140908244537  0.47112810819605255  1.0000
  H   H119      1.0  0.24899716011783107  0.5020962729339103  0.4035285849023144  1.0000
  H   H120      1.0  0.30376329738867  0.5392230399618985  0.40227738819435127  1.0000
  C   C181      1.0  0.3399407590286487  0.8175700004781976  0.36797193492774094  1.0000
  C   C182      1.0  0.3259071196064317  0.8364834488643434  0.4041699204794695  1.0000
  C   C183      1.0  0.3358833709232357  0.8716899975451026  0.4107816431733112  1.0000
  C   C184      1.0  0.3604032486131703  0.8877927220301696  0.3816812747848658  1.0000
  C   C185      1.0  0.3740012786691243  0.869001684429358  0.3451999689734133  1.0000
  C   C186      1.0  0.36356979087012276  0.8340967336281578  0.3381842519820954  1.0000
  H   H121      1.0  0.3070757567676865  0.824140400791946  0.4267165411888549  1.0000
  H   H122      1.0  0.32514771856472635  0.8861782878222494  0.4389263513330662  1.0000
  H   H123      1.0  0.3924522629522247  0.8814027476591471  0.3221541000017861  1.0000
  H   H124      1.0  0.3742350745530675  0.8196602246753326  0.30992956017153894  1.0000
  C   C187      1.0  0.34539383900917736  0.7614972468689757  0.6156728655534414  1.0000
  C   C188      1.0  0.31540402469050927  0.7826575871609145  0.6075819673865583  1.0000
  C   C189      1.0  0.29910977781708425  0.8004398005521866  0.6433090798919303  1.0000
  C   C190      1.0  0.31218681366293227  0.7963041627493085  0.6872955907200241  1.0000
  C   C191      1.0  0.34268572344615633  0.7757976959042747  0.6952417902779839  1.0000
  C   C192      1.0  0.35958650222693683  0.7588260403236745  0.6593182640957459  1.0000
  H   H125      1.0  0.30463305165157273  0.7852687428218189  0.573901639633861  1.0000
  H   H126      1.0  0.2756503813917588  0.8165039445455573  0.6370558868969283  1.0000
  H   H127      1.0  0.35324116687415624  0.7728099083362897  0.7289861543316326  1.0000
  H   H128      1.0  0.3829574548307392  0.7426424319498446  0.6655985984684943  1.0000
  N   N1        1.0  0.331522311496481  0.3594023009489707  0.4806183722938022  1.0000
  C   C193      1.0  0.30590948207112406  0.37845353786727276  0.5094325371536829  1.0000
  C   C194      1.0  0.3180587790829317  0.32347753073916785  0.4725115392719964  1.0000
  C   C195      1.0  0.3669379748785392  0.3576777801449433  0.5033125650628126  1.0000
  C   C196      1.0  0.3351689037879848  0.37799418528693557  0.4371799636862274  1.0000
  H   H129      1.0  0.31518625596159194  0.4057217287690269  0.5161168467672759  1.0000
  H   H130      1.0  0.3025683924542981  0.36513474220581316  0.5425495295656803  1.0000
  H   H131      1.0  0.2788912427603686  0.38014641895017576  0.49315431856292746  1.0000
  H   H132      1.0  0.2915563202963772  0.32371685243817094  0.4549117805037353  1.0000
  H   H133      1.0  0.33683295464134316  0.30817273250708227  0.45116100291889555  1.0000
  H   H134      1.0  0.3146905838884624  0.308699628016812  0.504522885453803  1.0000
  H   H135      1.0  0.378285551255331  0.38423076327135425  0.509524851641582  1.0000
  H   H136      1.0  0.3867750398045526  0.34294631996042974  0.48275753087581896  1.0000
  H   H137      1.0  0.3652042662220276  0.34412990259368  0.536459465439911  1.0000
  H   H138      1.0  0.3088365474210751  0.380184194711968  0.41936112624574257  1.0000
  H   H139      1.0  0.3539337637595826  0.3640382308052934  0.4143459762534312  1.0000
  H   H140      1.0  0.3456156822858726  0.40509126685829466  0.44186618784067355  1.0000
  N   N2        1.0  0.06643165543540741  0.7910176915689864  0.40371731160139535  1.0000
  C   C197      1.0  0.08091820290545182  0.8257589241624474  0.39131233323931164  1.0000
  C   C198      1.0  0.06385041825589566  0.7688598865024043  0.3630177612443306  1.0000
  C   C199      1.0  0.030350403948363525  0.795165687161475  0.42345944782034595  1.0000
  C   C200      1.0  0.09056489582449023  0.7742144669737687  0.4370534445499588  1.0000
  H   H141      1.0  0.08314032713585395  0.8432210021579576  0.42121728363469607  1.0000
  H   H142      1.0  0.06331941489730641  0.8390578773436399  0.36608126291182846  1.0000
  H   H143      1.0  0.10820245934294737  0.8234512263253269  0.37642656067185  1.0000
  H   H144      1.0  0.053818683910251686  0.7422202592599086  0.3713156774108702  1.0000
  H   H145      1.0  0.045017923335693766  0.780131578577925  0.33756901208443857  1.0000
  H   H146      1.0  0.09048262997585121  0.7654125729664397  0.34674927441685005  1.0000
  H   H147      1.0  0.01861234727938066  0.76934154999162  0.4330253023032545  1.0000
  H   H148      1.0  0.011224793844346381  0.8075055410864564  0.39914847930731556  1.0000
  H   H149      1.0  0.03107691870489937  0.8117222159979709  0.4542534387890738  1.0000
  H   H150      1.0  0.09364099016920013  0.7903672883813552  0.46801589212646105  1.0000
  H   H151      1.0  0.11789201226178636  0.7700040450506693  0.42306335696528496  1.0000
  H   H152      1.0  0.08007103516003866  0.7481473855402985  0.44758784086026965  1.0000
  N   N3        1.0  0.4240323211958305  0.8937703500345843  0.10869816663639642  1.0000
  C   C201      1.0  0.43314880760229363  0.9309077052752236  0.10011946817277617  1.0000
  C   C202      1.0  0.38593737971330966  0.8875405171569536  0.09671517412729425  1.0000
  C   C203      1.0  0.43001008025866444  0.8856467583790885  0.1568936694444616  1.0000
  C   C204      1.0  0.44707965884886347  0.8709678337272373  0.08096610935109871  1.0000
  H   H153      1.0  0.46175515908516845  0.9365030823832278  0.10836972097557007  1.0000
  H   H154      1.0  0.4164398892015974  0.9489240915718509  0.12057709276621775  1.0000
  H   H155      1.0  0.42889422259451976  0.9380158016026322  0.06406793228797669  1.0000
  H   H156      1.0  0.3781765689628457  0.859689853094214  0.102232547936419  1.0000
  H   H157      1.0  0.36769665819493774  0.9042524792113611  0.11696728539101486  1.0000
  H   H158      1.0  0.3806225120358407  0.8935974255203821  0.06053021997625785  1.0000
  H   H159      1.0  0.42315202771026106  0.8579073974812371  0.16472075070054282  1.0000
  H   H160      1.0  0.4134839002953154  0.902674529761046  0.178971745758296  1.0000
  H   H161      1.0  0.4586262841818209  0.8897033696286444  0.16680872327025797  1.0000
  H   H162      1.0  0.476057479377488  0.8749086582254563  0.08910633327058659  1.0000
  H   H163      1.0  0.4433395284175996  0.8765389726680003  0.04440227504666927  1.0000
  H   H164      1.0  0.4407493542390869  0.8427522601633787  0.08619920402076064  1.0000
  N   N4        1.0  0.9014016347380326  0.2861798967541679  0.3086287899716643  1.0000
  C   C205      1.0  0.8852851138007172  0.3199675858838425  0.2949637952493235  1.0000
  C   C206      1.0  0.9029477252957026  0.2626651880020824  0.26916625778211317  1.0000
  C   C207      1.0  0.879201299180875  0.2698127646538591  0.344046623166108  1.0000
  C   C208      1.0  0.9381169227068772  0.2923290732187554  0.3262397623662216  1.0000
  H   H165      1.0  0.8825624594820672  0.33792635699088075  0.32422536118041884  1.0000
  H   H166      1.0  0.8581083491962719  0.31629073020023346  0.2799634906814531  1.0000
  H   H167      1.0  0.9020992736625874  0.3337641727710201  0.2695975857386031  1.0000
  H   H168      1.0  0.9149229738998059  0.2368660666712929  0.2782380406552368  1.0000
  H   H169      1.0  0.8755828333461468  0.25755500679732574  0.25507904947606397  1.0000
  H   H170      1.0  0.9194376521362296  0.2742770538037205  0.2417628462970783  1.0000
  H   H171      1.0  0.8517432061909992  0.2636351263699368  0.3312896561449347  1.0000
  H   H172      1.0  0.8760485748221492  0.28743749855297007  0.3736695608009066  1.0000
  H   H173      1.0  0.8912154352154605  0.24488605682620335  0.35642423869748324  1.0000
  H   H174      1.0  0.9514353429886369  0.2674447301585525  0.33645085497281124  1.0000
  H   H175      1.0  0.9377516757422625  0.3097297175642551  0.35621156795366593  1.0000
  H   H176      1.0  0.9554228986346045  0.3054345089252258  0.30075861670755294  1.0000
  N   N5        1.0  0.05310116566552847  0.434878261730938  0.010656506506300456  1.0000
  C   C209      1.0  0.08644638863710702  0.4139943876900353  0.007880932332127832  1.0000
  C   C210      1.0  0.04456680669201751  0.44132497747911426  0.05848094519739089  1.0000
  C   C211      1.0  0.023215136397598316  0.4154825420799796  0.9890257966237385  1.0000
  C   C212      1.0  0.05820041689623823  0.46874473454653354  0.987249379234152  1.0000
  H   H177      1.0  0.09468967322884413  0.40992741096180674  0.9723438350773  1.0000
  H   H178      1.0  0.08322690531682242  0.38764814257069385  0.02349500238765767  1.0000
  H   H179      1.0  0.10919895195432763  0.4271034576606107  0.025633858565678794  1.0000
  H   H180      1.0  0.06673302676894122  0.45575832277022543  0.07583384894278634  1.0000
  H   H181      1.0  0.0196599968014517  0.4572155628442521  0.0618565036989851  1.0000
  H   H182      1.0  0.04048006249628444  0.4162765496595202  0.07704510506099482  1.0000
  H   H183      1.0  0.9974547719919727  0.43016745589207744  0.9910635343390893  1.0000
  H   H184      1.0  0.019049500492196  0.38932835633779905  0.004816896574154628  1.0000
  H   H185      1.0  0.028535279658316263  0.41087577794200064  0.9527402829421686  1.0000
  H   H186      1.0  0.03357096879444033  0.4852742305512163  0.9887878572620016  1.0000
  H   H187      1.0  0.0644995541009763  0.4647747136928662  0.9509840776291174  1.0000
  H   H188      1.0  0.08065519150958454  0.48403916091515337  0.0024820476205862363  1.0000
  N   N6        1.0  0.6689389123455693  0.2669001596827575  0.40823647185458445  1.0000
  C   C213      1.0  0.688460780646088  0.23723182145246074  0.42905647749384385  1.0000
  C   C214      1.0  0.6665620365339405  0.2615288581000233  0.3590344005625172  1.0000
  C   C215      1.0  0.6883857226205679  0.2999361314790546  0.4177145078316155  1.0000
  C   C216      1.0  0.632281528038657  0.26872478038388997  0.4269837609607695  1.0000
  H   H189      1.0  0.7158515783078698  0.23445589835104813  0.4147987188756947  1.0000
  H   H190      1.0  0.6741816022468803  0.21196636860591533  0.4231982956187351  1.0000
  H   H191      1.0  0.6914659703328906  0.24070044635000862  0.4661109334718335  1.0000
  H   H192      1.0  0.6520149575843369  0.28338141686492807  0.3420540429853911  1.0000
  H   H193      1.0  0.6936983450867816  0.2597649643476111  0.34359645499464375  1.0000
  H   H194      1.0  0.6518819262781533  0.2368790918051857  0.35094332899067604  1.0000
  H   H195      1.0  0.7160276327790702  0.2995108946562477  0.4035873200660956  1.0000
  H   H196      1.0  0.6911653947181675  0.3046682196087896  0.45457824465984203  1.0000
  H   H197      1.0  0.674316809903578  0.3229237591099135  0.40271290252237274  1.0000
  H   H198      1.0  0.6166307614070077  0.29067910205799985  0.4118256497994299  1.0000
  H   H199      1.0  0.6329270537419888  0.27270176296720244  0.46411933831111146  1.0000
  H   H200      1.0  0.6169380566901623  0.2441310101400209  0.42021434076169034  1.0000
  N   N7        1.0  0.7688192499268187  0.07977358330430574  0.07330715032803803  1.0000
  C   C217      1.0  0.7625715962803719  0.08173283304122335  0.12239583734662444  1.0000
  C   C218      1.0  0.7512774311403545  0.10980036214304215  0.05071073321914521  1.0000
  C   C219      1.0  0.7535890485935812  0.04671217731339583  0.05556160842297597  1.0000
  C   C220      1.0  0.8078241655233371  0.08087292235742519  0.06437642833636104  1.0000
  H   H201      1.0  0.7750717875818696  0.05925348025994137  0.14063039890423726  1.0000
  H   H202      1.0  0.7333848407884204  0.08130480271102253  0.13038820615397714  1.0000
  H   H203      1.0  0.7739541634630057  0.10613114803721838  0.1372712989732241  1.0000
  H   H204      1.0  0.7558317710199441  0.10923735676126128  0.013651664743423275  1.0000
  H   H205      1.0  0.7217349189023454  0.10955543498057667  0.05613874211868919  1.0000
  H   H206      1.0  0.7619627055369232  0.13521318225127688  0.0633524599873736  1.0000
  H   H207      1.0  0.7669022528668569  0.02342404369396478  0.07086135319817499  1.0000
  H   H208      1.0  0.7565350673356641  0.044928848223991125  0.018311805674729564  1.0000
  H   H209      1.0  0.724384295776927  0.04457242386447202  0.06287840618083762  1.0000
  H   H210      1.0  0.8133609038151624  0.07951567153572703  0.02754626319133391  1.0000
  H   H211      1.0  0.8220410584963284  0.05860639637880105  0.08091912243838251  1.0000
  H   H212      1.0  0.8201369862496154  0.10558780312853223  0.07711796247005576  1.0000
  N   N8        1.0  0.6309200106587443  0.05156586477537828  0.4082700977175308  1.0000
  C   C221      1.0  0.6590534958563454  0.06682583355824706  0.37925507461114033  1.0000
  C   C222      1.0  0.6472719358420425  0.03996986228476351  0.4512903636639597  1.0000
  C   C223      1.0  0.6143520665245173  0.02111288311310089  0.3854321408859439  1.0000
  C   C224      1.0  0.6030681800076574  0.07821950428100734  0.4172238018136758  1.0000
  H   H213      1.0  0.6479275922310188  0.07523297143843337  0.3460879213698619  1.0000
  H   H214      1.0  0.6809733973924954  0.04767334827414205  0.37272278388557467  1.0000
  H   H215      1.0  0.6715558189685156  0.09035920864808147  0.3950694949773497  1.0000
  H   H216      1.0  0.6267873819877364  0.028422212138049515  0.4741117497523019  1.0000
  H   H217      1.0  0.6682211631704621  0.019605399816189584  0.4456097843924023  1.0000
  H   H218      1.0  0.6603211296528864  0.062194917563759625  0.4693595650484975  1.0000
  H   H219      1.0  0.5928996070925368  0.009054947418209114  0.40637099617203604  1.0000
  H   H220      1.0  0.6345302000563683  0.0003633506405631426  0.3785482312860282  1.0000
  H   H221      1.0  0.6017637096533075  0.02871716589915496  0.3527750046844113  1.0000
  H   H222      1.0  0.6145416396950248  0.10152728903196173  0.43469376786959746  1.0000
  H   H223      1.0  0.5811229326101224  0.06746020807595621  0.43852383850465915  1.0000
  H   H224      1.0  0.5903870167927294  0.08773570046550622  0.3854500240020138  1.0000
  N   N9        1.0  0.8736221504772871  0.7182866397182156  0.03822805111866501  1.0000
  C   C225      1.0  0.9046165330450644  0.7395925963692449  0.023616002750491694  1.0000
  C   C226      1.0  0.8489530519889954  0.7403783447430403  0.0646907203581164  1.0000
  C   C227      1.0  0.886540763561652  0.6888618117439816  0.06644846770016599  1.0000
  C   C228      1.0  0.854438370131162  0.7044345542096332  0.9982069421375597  1.0000
  H   H225      1.0  0.895880216111844  0.7627732150044899  0.0036489394358090177  1.0000
  H   H226      1.0  0.9232021548394792  0.7240679037928794  0.0022838707136931813  1.0000
  H   H227      1.0  0.9206026920936187  0.7493187165134456  0.05291840971295181  1.0000
  H   H228      1.0  0.8252427731677147  0.7251427790340136  0.07635992138782832  1.0000
  H   H229      1.0  0.8626296274938103  0.7513799322382572  0.09504178052242263  1.0000
  H   H230      1.0  0.838701700589733  0.762860331304517  0.04432340029481119  1.0000
  H   H231      1.0  0.8640008272824855  0.6720074606462006  0.07802834638730549  1.0000
  H   H232      1.0  0.901181164171307  0.698395903504474  0.09694816888802227  1.0000
  H   H233      1.0  0.90551000225209  0.6719052964670624  0.047652227679003234  1.0000
  H   H234      1.0  0.8724938482376523  0.6885134038996098  0.9765535311138664  1.0000
  H   H235      1.0  0.8435010221797364  0.7259885999113865  0.9767988593660183  1.0000
  H   H236      1.0  0.8314327229927597  0.687444582478214  0.007894386613995774  1.0000
  N   N10       1.0  0.9002709247566705  0.7856305568106241  0.7501754085384219  1.0000
  C   C229      1.0  0.9285899613209914  0.7603370695730245  0.7378927083460207  1.0000
  C   C230      1.0  0.9015839887317963  0.816123956772927  0.7194377721523496  1.0000
  C   C231      1.0  0.9061389028691492  0.7974598011658284  0.7970516000694441  1.0000
  C   C232      1.0  0.8647641514099826  0.7684507082373074  0.746399693581462  1.0000
  H   H237      1.0  0.9282378136735262  0.7369729701733698  0.7605450976422001  1.0000
  H   H238      1.0  0.9557944664771971  0.7723348917769142  0.7405276667985912  1.0000
  H   H239      1.0  0.924879206593117  0.7507850696065391  0.7027516471600969  1.0000
  H   H240      1.0  0.8805479739372369  0.8356685125149854  0.7278354676532999  1.0000
  H   H241      1.0  0.9279913045678636  0.8297388524982792  0.7211769663660325  1.0000
  H   H242      1.0  0.8966232711406668  0.8082596447981936  0.6838108555151208  1.0000
  H   H243      1.0  0.8842846581070845  0.8152250482842945  0.8084235499412495  1.0000
  H   H244      1.0  0.9319932212979493  0.8118219923425836  0.8009137604186491  1.0000
  H   H245      1.0  0.9067728271885935  0.7748854705662412  0.8207025922736055  1.0000
  H   H246      1.0  0.8428320216244047  0.7860398089875648  0.7580209952500112  1.0000
  H   H247      1.0  0.8636168799794884  0.7441090246096796  0.7669200928841851  1.0000
  H   H248      1.0  0.8583744447421165  0.7611515689350761  0.7109470333911271  1.0000
  N   N11       1.0  0.32803094703610747  0.5149682712445263  0.8715806232195503  1.0000
  C   C233      1.0  0.3271864948493566  0.48382256726231493  0.8420232834850666  1.0000
  C   C234      1.0  0.3037078569540067  0.5092803463486456  0.9100194883616091  1.0000
  C   C235      1.0  0.31613676633643795  0.5460948569101233  0.8458147922601441  1.0000
  C   C236      1.0  0.36498728038515454  0.5206384186326346  0.8885849794678222  1.0000
  H   H249      1.0  0.34509078760135586  0.4870701625376008  0.8124685511039905  1.0000
  H   H250      1.0  0.2995391627478839  0.47862113861497513  0.8289878819206188  1.0000
  H   H251      1.0  0.3358524717471873  0.45974976807719903  0.8604166646456225  1.0000
  H   H252      1.0  0.30383166528447964  0.5320616104085757  0.9334613863003741  1.0000
  H   H253      1.0  0.2754865564562155  0.5055888834326838  0.8984527440741503  1.0000
  H   H254      1.0  0.3113576485413496  0.4855836176199975  0.9297542820500637  1.0000
  H   H255      1.0  0.2886129240387924  0.5423415891682158  0.8317502163165965  1.0000
  H   H256      1.0  0.3342717668678959  0.5517737753860273  0.8170741704650188  1.0000
  H   H257      1.0  0.3154136680760333  0.5699289108634257  0.8674324833286055  1.0000
  H   H258      1.0  0.36645526342545465  0.5440310612547806  0.9109528174198535  1.0000
  H   H259      1.0  0.3841383061523971  0.5249163974983282  0.8604662836466559  1.0000
  H   H260      1.0  0.37467274825405533  0.4976509396112072  0.9083747944973823  1.0000
  N   N12       1.0  0.37112290931020453  0.8671138720367323  0.8060152428941997  1.0000
  C   C237      1.0  0.3368495465974463  0.878507239951042  0.8261057907205093  1.0000
  C   C238      1.0  0.3743055432745584  0.8286147013612178  0.809752346457394  1.0000
  C   C239      1.0  0.4014058084315351  0.8839173771246192  0.8302191494135344  1.0000
  C   C240      1.0  0.3718223689352562  0.8773379380642948  0.7579856720230072  1.0000
  H   H261      1.0  0.31338655312293107  0.8666111871092269  0.8082334324850665  1.0000
  H   H262      1.0  0.3337088534435221  0.9074749246121491  0.8244883418822635  1.0000
  H   H263      1.0  0.3351971491353219  0.8707181475942636  0.8622107804838016  1.0000
  H   H264      1.0  0.39984046652747424  0.8189228133777734  0.795088846036191  1.0000
  H   H265      1.0  0.3736969848908352  0.8198958402313167  0.8454604156051092  1.0000
  H   H266      1.0  0.3517719108316436  0.8151664279191202  0.79208510565753  1.0000
  H   H267      1.0  0.42777461606549166  0.8757835884358253  0.8162619656449346  1.0000
  H   H268      1.0  0.40148064889510854  0.8766950602385882  0.8665047762138298  1.0000
  H   H269      1.0  0.39984612501183187  0.9130252782696092  0.8284132262997885  1.0000
  H   H270      1.0  0.36935815363667507  0.9062277837432641  0.7538626916958134  1.0000
  H   H271      1.0  0.34921746442993723  0.8650256126274798  0.738882395654613  1.0000
  H   H272      1.0  0.3972276727779023  0.868969528383226  0.7416914467066791  1.0000
  N   N13       1.0  0.6534874545860865  0.9910487018182281  0.8789859803516759  1.0000
  C   C241      1.0  0.644056162620556  0.9652168424489209  0.9140784446977431  1.0000
  C   C242      1.0  0.6905576321638662  0.003618397502006543  0.8868363841076579  1.0000
  C   C243      1.0  0.6283186021247437  0.020940484869313547  0.8809139241696371  1.0000
  C   C244      1.0  0.6510276972385733  0.9744453068682745  0.8341228303844369  1.0000
  H   H273      1.0  0.6162057601671346  0.9552878643613213  0.909271637969598  1.0000
  H   H274      1.0  0.6456029394960751  0.9768385838620977  0.9484311710959632  1.0000
  H   H275      1.0  0.6622923887903576  0.942128312696274  0.9133562382150425  1.0000
  H   H276      1.0  0.6982195072063787  0.02377821220395826  0.861594809518887  1.0000
  H   H277      1.0  0.6935366528974266  0.015607673198089866  0.9208256817966419  1.0000
  H   H278      1.0  0.7103769116834845  0.9818795899370392  0.8841760056553118  1.0000
  H   H279      1.0  0.6000350948420273  0.012359581371664596  0.8749576494828886  1.0000
  H   H280      1.0  0.6347668120932481  0.04094474055228803  0.8547678376587275  1.0000
  H   H281      1.0  0.6293877689384669  0.03400096520516693  0.9144271011289848  1.0000
  H   H282      1.0  0.6576977897082065  0.9933880923019025  0.8069232990318485  1.0000
  H   H283      1.0  0.623445366925461  0.9644412644794809  0.8272326046517264  1.0000
  H   H284      1.0  0.669844564889083  0.9518806890284234  0.8311805368388064  1.0000
  N   N14       1.0  0.2501696094041396  0.6961770884372436  0.6659351875913188  1.0000
  C   C245      1.0  0.25653075264455605  0.6607245047161406  0.6476936744199507  1.0000
  C   C246      1.0  0.24570911234334755  0.7212672461737489  0.6282977929669177  1.0000
  C   C247      1.0  0.28120061522893325  0.7067604288181476  0.6940978626717124  1.0000
  C   C248      1.0  0.2173940820458804  0.6959596766305477  0.6937693452738836  1.0000
  H   H285      1.0  0.25977901327032643  0.641130907798713  0.675287022764222  1.0000
  H   H286      1.0  0.2813593032666503  0.6600254022594796  0.6269445326476943  1.0000
  H   H287      1.0  0.23384753531835745  0.65202727619178  0.6257375605878419  1.0000
  H   H288      1.0  0.240904736241246  0.7483300396297604  0.6408506737655071  1.0000
  H   H289      1.0  0.27012558205356313  0.7221915975665757  0.6068789132419685  1.0000
  H   H290      1.0  0.22268805705292308  0.71401383306919  0.6059506638729016  1.0000
  H   H291      1.0  0.2770993394831017  0.7331945748429411  0.7089560963015823  1.0000
  H   H292      1.0  0.30638336138487093  0.707538386596286  0.6741618668032975  1.0000
  H   H293      1.0  0.2856355713040083  0.6882209999207154  0.7225705323764675  1.0000
  H   H294      1.0  0.2117801892847547  0.7224502309236361  0.7077588147649368  1.0000
  H   H295      1.0  0.22019673882026194  0.6777308601890798  0.7229890079191749  1.0000
  H   H296      1.0  0.19342839519585492  0.6877065913835257  0.6738300324833876  1.0000
  N   N15       1.0  0.3657141242444361  0.041328406470831025  0.3990077737968294  1.0000
  C   C249      1.0  0.38165832426564805  0.021181967475888408  0.43672121900203087  1.0000
  C   C250      1.0  0.33090305560206584  0.05613710397924088  0.4131743069601241  1.0000
  C   C251      1.0  0.36005307100265704  0.01786383892447163  0.36001534079919006  1.0000
  C   C252      1.0  0.3902127121750261  0.07014546299745028  0.38623518833811327  1.0000
  H   H297      1.0  0.40818517324432546  0.009951811722202608  0.42743127597888053  1.0000
  H   H298      1.0  0.3641987032161346  0.9987370897647131  0.4465877206735043  1.0000
  H   H299      1.0  0.38582576432076443  0.037956204394727466  0.4669747187289951  1.0000
  H   H300      1.0  0.3343259019784663  0.07401047520103776  0.44258923646351384  1.0000
  H   H301      1.0  0.3181097049629176  0.07158419868337407  0.3855671935990336  1.0000
  H   H302      1.0  0.31176924650236126  0.03510778962076988  0.42318942207130067  1.0000
  H   H303      1.0  0.3411662070583486  0.9961481686499831  0.3683283382378834  1.0000
  H   H304      1.0  0.38567425543320627  0.005420826983215221  0.34938194709689846  1.0000
  H   H305      1.0  0.34869516240863246  0.03218581399002729  0.3305426217597467  1.0000
  H   H306      1.0  0.37979161386560584  0.08505609768050792  0.3566903720366013  1.0000
  H   H307      1.0  0.41742712690405814  0.060162501911559696  0.37767112222399835  1.0000
  H   H308      1.0  0.3934989103474491  0.08926708579288145  0.41423283944807254  1.0000
  N   N16       1.0  0.6216426745071048  0.879286473944676  0.27637387305430006  1.0000
  C   C253      1.0  0.6594968577618116  0.8760753115359077  0.26221363458679503  1.0000
  C   C254      1.0  0.6088462306380813  0.9152310191043966  0.26691336718808945  1.0000
  C   C255      1.0  0.6188390912992904  0.8720487393129349  0.3251806076039077  1.0000
  C   C256      1.0  0.5993329295684184  0.853811433757865  0.25117249499505734  1.0000
  H   H309      1.0  0.6702695013415665  0.849399705033813  0.26917188545304255  1.0000
  H   H310      1.0  0.6770695129167547  0.8950544556782868  0.2804600137639786  1.0000
  H   H311      1.0  0.6625019178081948  0.8813456863468128  0.22554779303916972  1.0000
  H   H312      1.0  0.6256102044249902  0.9351312720122071  0.2846468951895557  1.0000
  H   H313      1.0  0.6095174925212519  0.921306382959408  0.23023852038680145  1.0000
  H   H314      1.0  0.5807041439017192  0.9188568074058733  0.27817792645151307  1.0000
  H   H315      1.0  0.590521885141189  0.8737890389339218  0.33680185060166284  1.0000
  H   H316      1.0  0.6348313023482085  0.8911283531324866  0.3453557079087137  1.0000
  H   H317      1.0  0.628804443186448  0.8453651798361907  0.3338024109658276  1.0000
  H   H318      1.0  0.5708273460106349  0.8547118892489753  0.2622039701590501  1.0000
  H   H319      1.0  0.6089715097908772  0.8265081689152112  0.2563897058678167  1.0000
  H   H320      1.0  0.5994784867969548  0.8593512671568574  0.21433794250632873  1.0000
  N   N17       1.0  0.26422788419550625  0.3889722886589417  0.17937533632954888  1.0000
  C   C257      1.0  0.23504077864456197  0.40777824570757387  0.20249418667063152  1.0000
  C   C258      1.0  0.2542453009258224  0.3837487020246364  0.13153561030509078  1.0000
  C   C259      1.0  0.2699099552720192  0.35453645131963774  0.20119675501042428  1.0000
  C   C260      1.0  0.29760020834318646  0.4098755303996139  0.18248351669894605  1.0000
  H   H321      1.0  0.24236831374470807  0.413903213182986  0.23799750267585182  1.0000
  H   H322      1.0  0.21010541212639744  0.3917746062370929  0.2032647754818209  1.0000
  H   H323      1.0  0.22852348464341007  0.4330590799587526  0.1855306855348671  1.0000
  H   H324      1.0  0.275641693419021  0.3697624949248477  0.11277749320678976  1.0000
  H   H325      1.0  0.22910986355146515  0.36805436889858195  0.1281029964689864  1.0000
  H   H326      1.0  0.24926756237091824  0.40916283428803607  0.1140597252387129  1.0000
  H   H327      1.0  0.2918259770205085  0.33958713182318423  0.18472319279242713  1.0000
  H   H328      1.0  0.24515179622191566  0.33815641877529184  0.19983701617062583  1.0000
  H   H329      1.0  0.27735586583790706  0.357538935603256  0.23738068038089413  1.0000
  H   H330      1.0  0.3202722786598283  0.39659396462024926  0.16526947874626913  1.0000
  H   H331      1.0  0.30575243820185116  0.41404619154096567  0.2183404740274291  1.0000
  H   H332      1.0  0.2940700508765918  0.4361758274930033  0.16678810093631768  1.0000
  N   N18       1.0  0.08378624479607089  0.5569287991853608  0.8599016780326388  1.0000
  C   C261      1.0  0.055699348546444094  0.5296436263272514  0.8557663942181969  1.0000
  C   C262      1.0  0.11943056002926378  0.5404578844734644  0.8655975232243159  1.0000
  C   C263      1.0  0.07621559938166156  0.578938999018459  0.8995133590050883  1.0000
  C   C264      1.0  0.08371647635181878  0.5789422616900962  0.8188936070081267  1.0000
  H   H333      1.0  0.054675272799941776  0.5128020598088159  0.8863704694645752  1.0000
  H   H334      1.0  0.06066745672425777  0.5121050172478698  0.8265517582715339  1.0000
  H   H335      1.0  0.02848511248852792  0.5413717755929816  0.8514804871405186  1.0000
  H   H336      1.0  0.141031492574621  0.5605114525793756  0.8689915577425439  1.0000
  H   H337      1.0  0.12042412487350629  0.523667647540145  0.8962623562335751  1.0000
  H   H338      1.0  0.12607635823067254  0.5234603339632403  0.8363706312849313  1.0000
  H   H339      1.0  0.09660413320325056  0.6001073901680237  0.90362107196485  1.0000
  H   H340      1.0  0.07565751317432468  0.5631797149192549  0.9310771482099237  1.0000
  H   H341      1.0  0.049569030479790444  0.5916638451719449  0.8959861903512307  1.0000
  H   H342      1.0  0.10481468782586689  0.5996501025226798  0.8207521786349267  1.0000
  H   H343      1.0  0.057524028837586894  0.5926451120617593  0.8143143039777365  1.0000
  H   H344      1.0  0.08871133953037669  0.5630481041625345  0.788200267732339  1.0000
  N   N19       1.0  0.04572471397013423  0.44320812300664014  0.4750295495145176  1.0000
  C   C265      1.0  0.0815116627343926  0.4578871247411842  0.48611511772664456  1.0000
  C   C266      1.0  0.04472799228025882  0.4057126964978775  0.4876116653480122  1.0000
  C   C267      1.0  0.03898228749443034  0.4469009293394043  0.426130944424212  1.0000
  C   C268      1.0  0.017693007526361493  0.4622463561136843  0.500126913997424  1.0000
  H   H345      1.0  0.08347347981419664  0.4860873086680077  0.47663600470703665  1.0000
  H   H346      1.0  0.10322754564088223  0.4438569322032228  0.46775320184754404  1.0000
  H   H347      1.0  0.08759595929884875  0.45570229596100753  0.5227619521203812  1.0000
  H   H348      1.0  0.018255020791059454  0.3936162579156421  0.4791304242328726  1.0000
  H   H349      1.0  0.0658864812748452  0.3905687318734976  0.46981498467910615  1.0000
  H   H350      1.0  0.04903648726087617  0.4019462633418165  0.5244352237306846  1.0000
  H   H351      1.0  0.013004111255363824  0.4345969589554811  0.41605164022809055  1.0000
  H   H352      1.0  0.060533477306646155  0.4340226162494549  0.40635762721467156  1.0000
  H   H353      1.0  0.038308930306498956  0.47492325425661036  0.41576529851705724  1.0000
  H   H354      1.0  0.021756232565989467  0.4597104782656063  0.5371754303985018  1.0000
  H   H355      1.0  0.990420821847776  0.45161697007907103  0.49245674441207354  1.0000
  H   H356      1.0  0.017624081583591078  0.490687018959016  0.49165982508412337  1.0000
  N   N20       1.0  0.18005117759900924  0.6029774970544839  0.32639967189794755  1.0000
  C   C269      1.0  0.1624070321160629  0.6073181111360121  0.37049815978092965  1.0000
  C   C270      1.0  0.189792439395438  0.6377797304427296  0.30825561346171837  1.0000
  C   C271      1.0  0.15511739304450067  0.5851174423758785  0.2949172484244152  1.0000
  C   C272      1.0  0.21289260798635978  0.5816842642768691  0.33202433987304847  1.0000
  H   H357      1.0  0.15600556743545257  0.581532348269837  0.38611678540264216  1.0000
  H   H358      1.0  0.1367655173536444  0.622048310988153  0.36713908678519797  1.0000
  H   H359      1.0  0.17984301312875295  0.6219678695984234  0.3946525850439538  1.0000
  H   H360      1.0  0.20382247215833016  0.6355424495871617  0.2754365847503947  1.0000
  H   H361      1.0  0.16556569518576292  0.6543107638300916  0.3027644428634654  1.0000
  H   H362      1.0  0.20791069198966738  0.6522178595317091  0.33187763746597965  1.0000
  H   H363      1.0  0.16756173116228057  0.5810826815412576  0.261336052929881  1.0000
  H   H364      1.0  0.130051302959318  0.6006039728735196  0.2898000071059164  1.0000
  H   H365      1.0  0.1472216814615801  0.5587887409469943  0.3078558228275819  1.0000
  H   H366      1.0  0.22719078708015283  0.5781800022557952  0.2995758592274921  1.0000
  H   H367      1.0  0.2064363958286357  0.5550892781490718  0.3450943833673847  1.0000
  H   H368      1.0  0.2320676054311861  0.5940991576451843  0.35618728462376337  1.0000
  N   N21       1.0  0.42069309912071545  0.8102259818371834  0.48307773130403625  1.0000
  C   C273      1.0  0.38933274272326795  0.8238597717170324  0.5077530601853674  1.0000
  C   C274      1.0  0.43046526389047984  0.8349440380445001  0.4468520675358458  1.0000
  C   C275      1.0  0.4115476445872008  0.7758744682736597  0.46312753813754814  1.0000
  C   C276      1.0  0.45141402305898426  0.8061949370607239  0.5144730173672784  1.0000
  H   H369      1.0  0.38154988060794043  0.8059812952404786  0.5357217527131183  1.0000
  H   H370      1.0  0.36551278685595395  0.8265311298832795  0.48518965788556917  1.0000
  H   H371      1.0  0.39501680641933246  0.8500676053013241  0.5225523519342068  1.0000
  H   H372      1.0  0.4083133135568465  0.8378194599438954  0.42187902720352033  1.0000
  H   H373      1.0  0.4367413379778016  0.8614654975929752  0.46041609118462234  1.0000
  H   H374      1.0  0.4546304744710831  0.825863076722282  0.42834365620722853  1.0000
  H   H375      1.0  0.38822586373709495  0.7779554800620218  0.43947443286291815  1.0000
  H   H376      1.0  0.4043559041133182  0.7564653841960943  0.48963763354937856  1.0000
  H   H377      1.0  0.43441131434411845  0.764894005183443  0.44380596485399487  1.0000
  H   H378      1.0  0.4755567310791417  0.7960108413791543  0.4968418232512181  1.0000
  H   H379      1.0  0.4449076731180703  0.7877090271413432  0.5423590670872322  1.0000
  H   H380      1.0  0.4592679960863644  0.831786482515114  0.5296522374522519  1.0000
  N   N22       1.0  0.10439364142692012  0.7122612372287983  0.02971922726755616  1.0000
  C   C277      1.0  0.08617048942910768  0.6888736657665488  0.06213134042467372  1.0000
  C   C278      1.0  0.13114285821916633  0.7341264855630386  0.0537462989562012  1.0000
  C   C279      1.0  0.07747194494861712  0.73517983044448  0.007771522434453226  1.0000
  C   C280      1.0  0.12281280412113103  0.6910171972146225  0.9952453343654077  1.0000
  H   H381      1.0  0.07168427772178966  0.7040879864087434  0.0883629980492604  1.0000
  H   H382      1.0  0.1055307638279696  0.6711948720932333  0.07956366638788959  1.0000
  H   H383      1.0  0.06567430623671378  0.6721932107851109  0.04506982392848147  1.0000
  H   H384      1.0  0.14543238361581218  0.7520050374469511  0.030043102071578787  1.0000
  H   H385      1.0  0.11820660784689786  0.75070075454442  0.07983882370717299  1.0000
  H   H386      1.0  0.15191262046939014  0.7177229040687125  0.07074511998768784  1.0000
  H   H387      1.0  0.06173552480545896  0.7501864661261295  0.0330000324394657  1.0000
  H   H388      1.0  0.057866003802718564  0.7197479735779146  0.9873777366531805  1.0000
  H   H389      1.0  0.09036323700785229  0.7545112789672247  0.9850066785330718  1.0000
  H   H390      1.0  0.10341001375182035  0.6755843627495802  0.9745728333417177  1.0000
  H   H391      1.0  0.14225012480526059  0.6723473742511844  0.010731025710066122  1.0000
  H   H392      1.0  0.13827134655342624  0.7078343531988356  0.9716243923885851  1.0000
  N   N23       1.0  0.2584827806620963  0.29080536467830864  0.8040770870795048  1.0000
  C   C281      1.0  0.2687584923773505  0.2908752622280577  0.85229047020625  1.0000
  C   C282      1.0  0.2599777648545439  0.25463067084367297  0.786444410398796  1.0000
  C   C283      1.0  0.2835977246325132  0.3132245506201592  0.778573473353797  1.0000
  C   C284      1.0  0.2215909515850484  0.30460681777468546  0.7989724491538696  1.0000
  H   H393      1.0  0.2514390791091334  0.27303842237426257  0.8723627984766394  1.0000
  H   H394      1.0  0.266373115471172  0.3175337733939694  0.8670202957119861  1.0000
  H   H395      1.0  0.2971169614131267  0.2823397433301962  0.8573661258117762  1.0000
  H   H396      1.0  0.28753008282471204  0.24365354905678127  0.7894350460154098  1.0000
  H   H397      1.0  0.24157756019719398  0.23679325177872057  0.8049549828127112  1.0000
  H   H398      1.0  0.2527319786484293  0.2536277910491975  0.7500155212160368  1.0000
  H   H399      1.0  0.281397874663278  0.3411552381629366  0.7888790142228234  1.0000
  H   H400      1.0  0.27835306680397115  0.3118348802037514  0.7416613960189076  1.0000
  H   H401      1.0  0.31200780429778086  0.30493236769805576  0.7840102505736342  1.0000
  H   H402      1.0  0.2130495274592052  0.3050921328105165  0.762966506155343  1.0000
  H   H403      1.0  0.2196265267921625  0.3319243975137742  0.8120565130991093  1.0000
  H   H404      1.0  0.20189842682346518  0.2883390788157363  0.8178216938726909  1.0000
  N   N24       1.0  0.7012188856551399  0.8644279248093423  0.6062564884044358  1.0000
  C   C285      1.0  0.6702669682439254  0.8716841956580794  0.5762209214612719  1.0000
  C   C286      1.0  0.7251302572012822  0.8953643696853045  0.6075760503411995  1.0000
  C   C287      1.0  0.7213330800345596  0.833969882659847  0.588951354979146  1.0000
  C   C288      1.0  0.6882677601251577  0.8566757604177148  0.6522217474526153  1.0000
  H   H405      1.0  0.6518705911756877  0.8487001691032572  0.573982839910197  1.0000
  H   H406      1.0  0.6791793748667935  0.8776046010895867  0.5412864602208336  1.0000
  H   H407      1.0  0.6543274077743038  0.8943895605573713  0.5883334062632495  1.0000
  H   H408      1.0  0.7484776270139127  0.8907868682053262  0.6303087056029629  1.0000
  H   H409      1.0  0.7360596909721376  0.9016409272866953  0.5736266024088159  1.0000
  H   H410      1.0  0.7109208138995718  0.9189784937084687  0.6202275258853828  1.0000
  H   H411      1.0  0.7441733509069909  0.8270422779704252  0.6116843267698858  1.0000
  H   H412      1.0  0.7325714609018285  0.8394154327938689  0.5549512852559655  1.0000
  H   H413      1.0  0.7037649324253766  0.8104636355217895  0.5857483383712752  1.0000
  H   H414      1.0  0.6696850556399102  0.8338182976824918  0.6525155605857563  1.0000
  H   H415      1.0  0.673650340753524  0.8793536942777175  0.6669475748090355  1.0000
  H   H416      1.0  0.7109014211825923  0.850486267882107  0.6756514242052141  1.0000
  N   N25       1.0  0.5285874444012579  0.12689445253658196  0.941716351384369  1.0000
  C   C289      1.0  0.5457369388024685  0.09545989380595263  0.9616051673932732  1.0000
  C   C290      1.0  0.540189421854315  0.15848832459168127  0.9666503253516502  1.0000
  C   C291      1.0  0.48909500143928036  0.12335560729561468  0.9444497772765694  1.0000
  C   C292      1.0  0.5393164292567645  0.13030672759835585  0.8940542517679281  1.0000
  H   H417      1.0  0.5365078054924323  0.07109146514183211  0.9443649105114785  1.0000
  H   H418      1.0  0.5392467340036706  0.09255257082131409  0.9979775930933077  1.0000
  H   H419      1.0  0.5754524802900195  0.09644699434620968  0.9584347455802374  1.0000
  H   H420      1.0  0.527605765078781  0.18253849510411088  0.9522769651912036  1.0000
  H   H421      1.0  0.5328040170908849  0.15688422098653737  0.00283050011173569  1.0000
  H   H422      1.0  0.5698347261970781  0.162166684675781  0.9649132702968722  1.0000
  H   H423      1.0  0.47994022685234294  0.12162956211027125  0.9799610167889463  1.0000
  H   H424      1.0  0.4795477460904475  0.09925545172052833  0.9271166796450188  1.0000
  H   H425      1.0  0.4750680878791637  0.14591557431100083  0.92823533363363  1.0000
  H   H426      1.0  0.524046819385272  0.15142601437260234  0.8764323966230576  1.0000
  H   H427      1.0  0.5348130928600725  0.10550020084179135  0.8753574737743521  1.0000
  H   H428      1.0  0.5682936996501353  0.13672203507307853  0.8909042200862137  1.0000
  N   N26       1.0  0.69306980998385  0.24587004789897804  0.05559929207500747  1.0000
  C   C293      1.0  0.7093706816053943  0.21197444075473623  0.06851842584222467  1.0000
  C   C294      1.0  0.6717567275698084  0.24143159899307728  0.013800812137997553  1.0000
  C   C295      1.0  0.7217638207932227  0.2720149783572098  0.04798503975349089  1.0000
  C   C296      1.0  0.6692916157602813  0.2579829397546328  0.09207298384389251  1.0000
  H   H429      1.0  0.7251078374162099  0.21426127325627722  0.10041956823210807  1.0000
  H   H430      1.0  0.7278684862443191  0.20232425437271911  0.041955756169361536  1.0000
  H   H431      1.0  0.6884008626904248  0.19154641247346477  0.07393793719220754  1.0000
  H   H432      1.0  0.6583240131044118  0.2662208128520748  0.0033551486061820235  1.0000
  H   H433      1.0  0.6887641001835014  0.23301431804522466  0.9851308141498164  1.0000
  H   H434      1.0  0.6503146651871999  0.22129928588850686  0.01793111554584481  1.0000
  H   H435      1.0  0.7104656235864352  0.2977835734496012  0.037440870420804684  1.0000
  H   H436      1.0  0.7404057419983862  0.2634515618021722  0.020933620083707805  1.0000
  H   H437      1.0  0.7381515022073363  0.2763321093998517  0.07901179783010948  1.0000
  H   H438      1.0  0.6569920651951365  0.28380050638081455  0.08386870594128837  1.0000
  H   H439      1.0  0.6841611340588871  0.2607029476485633  0.12457308320741367  1.0000
  H   H440      1.0  0.646891449913014  0.23913563524597137  0.09780954849525747  1.0000
  N   N27       1.0  0.9505500742567944  0.513409827932042  0.3079578796336357  1.0000
  C   C297      1.0  0.9687834079734331  0.4792302325195537  0.3031251295060489  1.0000
  C   C298      1.0  0.9501528562381372  0.5319819310046551  0.2641875782971812  1.0000
  C   C299      1.0  0.969987102431697  0.5349256939050766  0.34156544060066485  1.0000
  C   C300      1.0  0.9132426853484711  0.5076081648808884  0.32306523462766784  1.0000
  H   H441      1.0  0.9970254634511783  0.48246409676982316  0.2917547372247437  1.0000
  H   H442      1.0  0.9547238663137105  0.46216621198867597  0.2781849588657265  1.0000
  H   H443      1.0  0.9693517214331179  0.46454208090314064  0.33558091137529433  1.0000
  H   H444      1.0  0.9778533283538122  0.5373897256120158  0.2520404548220439  1.0000
  H   H445      1.0  0.935892774185043  0.516559223498574  0.23777381592162947  1.0000
  H   H446      1.0  0.936371243641352  0.5578359628209847  0.26673158945965814  1.0000
  H   H447      1.0  0.9573640333635574  0.5611936539395771  0.3453103694164841  1.0000
  H   H448      1.0  0.9984144481180772  0.539426805819662  0.33174385016527447  1.0000
  H   H449      1.0  0.9700710859834223  0.5223194701776364  0.3753980495660685  1.0000
  H   H450      1.0  0.8984889108143631  0.5328010136928709  0.3265186681026853  1.0000
  H   H451      1.0  0.9124549100740532  0.49427583348014387  0.35645536826799257  1.0000
  H   H452      1.0  0.8978716326683825  0.49096115724656514  0.2989421421943113  1.0000
  N   N28       1.0  0.5438966168030118  0.1080780703216051  0.24509948218221075  1.0000
  C   C301      1.0  0.5630953664880549  0.1323535044706928  0.21472240119023334  1.0000
  C   C302      1.0  0.5309650031486813  0.0774897480204897  0.219080719084873  1.0000
  C   C303      1.0  0.512964556463416  0.1262833687958291  0.2654654094072196  1.0000
  C   C304      1.0  0.5685459224536051  0.09606774893005529  0.2811847888530701  1.0000
  H   H453      1.0  0.5865201618690553  0.11944459065827422  0.19858018158796545  1.0000
  H   H454      1.0  0.5733893953310619  0.15578234819252781  0.23303576122649428  1.0000
  H   H455      1.0  0.5453618065476875  0.1420149876462077  0.18702943853868237  1.0000
  H   H456      1.0  0.5167318659389412  0.058364061139454915  0.24105700660850102  1.0000
  H   H457      1.0  0.5120520323882497  0.08548053547274549  0.1916978062312506  1.0000
  H   H458      1.0  0.5535502728638444  0.06330783803694179  0.20272630278460135  1.0000
  H   H459      1.0  0.4976626325978432  0.10857577203332787  0.28823044087891786  1.0000
  H   H460      1.0  0.494000064903451  0.13624132634026778  0.23927091515302246  1.0000
  H   H461      1.0  0.521768543056987  0.14920458287903818  0.28592247379462304  1.0000
  H   H462      1.0  0.5546241283012647  0.07819079242481596  0.3050983350882587  1.0000
  H   H463      1.0  0.5792832340831169  0.11854969574963793  0.3010508872965622  1.0000
  H   H464      1.0  0.591838622075262  0.08160967507507062  0.2670874345495165  1.0000
  N   N29       1.0  0.8807000788816804  0.45111962103641956  0.6838332794093372  1.0000
  C   C305      1.0  0.9181688415387532  0.4475758609503394  0.700048197837689  1.0000
  C   C306      1.0  0.8577330253139365  0.4253642095043904  0.7072379534027713  1.0000
  C   C307      1.0  0.8791320244359537  0.4445785359261275  0.6347811956544827  1.0000
  C   C308      1.0  0.8677317364308813  0.48691636503085894  0.6934526776405077  1.0000
  H   H465      1.0  0.9363644282527691  0.4664132773933269  0.6829397456949233  1.0000
  H   H466      1.0  0.9286971168279158  0.4207883437283623  0.6939911028521635  1.0000
  H   H467      1.0  0.9202999693239043  0.45243313643620126  0.7369503340171875  1.0000
  H   H468      1.0  0.8573570665060226  0.4303466751784646  0.7441173322790007  1.0000
  H   H469      1.0  0.8294670168980967  0.4264329813572457  0.6949504364670571  1.0000
  H   H470      1.0  0.8675009321114692  0.39808578588852733  0.7022642969387463  1.0000
  H   H471      1.0  0.8514107022668425  0.4478788547828044  0.6211649534019716  1.0000
  H   H472      1.0  0.8875669450039827  0.41738001106636735  0.6267744358517572  1.0000
  H   H473      1.0  0.8971310122978445  0.462616404679251  0.6159395877392915  1.0000
  H   H474      1.0  0.8393669461347285  0.4904231088488808  0.6822894907571829  1.0000
  H   H475      1.0  0.8843476308737268  0.5070590982543492  0.6762028945244681  1.0000
  H   H476      1.0  0.8688383443548103  0.49262309812884414  0.7302973030133459  1.0000
  N   N30       1.0  0.4484164910181776  0.18363615564750688  0.6259144973881615  1.0000
  C   C309      1.0  0.4773940688262406  0.17321607385597076  0.5949201262091264  1.0000
  C   C310      1.0  0.43751218599131364  0.15313111644546754  0.6533781449982575  1.0000
  C   C311      1.0  0.4172500972698185  0.19625997366084544  0.5994434317640099  1.0000
  C   C312      1.0  0.461480065192448  0.21194511858085555  0.6558135615360028  1.0000
  H   H477      1.0  0.4862419856668463  0.195736163619917  0.5738054413981302  1.0000
  H   H478      1.0  0.4682819655117055  0.15212255982263398  0.5715340136379033  1.0000
  H   H479      1.0  0.5012725455172008  0.1633360229646836  0.6137763495764803  1.0000
  H   H480      1.0  0.4146253531474442  0.15977565951403613  0.6757117765432036  1.0000
  H   H481      1.0  0.4287963722175455  0.13080658710632745  0.6317729642078393  1.0000
  H   H482      1.0  0.45993169061350986  0.14388584416624256  0.6754242656476195  1.0000
  H   H483      1.0  0.39513907846546076  0.20516162759460718  0.6217490889818922  1.0000
  H   H484      1.0  0.4062548738959559  0.17534950223890872  0.5771120347401159  1.0000
  H   H485      1.0  0.42477321913400856  0.2187640421668741  0.5775639859637487  1.0000
  H   H486      1.0  0.4404333649219851  0.22024999374236492  0.6799859875399477  1.0000
  H   H487      1.0  0.4695703884791894  0.23555847612661554  0.6362795712979361  1.0000
  H   H488      1.0  0.4851450443660963  0.20345173174477635  0.676230016502802  1.0000
  N   N31       1.0  0.8018035966479222  0.727712659269049  0.43798766774693065  1.0000
  C   C313      1.0  0.8110260264702499  0.6900372897118157  0.43752639673096205  1.0000
  C   C314      1.0  0.7853899313689993  0.7375219136019898  0.39427047772838353  1.0000
  C   C315      1.0  0.8348302964309381  0.7485251296096974  0.4454383733674078  1.0000
  C   C316      1.0  0.7760512953194644  0.7347515546612366  0.47458149103979436  1.0000
  H   H489      1.0  0.7867850020973856  0.6734438915175003  0.43192247652448695  1.0000
  H   H490      1.0  0.8236675489420479  0.6817219237692669  0.46992051321875694  1.0000
  H   H491      1.0  0.8304329637968485  0.6839699300874819  0.41018846830178785  1.0000
  H   H492      1.0  0.7782141040765753  0.765815694247557  0.39327057056406906  1.0000
  H   H493      1.0  0.8041071790439318  0.7328353749538048  0.36582846880823405  1.0000
  H   H494      1.0  0.7603755715475794  0.7224230625658599  0.38738095246240456  1.0000
  H   H495      1.0  0.8550607507685326  0.7432627323865288  0.4188724255765169  1.0000
  H   H496      1.0  0.8476948138110573  0.74238585659242  0.4784496738622752  1.0000
  H   H497      1.0  0.8292018931206402  0.7771644202740694  0.4447713693280833  1.0000
  H   H498      1.0  0.7507190436746757  0.7195936951830094  0.4699172127943173  1.0000
  H   H499      1.0  0.7685077621160525  0.7629690522224092  0.47573766356923014  1.0000
  H   H500      1.0  0.7875286779558552  0.7277593094492396  0.5081258824415664  1.0000
  N   N32       1.0  0.8037819729505963  0.2388321763638968  0.7847275343044704  1.0000
  C   C317      1.0  0.7713104586698272  0.22311989244459934  0.7640555189937617  1.0000
  C   C318      1.0  0.7950013904238563  0.27396128157415733  0.8024802617278826  1.0000
  C   C319      1.0  0.8322548855905483  0.24204594751095895  0.7505106510862745  1.0000
  C   C320      1.0  0.8165662085129154  0.21618396072708657  0.8219140627822242  1.0000
  H   H501      1.0  0.7609549541845547  0.2395181436845457  0.7357826460881153  1.0000
  H   H502      1.0  0.7493040179321168  0.2203708055620598  0.78908191272885  1.0000
  H   H503      1.0  0.7769264775386644  0.19649370522027101  0.7505047106595524  1.0000
  H   H504      1.0  0.818611532524361  0.28622178617982247  0.8194057159538052  1.0000
  H   H505      1.0  0.7863077456277306  0.2921423403749651  0.7751686319466632  1.0000
  H   H506      1.0  0.7731771298916111  0.27274212568804984  0.8278835765820849  1.0000
  H   H507      1.0  0.85698175285126  0.2543193812507691  0.7648703884211213  1.0000
  H   H508      1.0  0.8235105437183388  0.2588138905621563  0.7217257004423838  1.0000
  H   H509      1.0  0.8399674213190753  0.216074293230709  0.7366559460017904  1.0000
  H   H510      1.0  0.8406717422979701  0.22756434266886472  0.838889401743873  1.0000
  H   H511      1.0  0.8239518686098993  0.18958636633784104  0.8097722539557477  1.0000
  H   H512      1.0  0.7954955189889535  0.21271508681677861  0.8479072271729717  1.0000
