data_image0
_chemical_formula_structural       FeS2FeS2FeSFeS3FeS2FeS2FeSFeS3FeS2FeS2FeSFeS3FeS2FeS2FeSFeS3FeS2FeS2FeSFeS3FeS2FeS2FeSFeS3FeS2FeS2FeSFeS3FeS2FeS2FeSFeS3FeS2FeS2FeSFeS3FeS2FeS2FeSFeS3C6H4C6H4C6H4C6H4C6H4C6H4C6H4C6H4C6H4C6H4C6H4C6H4C6H4C6H4C6H4C6H4C6H4C6H4C6H4C6H4FeS2FeS2FeSFeS3FeS2FeS2FeSFeS3FeS2FeS2FeSFeS3FeS2FeS2FeSFeS3FeS2FeS2FeSFeS3FeS2FeS2FeSFeS3FeS2FeS2FeSFeS3FeS2FeS2FeSFeS3FeS2FeS2FeSFeS3FeS2FeS2FeSFeS3C6H4C6H4C6H4C6H4C6H4C6H4C6H4C6H4C6H4C6H4C6H4C6H4C6H4C6H4C6H4C6H4C6H4C6H4C6H4C6H4NC4H12NC4H12NC4H12NC4H12NC4H12NC4H12NC4H12NC4H12NC4H12NC4H12NC4H12NC4H12NC4H12NC4H12NC4H12NC4H12NC4H12NC4H12NC4H12NC4H12NC4H12NC4H12NC4H12NC4H12NC4H12NC4H12NC4H12NC4H12NC4H12NC4H12NC4H12NC4H12NC4H12NC4H12NC4H12NC4H12NC4H12NC4H12NC4H12NC4H12
_chemical_formula_sum              "Fe80 S160 C400 H640 N40"
_cell_length_a       30.52155357546315
_cell_length_b       60.46056324404585
_cell_length_c       54.11029606103905
_cell_angle_alpha    87.70800986470533
_cell_angle_beta     86.85683266140391
_cell_angle_gamma    122.33777361554597

_space_group_name_H-M_alt    "P 1"
_space_group_IT_number       1

loop_
  _space_group_symop_operation_xyz
  'x, y, z'

loop_
  _atom_site_type_symbol
  _atom_site_label
  _atom_site_symmetry_multiplicity
  _atom_site_fract_x
  _atom_site_fract_y
  _atom_site_fract_z
  _atom_site_occupancy
  Fe  Fe1       1.0  0.10403564446326424  0.11349158476293904  0.28680152291915506  1.0000
  S   S1        1.0  0.1403930587969068  0.11288200792856787  0.2501044086797106  1.0000
  S   S2        1.0  0.12440740973078136  0.10231571198107818  0.32255717446206517  1.0000
  Fe  Fe2       1.0  0.044425738086933356  0.13513153487647464  0.26339087920433  1.0000
  S   S3        1.0  0.07400325944290992  0.13496406317999401  0.2244150661526239  1.0000
  S   S4        1.0  0.9966736999478972  0.1513031970120293  0.2767081132040618  1.0000
  Fe  Fe3       1.0  0.06018764156900791  0.09556813946992518  0.23743152102345907  1.0000
  S   S5        1.0  0.026828117907530282  0.05539368508945758  0.22320400789291275  1.0000
  Fe  Fe4       1.0  0.1509333846351586  0.1520281451753209  0.24086863794281277  1.0000
  S   S6        1.0  0.22550135766491333  0.18638269432839544  0.2216668055309986  1.0000
  S   S7        1.0  0.023421492316391068  0.09433115913719053  0.2750481102284924  1.0000
  S   S8        1.0  0.1217886495075423  0.1542167074887875  0.27885631721991017  1.0000
  Fe  Fe5       1.0  0.469984580022728  0.300166987443609  0.26918510563311815  1.0000
  S   S9        1.0  0.4735681823540064  0.3355587671352604  0.28288143093860335  1.0000
  S   S10       1.0  0.4046728327324926  0.2611520999203301  0.2875358219688734  1.0000
  Fe  Fe6       1.0  0.5620450014284012  0.3328247330188627  0.23066743131280115  1.0000
  S   S11       1.0  0.5708978876392067  0.3706058440622701  0.2403921858477215  1.0000
  S   S12       1.0  0.6176455954674258  0.3301006441849595  0.20339648932399393  1.0000
  Fe  Fe7       1.0  0.5601320837367234  0.35465271233971607  0.2798712742115989  1.0000
  S   S13       1.0  0.6109779396637339  0.3848082264467602  0.30575020976982636  1.0000
  Fe  Fe8       1.0  0.4835082639037672  0.3483331647452208  0.24250829728629578  1.0000
  S   S14       1.0  0.4403458845404411  0.3660576286233287  0.22745462375053427  1.0000
  S   S15       1.0  0.556099735438817  0.3178798722496682  0.2702679038744695  1.0000
  S   S16       1.0  0.47533439914215897  0.31192824773191696  0.22877414352085892  1.0000
  Fe  Fe9       1.0  0.11750175610689467  0.3519347151626108  0.23477206672762205  1.0000
  S   S17       1.0  0.13355698848592432  0.3593523279614242  0.2746503431971399  1.0000
  S   S18       1.0  0.13204467544589926  0.3849606137763975  0.20739864654830253  1.0000
  Fe  Fe10      1.0  0.07899241922961528  0.2938659046785034  0.24304424580289657  1.0000
  S   S19       1.0  0.08818405829167333  0.29595847370025113  0.2837733434734725  1.0000
  S   S20       1.0  0.06162295478804234  0.2600273206821699  0.22023291931035513  1.0000
  Fe  Fe11      1.0  0.05580517855217363  0.3218308911502685  0.28300214847500504  1.0000
  S   S21       1.0  0.991009210352499  0.31857704257257263  0.30845123484002224  1.0000
  Fe  Fe12      1.0  0.1650194721119209  0.33320022060416354  0.2719911931675286  1.0000
  S   S22       1.0  0.23218731980075977  0.3358619675281216  0.29012280387849804  1.0000
  S   S23       1.0  0.03826334393787029  0.3157038174879941  0.2431931373876199  1.0000
  S   S24       1.0  0.15749574280423556  0.3298441608915806  0.2312364308355521  1.0000
  Fe  Fe13      1.0  0.9302424487890522  0.4599461790959212  0.37388455967867257  1.0000
  S   S25       1.0  0.9310973828408347  0.4341974881343828  0.3453199624747769  1.0000
  S   S26       1.0  0.932325485047677  0.9991022075360383  0.3767049796326811  1.0000
  Fe  Fe14      1.0  0.8927955222162064  0.41821148218436566  0.4171692117981809  1.0000
  S   S27       1.0  0.8892692354186017  0.38887053375275327  0.39175131496960713  1.0000
  S   S28       1.0  0.8657040774928828  0.4026580629982692  0.4578683096238357  1.0000
  Fe  Fe15      1.0  0.9659071086957822  0.4219105220490109  0.3741013637657949  1.0000
  S   S29       1.0  0.03300400293658105  0.41656379069137073  0.3661627788632392  1.0000
  Fe  Fe16      1.0  0.8540488962623364  0.40314948502172515  0.3651692159500094  1.0000
  S   S30       1.0  0.7898820157119993  0.3726387019421068  0.3438532401352201  1.0000
  S   S31       1.0  0.9724570664420737  0.45076066561694983  0.4010942090493146  1.0000
  S   S32       1.0  0.8502573819880811  0.42957587007510556  0.3919611157700362  1.0000
  Fe  Fe17      1.0  0.9499567555370698  0.4376274821871302  0.5958194893889223  1.0000
  S   S33       1.0  0.9983091823824733  0.4690604693329797  0.6211260794088778  1.0000
  S   S34       1.0  0.9805651770267474  0.4505489329247666  0.5550228699907904  1.0000
  Fe  Fe18      1.0  0.8730651332273969  0.4017663696956075  0.6393974150030429  1.0000
  S   S35       1.0  0.9138769397968883  0.43100578363420766  0.6672618061714981  1.0000
  S   S36       1.0  0.8013788600595364  0.3638173980194303  0.6554254236427265  1.0000
  Fe  Fe19      1.0  0.9216172968554012  0.46057684488108436  0.6382078818699263  1.0000
  S   S37       1.0  0.9154348102112334  0.4955804645103752  0.6442656974098867  1.0000
  Fe  Fe20      1.0  0.9862347841729957  0.43660502623550335  0.6477719951773022  1.0000
  S   S38       1.0  0.0403448559824143  0.4336478273620396  0.6726072025111072  1.0000
  S   S39       1.0  0.8737691137374561  0.4308772179633013  0.6118056932305831  1.0000
  S   S40       1.0  0.9449772873081884  0.40562478308399635  0.6211524761212718  1.0000
  Fe  Fe21      1.0  0.9289720083870803  0.9708748760834505  0.11488461894465343  1.0000
  S   S41       1.0  0.9129481558170082  0.9409488094017443  0.1455866395194631  1.0000
  S   S42       1.0  0.9342901227675788  0.008838955946086725  0.12240611902372345  1.0000
  Fe  Fe22      1.0  0.9435674945829421  0.9401816277316188  0.07477645397511186  1.0000
  S   S43       1.0  0.8926439720233672  0.4126459046591192  0.11423309628182202  1.0000
  S   S44       1.0  0.975630533696009  0.9434269608203436  0.03468924984057501  1.0000
  Fe  Fe23      1.0  0.8643317085803005  0.9114523533818667  0.11938424071721265  1.0000
  S   S45       1.0  0.8111711298409606  0.4361400265366632  0.1517154333127944  1.0000
  Fe  Fe24      1.0  0.9797029091516524  0.9403901285680648  0.12708065855879538  1.0000
  S   S46       1.0  0.9467509090576186  0.3765610449726321  0.15150012999547424  1.0000
  S   S47       1.0  0.8743342002223882  0.9413787260458313  0.08965055311501839  1.0000
  S   S48       1.0  0.9988968996367716  0.9723120037081695  0.09772772558002751  1.0000
  Fe  Fe25      1.0  0.9123441095586073  0.41951723985103123  0.918317945046618  1.0000
  S   S49       1.0  0.9307457059620003  0.4599382367780848  0.9066235558350645  1.0000
  S   S50       1.0  0.9039698305372549  0.40260188357114  0.9580126555079114  1.0000
  Fe  Fe26      1.0  0.9156230037657096  0.40596338475962335  0.864010617784815  1.0000
  S   S51       1.0  0.9352845466318873  0.44553618764765934  0.8487283601013967  1.0000
  S   S52       1.0  0.9134945954982507  0.38091217255823523  0.8336108455062002  1.0000
  Fe  Fe27      1.0  0.9897021202406316  0.4610940029698932  0.87864653619903  1.0000
  S   S53       1.0  0.07219783672916387  0.4959745349464584  0.8715946624038133  1.0000
  Fe  Fe28      1.0  0.8745561755424799  0.4402374094114705  0.8776643182266395  1.0000
  S   S54       1.0  0.8084514323913163  0.4441351653925789  0.866674171699966  1.0000
  S   S55       1.0  0.9747277521433022  0.4219565700358058  0.8919714809276427  1.0000
  S   S56       1.0  0.8511591736190213  0.3994107356519638  0.8913951216076912  1.0000
  Fe  Fe29      1.0  0.28790546792378663  0.5311158394370962  0.7303754124227686  1.0000
  S   S57       1.0  0.29035828515198053  0.4961030266455471  0.743241938663848  1.0000
  S   S58       1.0  0.2462292373821246  0.5364785153408341  0.699788230118823  1.0000
  Fe  Fe30      1.0  0.3702405592386155  0.04736389308956581  0.7492447367904096  1.0000
  S   S59       1.0  0.3505393180657549  0.006311390018334756  0.7584057274116716  1.0000
  S   S60       1.0  0.4180283009212221  0.07648233123046205  0.7762985518534844  1.0000
  Fe  Fe31      1.0  0.37636204877209894  0.5244904505555633  0.7451392287651091  1.0000
  S   S61       1.0  0.43565507524778957  0.516340916296604  0.7287635131722716  1.0000
  Fe  Fe32      1.0  0.28278507722301016  0.5073769651921867  0.7816069514467803  1.0000
  S   S62       1.0  0.22839328075286341  0.47501877802547166  0.8107037800728537  1.0000
  S   S63       1.0  0.39579025631557035  0.049335330455289955  0.7091987939644341  1.0000
  S   S64       1.0  0.28859866693121194  0.03511561663285971  0.7424413906049576  1.0000
  Fe  Fe33      1.0  0.7786032073019156  0.25758569752027055  0.745178177347324  1.0000
  S   S65       1.0  0.7950029179905436  0.2506733641358939  0.7836341266286839  1.0000
  S   S66       1.0  0.8442533936837139  0.28758238307015677  0.7176311823476984  1.0000
  Fe  Fe34      1.0  0.6642716116467912  0.21291987276191948  0.7535003160977456  1.0000
  S   S67       1.0  0.6709714411432784  0.2033717288487504  0.7930776177416304  1.0000
  S   S68       1.0  0.5949341629804571  0.19086486061707664  0.7312398274980347  1.0000
  Fe  Fe35      1.0  0.7196196443147321  0.24715781734190434  0.7951102511226217  1.0000
  S   S69       1.0  0.7127553328561372  0.2677931801981801  0.8274862448712328  1.0000
  Fe  Fe36      1.0  0.7452032344996357  0.2077060334659647  0.7779007718323804  1.0000
  S   S70       1.0  0.7664177323682027  0.17882531215306433  0.7906482531028373  1.0000
  S   S71       1.0  0.7057379852309034  0.2564144021912142  0.7568386986510633  1.0000
  S   S72       1.0  0.7361851706542976  0.2150540724531872  0.7381601281437812  1.0000
  Fe  Fe37      1.0  0.7438810618468062  0.01896780185470123  0.696430711653576  1.0000
  S   S73       1.0  0.7160360807564381  0.5062685045214035  0.7768955684121299  1.0000
  S   S74       1.0  0.7265973266820801  0.47931333605926324  0.7154996409600203  1.0000
  Fe  Fe38      1.0  0.7482985368966164  0.06395135112176277  0.7221060284718201  1.0000
  S   S75       1.0  0.7236276381409769  0.04167561381448545  0.759466902205618  1.0000
  S   S76       1.0  0.7545851754161468  0.10217901023717335  0.7121839002678714  1.0000
  Fe  Fe39      1.0  0.7767796177372397  0.02795221287640452  0.7483304226966724  1.0000
  S   S77       1.0  0.8311697112470313  0.027611691148040875  0.77482216931962  1.0000
  Fe  Fe40      1.0  0.6647957790017464  0.00774096556157229  0.7397494196775626  1.0000
  S   S78       1.0  0.6175748555212384  0.5304886627066145  0.7910386083388052  1.0000
  S   S79       1.0  0.8081085371489225  0.0540315325692464  0.7128305041052041  1.0000
  S   S80       1.0  0.6862036632049312  0.030840698113873546  0.7028802328864029  1.0000
  C   C1        1.0  0.7547119459681473  0.15427671418329966  0.7706987728134843  1.0000
  C   C2        1.0  0.7336452330203761  0.15323251143326008  0.7481714491371823  1.0000
  C   C3        1.0  0.7324373524451809  0.1365390147275333  0.730634015393057  1.0000
  C   C4        1.0  0.750266932198504  0.11996856334789578  0.7359215080612184  1.0000
  C   C5        1.0  0.7682585805472908  0.11968183057157843  0.7590740974664306  1.0000
  C   C6        1.0  0.7709777616928628  0.1370539622214971  0.7763596232931903  1.0000
  H   H1        1.0  0.7194592035838782  0.1657189035201991  0.7439303588408999  1.0000
  H   H2        1.0  0.7185320898204338  0.13679892992329518  0.7127193919778512  1.0000
  H   H3        1.0  0.7823169151892789  0.10699050287815186  0.7631825346453605  1.0000
  H   H4        1.0  0.7870506291342372  0.137655823800159  0.7938418147877057  1.0000
  C   C7        1.0  0.5683144379073589  0.5272825144698955  0.7731684267789974  1.0000
  C   C8        1.0  0.5445701209401747  0.990759418609045  0.7183639091875762  1.0000
  C   C9        1.0  0.4954540485818645  0.5326870333878134  0.7685546708807123  1.0000
  C   C10       1.0  0.48776233446223455  0.5217957856411837  0.7456733091560294  1.0000
  C   C11       1.0  0.5213365619913433  0.5143463007648645  0.7362682888765766  1.0000
  C   C12       1.0  0.5617010393125762  0.5172036871478058  0.7499051809158497  1.0000
  H   H5        1.0  0.5761610064979011  0.9907617266797207  0.7083356578809001  1.0000
  H   H6        1.0  0.512387956474142  0.994370435031449  0.6851114605229933  1.0000
  H   H7        1.0  0.5156088022046067  0.5059399808809166  0.7185343631398775  1.0000
  H   H8        1.0  0.5867857320717837  0.5109522878614413  0.7427059723003095  1.0000
  C   C13       1.0  0.546824146421654  0.15874169217270281  0.7435759545440237  1.0000
  C   C14       1.0  0.5456026823921646  0.1503154060856124  0.7681871103886683  1.0000
  C   C15       1.0  0.5060025354485038  0.12502299989031965  0.7780023946403193  1.0000
  C   C16       1.0  0.4676666213992835  0.10784641958422506  0.7631910151050841  1.0000
  C   C17       1.0  0.4692713976714718  0.11599977189367923  0.7384106785579343  1.0000
  C   C18       1.0  0.5086121592129367  0.1414715654017013  0.7286763673524096  1.0000
  H   H9        1.0  0.5742518479677052  0.16346908856191023  0.7799401498108434  1.0000
  H   H10       1.0  0.5049131915690296  0.1188733509394356  0.7972019770546077  1.0000
  H   H11       1.0  0.43947742771302567  0.1029957306280116  0.726910255323675  1.0000
  H   H12       1.0  0.5090649119149074  0.14785960112459615  0.7096480410677047  1.0000
  C   C19       1.0  0.822895285873076  0.47291594005130183  0.8493301684785534  1.0000
  C   C20       1.0  0.7821726989734232  0.4737334382458099  0.8395101972670111  1.0000
  C   C21       1.0  0.7921114450510216  0.4962998745094535  0.8255726978063601  1.0000
  C   C22       1.0  0.8428537242610367  0.5183271090725826  0.8214640733194842  1.0000
  C   C23       1.0  0.7920319229503661  0.9743993917902437  0.774746727496904  1.0000
  C   C24       1.0  0.8738342927131512  0.4948244584672347  0.8450582286459718  1.0000
  H   H13       1.0  0.7426285653400957  0.4569549851616509  0.8429298313563343  1.0000
  H   H14       1.0  0.7602301152045603  0.49679243678596313  0.8185114002118159  1.0000
  H   H15       1.0  0.7682415288916884  0.9737821938157103  0.7604418693759055  1.0000
  H   H16       1.0  0.7600778410870415  0.9326688732674299  0.776631907620415  1.0000
  C   C25       1.0  0.8586050730807361  0.3489603235276014  0.8329649300675064  1.0000
  C   C26       1.0  0.8520797037656349  0.3359110310678778  0.8113404373407654  1.0000
  C   C27       1.0  0.8075736997248524  0.31091529666676654  0.8096733006684039  1.0000
  C   C28       1.0  0.7694934054693499  0.29871636195343904  0.8297393546339145  1.0000
  C   C29       1.0  0.776098596734895  0.31167634575676195  0.8514826437731451  1.0000
  C   C30       1.0  0.8206396904406565  0.33680463728423166  0.8531031026798185  1.0000
  H   H17       1.0  0.8813971085119433  0.34516339742821256  0.7957949182598001  1.0000
  H   H18       1.0  0.8025288173965331  0.301150594347539  0.7927880055056883  1.0000
  H   H19       1.0  0.7468435675739685  0.30217848174521006  0.867102148593701  1.0000
  H   H20       1.0  0.8258757741069618  0.3466120824268537  0.8699825486005079  1.0000
  C   C31       1.0  0.11475629600787704  0.490035143339879  0.8539941151116355  1.0000
  C   C32       1.0  0.16427403998738177  0.5111740713905135  0.8447780451975769  1.0000
  C   C33       1.0  0.19900514691307145  0.5067587807612585  0.8310612720578011  1.0000
  C   C34       1.0  0.1847942235667437  0.48110932860785716  0.8270042426185955  1.0000
  C   C35       1.0  0.13555439218321358  0.45997014481851495  0.8364715571718544  1.0000
  C   C36       1.0  0.10034477017384319  0.464437872047664  0.8495829672526028  1.0000
  H   H21       1.0  0.17568499475157387  0.5310208597822074  0.8480916255554174  1.0000
  H   H22       1.0  0.1874425747720608  0.006234815715658041  0.7669295142162399  1.0000
  H   H23       1.0  0.12423502355622203  0.44010460056699063  0.8332966434710973  1.0000
  H   H24       1.0  0.06215393126213882  0.4480074916046656  0.8562325189425433  1.0000
  C   C37       1.0  0.9474225802469683  0.4470674601347253  0.02878791982694901  1.0000
  C   C38       1.0  0.9338975468360777  0.4209967505009987  0.02929777977835592  1.0000
  C   C39       1.0  0.9200077960293823  0.4075520921957633  0.007540293691764344  1.0000
  C   C40       1.0  0.919202361494924  0.4199392616962673  0.9851519535459117  1.0000
  C   C41       1.0  0.9315812453230486  0.44581065776367745  0.9848305554723668  1.0000
  C   C42       1.0  0.9460829952814115  0.45935492978059683  0.006473537482386549  1.0000
  H   H25       1.0  0.9347163540315806  0.4112865028160333  0.046347930610879745  1.0000
  H   H26       1.0  0.9102350352737952  0.38748028307185783  0.008005865974983317  1.0000
  H   H27       1.0  0.9298008676451125  0.45536394420555776  0.9679300129291913  1.0000
  H   H28       1.0  0.014890489108652538  0.9544731820319848  0.9834213066179298  1.0000
  C   C43       1.0  0.862146391558191  0.4906180418995329  0.6636459058518365  1.0000
  C   C44       1.0  0.8214865189626873  0.46539961058375917  0.6727561417752976  1.0000
  C   C45       1.0  0.7795815282463281  0.462111091468341  0.6883069359581548  1.0000
  C   C46       1.0  0.7784768542816408  0.48399060458965426  0.6950821708817456  1.0000
  C   C47       1.0  0.8192983714214751  0.5091916917024316  0.686045458415753  1.0000
  C   C48       1.0  0.86082182386772  0.5124676833207231  0.6702536853758894  1.0000
  H   H29       1.0  0.822080422033908  0.4484261798663594  0.6676534386866735  1.0000
  H   H30       1.0  0.8393602422285863  0.006924453443776517  0.6275674973132397  1.0000
  H   H31       1.0  0.8184490393962809  0.5261490677633869  0.6908406740064271  1.0000
  H   H32       1.0  0.8920775777240136  0.5320138711139764  0.6631697235144632  1.0000
  C   C49       1.0  0.8158302450007778  0.3442300492676696  0.6736341573310682  1.0000
  C   C50       1.0  0.7823184060427887  0.3289708847609586  0.694563169428921  1.0000
  C   C51       1.0  0.7916683932511973  0.3120971741286857  0.7085501621675538  1.0000
  C   C52       1.0  0.8337677860689603  0.30988572636724443  0.7013403249769123  1.0000
  C   C53       1.0  0.8679744949052766  0.3256027964004631  0.6807491379258582  1.0000
  C   C54       1.0  0.8592543564709642  0.3428920641077605  0.6670218615934188  1.0000
  H   H33       1.0  0.7491142368504277  0.33025525071209766  0.6999428041404024  1.0000
  H   H34       1.0  0.7663221915065127  0.3008898290670104  0.7249017424594267  1.0000
  H   H35       1.0  0.9008295654300615  0.3241227206829537  0.6751055585695752  1.0000
  H   H36       1.0  0.8851403208846244  0.3544871087585505  0.6508032883072218  1.0000
  C   C55       1.0  0.09670286914613896  0.46258017380884686  0.6802338273276607  1.0000
  C   C56       1.0  0.12673381101380865  0.4607031711823738  0.6979187389887549  1.0000
  C   C57       1.0  0.17222712679381993  0.4833106152806617  0.704262296971731  1.0000
  C   C58       1.0  0.18830623658308396  0.5079246450511526  0.6927373344079354  1.0000
  C   C59       1.0  0.15808316298553973  0.5098407322855057  0.675160545935741  1.0000
  C   C60       1.0  0.11220055083117693  0.4872312024934559  0.6690035443002801  1.0000
  H   H37       1.0  0.11503792623809332  0.44170086032132855  0.7066294702398748  1.0000
  H   H38       1.0  0.19510585315203655  0.4816301178235384  0.7178668398856898  1.0000
  H   H39       1.0  0.170300614623045  0.5288141238834847  0.6661699370676097  1.0000
  H   H40       1.0  0.0893254383796653  0.48884703981051875  0.6553245751227588  1.0000
  C   C61       1.0  0.8976556129738531  0.41689244102969064  0.4846458540785671  1.0000
  C   C62       1.0  0.9470304225499585  0.44003028123487364  0.4830636721445178  1.0000
  C   C63       1.0  0.9719461626971534  0.449885767558892  0.5048012091644224  1.0000
  C   C64       1.0  0.9476281970166447  0.4369353622300958  0.5283281888984969  1.0000
  C   C65       1.0  0.8979938486883708  0.4140067910904681  0.5299506649132456  1.0000
  C   C66       1.0  0.87332859724556  0.40398109151816736  0.5081847097550458  1.0000
  H   H41       1.0  0.9660212011910395  0.4503543567096649  0.46513102584182386  1.0000
  H   H42       1.0  0.010243285794118373  0.4677388647361258  0.5033863031099612  1.0000
  H   H43       1.0  0.8788024467525863  0.4038580784552481  0.5479235149576852  1.0000
  H   H44       1.0  0.83513695415223  0.38605206039767975  0.5095847310561304  1.0000
  C   C67       1.0  0.07993980532352295  0.3824882025579502  0.1922713591530785  1.0000
  C   C68       1.0  0.03232283606468885  0.35853512887796135  0.1924419285911302  1.0000
  C   C69       1.0  0.991860006501626  0.35697137508174426  0.17982827607222213  1.0000
  C   C70       1.0  0.9982527560379998  0.37944118148059225  0.16736332863140652  1.0000
  C   C71       1.0  0.04550737277984353  0.40353115254668376  0.1675618328176403  1.0000
  C   C72       1.0  0.08641381419811146  0.40496718331037634  0.1797566232496713  1.0000
  H   H45       1.0  0.02677001723369465  0.3411007097661729  0.20190895930422667  1.0000
  H   H46       1.0  0.9553145903270942  0.3383069185122096  0.1797776693053386  1.0000
  H   H47       1.0  0.05084146826324513  0.42097175980930324  0.15796626297279573  1.0000
  H   H48       1.0  0.1231478501286811  0.4235952402493332  0.1794902331020753  1.0000
  C   C73       1.0  0.003237091666092095  0.3455975982947993  0.3250242908174909  1.0000
  C   C74       1.0  0.05380154703288961  0.3650943813705206  0.3297284953918707  1.0000
  C   C75       1.0  0.062390938091679095  0.38658244624547866  0.3426994694187255  1.0000
  C   C76       1.0  0.02063737011801531  0.38893310750672877  0.3506908835202644  1.0000
  C   C77       1.0  0.9701033904132649  0.3695143119180911  0.345890118451295  1.0000
  C   C78       1.0  0.9614345575127595  0.3478008810835783  0.3332906235869532  1.0000
  H   H49       1.0  0.08620525755880004  0.36340906114031385  0.32373619094096406  1.0000
  H   H50       1.0  0.10157150780232785  0.40151669377694954  0.34640896869528465  1.0000
  H   H51       1.0  0.9376251485321642  0.3711388637307701  0.35191666928527066  1.0000
  H   H52       1.0  0.9221982308282921  0.33274055067941527  0.329775249431848  1.0000
  C   C79       1.0  0.28687924892076905  0.34248102707095257  0.2709518250564329  1.0000
  C   C80       1.0  0.31450833422262975  0.3311504581014765  0.2780566629208887  1.0000
  C   C81       1.0  0.3598088317539973  0.3370180067871213  0.2638407411728058  1.0000
  C   C82       1.0  0.3792508114462727  0.355266789707497  0.24312922041126164  1.0000
  C   C83       1.0  0.3509415404771389  0.3661518625201513  0.2356595934814879  1.0000
  C   C84       1.0  0.3043609997988333  0.35947815598152427  0.2493508721138346  1.0000
  H   H53       1.0  0.3008531798122675  0.3178044344131819  0.2946455216176366  1.0000
  H   H54       1.0  0.38013743805080036  0.3277840160170173  0.26927585371535734  1.0000
  H   H55       1.0  0.36556057593679825  0.38014505908249585  0.21952816522195048  1.0000
  H   H56       1.0  0.283197445223229  0.36831615334615264  0.24378743696026273  1.0000
  C   C85       1.0  0.6581704554304023  0.38080679075894264  0.31885814295296083  1.0000
  C   C86       1.0  0.7022770552808278  0.40252067111069156  0.32733607349600086  1.0000
  C   C87       1.0  0.7422003734779077  0.40007841424444085  0.3361074844668519  1.0000
  C   C88       1.0  0.7379643887751931  0.3758557966066428  0.3364645217280396  1.0000
  C   C89       1.0  0.6930878078618026  0.3540111478664936  0.3287302196983347  1.0000
  C   C90       1.0  0.6532463371646017  0.3564440151475017  0.3200452004901066  1.0000
  H   H57       1.0  0.7060827747849117  0.42138417806562156  0.3266796235904522  1.0000
  H   H58       1.0  0.7766525067474112  0.417007369070183  0.34209991548048724  1.0000
  H   H59       1.0  0.6893798313316649  0.3351628430271305  0.32923319649889354  1.0000
  H   H60       1.0  0.6188299589216575  0.33946421381029657  0.314154374064849  1.0000
  C   C91       1.0  0.7570255828517335  0.4063196223772147  0.16511432201232942  1.0000
  C   C92       1.0  0.7143685907019807  0.40616100279177486  0.1763299568111686  1.0000
  C   C93       1.0  0.6710378303984976  0.38278274490642317  0.1877537828839464  1.0000
  C   C94       1.0  0.669759994734619  0.35933789592683757  0.18766521226711064  1.0000
  C   C95       1.0  0.7118126986930017  0.35935196510828304  0.1757308860870777  1.0000
  C   C96       1.0  0.7557127809954821  0.38286157883707994  0.16474364120120863  1.0000
  H   H61       1.0  0.7214491929527628  0.8894670991216893  0.11374138323973304  1.0000
  H   H62       1.0  0.638467544267354  0.38290612222593573  0.19638633687225518  1.0000
  H   H63       1.0  0.710848431841221  0.34120771174983555  0.17541950151531033  1.0000
  H   H64       1.0  0.7884068530703103  0.38280460409946776  0.15601087595329818  1.0000
  C   C97       1.0  0.27406560144979675  0.20839747989302485  0.23992476566736862  1.0000
  C   C98       1.0  0.26344335313091555  0.20861468984308337  0.26536729964247724  1.0000
  C   C99       1.0  0.30348686442048706  0.22556447541377883  0.2796809868580879  1.0000
  C   C100      1.0  0.35439194857427775  0.24230885204237074  0.26868564371780895  1.0000
  C   C101      1.0  0.364771716276393  0.24262293708456784  0.24314330533548936  1.0000
  C   C102      1.0  0.32464201180786917  0.22578669820337813  0.22879275919104988  1.0000
  H   H65       1.0  0.22464651354239829  0.1956960286228089  0.2741169878859338  1.0000
  H   H66       1.0  0.2952278197635716  0.22560638514118997  0.29937896004494924  1.0000
  H   H67       1.0  0.40407851964793784  0.2551485113519681  0.23455199219077913  1.0000
  H   H68       1.0  0.3331967526951503  0.2258016814563608  0.2091070104782918  1.0000
  C   C103      1.0  0.015611673631764267  0.18170720365138884  0.2611461630301303  1.0000
  C   C104      1.0  0.03474048135964825  0.18749146213434648  0.2361014610987357  1.0000
  C   C105      1.0  0.047935491601610786  0.2113975468594916  0.22366810346816496  1.0000
  C   C106      1.0  0.04379130986700641  0.23005433754328838  0.23638348316189928  1.0000
  C   C107      1.0  0.025801426696505956  0.22455425102374704  0.26157561630792  1.0000
  C   C108      1.0  0.011013343640262543  0.20026351766009168  0.273824406158326  1.0000
  H   H69       1.0  0.037899382798491366  0.17320616022363897  0.2261037989347912  1.0000
  H   H70       1.0  0.06145065262935347  0.21541397606008017  0.20414030107280765  1.0000
  H   H71       1.0  0.021940072834879858  0.23868561662987067  0.27149381749742785  1.0000
  H   H72       1.0  0.9960729946972016  0.19588080801743282  0.2931751379056615  1.0000
  C   C109      1.0  0.07568158534734724  0.07110376635712229  0.33644397290615635  1.0000
  C   C110      1.0  0.036229672744169064  0.0526936199868596  0.32284513974776613  1.0000
  C   C111      1.0  0.9940709086356505  0.029248590962545024  0.3349545909604287  1.0000
  C   C112      1.0  0.9912044223622039  0.024183024376664912  0.3606880798575432  1.0000
  C   C113      1.0  0.031639067852733335  0.04219411349346202  0.37408480193161564  1.0000
  C   C114      1.0  0.07407975160970151  0.06544813894758116  0.36194505534818877  1.0000
  H   H73       1.0  0.03765204490425827  0.056645651958663924  0.30306709795987086  1.0000
  H   H74       1.0  0.9625507245280156  0.01557121534121634  0.32455704391468404  1.0000
  H   H75       1.0  0.029124238227444112  0.03864390949102587  0.3940295135109848  1.0000
  H   H76       1.0  0.10439647251681505  0.0796115939210405  0.3725781818089777  1.0000
  C   C115      1.0  0.9961094066748785  0.04320779149581601  0.1959571524145925  1.0000
  C   C116      1.0  0.9726953412773607  0.016289618248927776  0.19346063695543753  1.0000
  C   C117      1.0  0.9533419171642274  0.005726656264023954  0.1711032106881167  1.0000
  C   C118      1.0  0.9568095728273098  0.021905170705346467  0.15096069169491427  1.0000
  C   C119      1.0  0.9783363103691544  0.048738778006652994  0.15368301280126284  1.0000
  C   C120      1.0  0.9983651114345531  0.0594694139344458  0.1761295077296196  1.0000
  H   H77       1.0  0.9707063767665765  0.0035986722002316614  0.20877042087005104  1.0000
  H   H78       1.0  0.9363216108480307  0.9850689961139796  0.16952369323425792  1.0000
  H   H79       1.0  0.9807883866549243  0.061381672971917975  0.13820962641878315  1.0000
  H   H80       1.0  0.016581805939954064  0.0803083837148921  0.17787563650373764  1.0000
  Fe  Fe41      1.0  0.16319672995618523  0.6164633335211939  0.2866463106032092  1.0000
  S   S81       1.0  0.17323724225149795  0.6130164373314088  0.24591268946964975  1.0000
  S   S82       1.0  0.16965990906333298  0.5881486372020787  0.3121655431722378  1.0000
  Fe  Fe42      1.0  0.14126083603991912  0.6594367007171118  0.2779095287969665  1.0000
  S   S83       1.0  0.145699275377813  0.6579980450650936  0.23658728873728302  1.0000
  S   S84       1.0  0.13858825604231134  0.6912580394303783  0.2971856266608051  1.0000
  Fe  Fe43      1.0  0.10135040165959552  0.6140389116431703  0.2441742939888896  1.0000
  S   S85       1.0  0.036328407670148326  0.5855381357757643  0.2217770915863943  1.0000
  Fe  Fe44      1.0  0.21693845759778593  0.6569038597118142  0.24166069670553228  1.0000
  S   S86       1.0  0.2835458027205015  0.6823198261387403  0.21251061221013862  1.0000
  S   S87       1.0  0.08883572762138504  0.6154524586297698  0.2852331479747355  1.0000
  S   S88       1.0  0.2151075733420104  0.6605183441854102  0.28265400197409973  1.0000
  Fe  Fe45      1.0  0.5194689639426806  0.8082871258787699  0.24937853672799087  1.0000
  S   S89       1.0  0.4992745441425985  0.8220140039187278  0.2832805629630101  1.0000
  S   S90       1.0  0.5009140356668496  0.766936722984607  0.24950883469812757  1.0000
  Fe  Fe46      1.0  0.5637556985799465  0.8599811024066877  0.21977021400991992  1.0000
  S   S91       1.0  0.5450828597747908  0.8781036810353184  0.25077498242686413  1.0000
  S   S92       1.0  0.6010048424137898  0.8817037525204396  0.18208467691197291  1.0000
  Fe  Fe47      1.0  0.5766471159375248  0.8595671836585643  0.2748304822262824  1.0000
  S   S93       1.0  0.6224317906853907  0.8841810581267762  0.305330776418584  1.0000
  Fe  Fe48      1.0  0.46873951444270623  0.8394713386407315  0.25735436819707924  1.0000
  S   S94       1.0  0.39049887765207597  0.8300537537670675  0.2742675852086096  1.0000
  S   S95       1.0  0.6007299273686567  0.8441213295710144  0.2433226198531766  1.0000
  S   S96       1.0  0.4836092804191357  0.8228884151167709  0.22378875755091396  1.0000
  Fe  Fe49      1.0  0.08057052091611798  0.8422950592880052  0.22321390689926507  1.0000
  S   S97       1.0  0.12519413628631032  0.8707336636537177  0.2512825086805042  1.0000
  S   S98       1.0  0.045471067710789036  0.8465899845322112  0.18908337286236793  1.0000
  Fe  Fe50      1.0  0.08768263899609854  0.7980786158426708  0.2486493305830133  1.0000
  S   S99       1.0  0.13262195832025767  0.8226536453536858  0.27892047939514975  1.0000
  S   S100      1.0  0.05864786067885644  0.7558480158899665  0.24256995597473655  1.0000
  Fe  Fe51      1.0  0.07664859752651547  0.836226346081035  0.2796151373518936  1.0000
  S   S101      1.0  0.026679331844092647  0.8315370056674344  0.3143796471407773  1.0000
  Fe  Fe52      1.0  0.17740302518846512  0.8547714380146633  0.24809837924223896  1.0000
  S   S102      1.0  0.26485736928952774  0.8803672430418015  0.23948998039873304  1.0000
  S   S103      1.0  0.028459616185376308  0.8090855301345243  0.2515571462340169  1.0000
  S   S104      1.0  0.1361036855217335  0.8290395355854216  0.2179094065697464  1.0000
  Fe  Fe53      1.0  0.9239747111284823  0.9599542328254009  0.38375410664807363  1.0000
  S   S105      1.0  0.9299844808809162  0.9383557805501845  0.3524155495159386  1.0000
  S   S106      1.0  0.9479683040842597  0.5005670516555851  0.36314642079301807  1.0000
  Fe  Fe54      1.0  0.8993309300771488  0.9169566254221337  0.42336179401720225  1.0000
  S   S107      1.0  0.9023555970290775  0.8913590683357112  0.39498365190403084  1.0000
  S   S108      1.0  0.8805059462599906  0.9003304563231996  0.46382751524164656  1.0000
  Fe  Fe55      1.0  0.9735352256004901  0.9281190023307756  0.377594388317399  1.0000
  S   S109      1.0  0.04637725284474622  0.9304271198800899  0.3621226084219582  1.0000
  Fe  Fe56      1.0  0.8580153757875341  0.9031365411960913  0.37183275921127934  1.0000
  S   S110      1.0  0.7993743686251122  0.8725846876063357  0.3483047546847662  1.0000
  S   S111      1.0  0.9745019878896266  0.9531862266102  0.40754620279215426  1.0000
  S   S112      1.0  0.848122151331383  0.9253450391996252  0.4016425220565257  1.0000
  Fe  Fe57      1.0  0.9731662005114654  0.9488070826737703  0.5965664832040486  1.0000
  S   S113      1.0  0.9507732730737091  0.970888299104807  0.6215721528379778  1.0000
  S   S114      1.0  0.9939208508821082  0.9638245909527485  0.5556556938218933  1.0000
  Fe  Fe58      1.0  0.9604043087204653  0.9110858625599998  0.6394058156178283  1.0000
  S   S115      1.0  0.9352102154379401  0.929317145949721  0.6671373154927818  1.0000
  S   S116      1.0  0.9710283367466601  0.8792278650540775  0.6546478672436379  1.0000
  Fe  Fe59      1.0  0.8877618311555224  0.9308858972345659  0.6379884214065783  1.0000
  S   S117      1.0  0.805967885901586  0.9194441272292305  0.6497135178807957  1.0000
  Fe  Fe60      1.0  0.00036891333080015095  0.967632989213329  0.6486409249827324  1.0000
  S   S118      1.0  0.04312294972706527  0.9966806052987814  0.676670512721742  1.0000
  S   S119      1.0  0.9063131949015308  0.9087098889551245  0.6114611898096354  1.0000
  S   S120      1.0  0.029494862811597355  0.9494598009772652  0.6224834282530347  1.0000
  Fe  Fe61      1.0  0.0019534290659246126  0.47143805029028174  0.14606566057858034  1.0000
  S   S121      1.0  0.9367906150367167  0.43529240921177437  0.16803089096861198  1.0000
  S   S122      1.0  0.06564792786763204  0.5030360759046381  0.16672727658084002  1.0000
  Fe  Fe62      1.0  0.9599989941162885  0.450673795676041  0.09576984818895455  1.0000
  S   S123      1.0  0.9299205370107467  0.9080977538635583  0.1030842424005379  1.0000
  S   S124      1.0  0.9658468248613227  0.46517640956573164  0.05536872867227135  1.0000
  Fe  Fe63      1.0  0.8852691901573855  0.43762769426847814  0.1415202296124379  1.0000
  S   S125      1.0  0.7883846171693714  0.8757796486863917  0.13590392842645133  1.0000
  Fe  Fe64      1.0  0.9509063234885857  0.41379851669475054  0.13897193724388548  1.0000
  S   S126      1.0  0.04187105911326107  0.9462844960402037  0.1521039671984767  1.0000
  S   S127      1.0  0.9494347237210902  0.4757840287563862  0.12203434662141494  1.0000
  S   S128      1.0  0.019539646357505033  0.4498415720420007  0.11819749107735641  1.0000
  Fe  Fe65      1.0  0.8969651627979774  0.925057069914199  0.8944127254427395  1.0000
  S   S129      1.0  0.914439641295996  0.9573362162916799  0.8654236020778616  1.0000
  S   S130      1.0  0.8623581633334652  0.9192846922885953  0.934423609864907  1.0000
  Fe  Fe66      1.0  0.9169587421473842  0.8945928305784123  0.8569187928297614  1.0000
  S   S131      1.0  0.9362855428243151  0.9238349872849444  0.8249446861956418  1.0000
  S   S132      1.0  0.9259719883818431  0.8604843880014695  0.8514562402549006  1.0000
  Fe  Fe67      1.0  0.9813798548737755  0.9539469903909483  0.8513633796242646  1.0000
  S   S133      1.0  0.05910463875661617  0.9887314554607989  0.8356176639021032  1.0000
  Fe  Fe68      1.0  0.8683406066920194  0.925071023901816  0.8407148371755407  1.0000
  S   S134      1.0  0.8115952328990097  0.9220226776832128  0.813688521711657  1.0000
  S   S135      1.0  0.9682344661801714  0.9246480438197673  0.8824134265603245  1.0000
  S   S136      1.0  0.8446446668133301  0.892811667347278  0.8705854484285798  1.0000
  Fe  Fe69      1.0  0.31189895448070304  0.03286406334115344  0.7030271034113789  1.0000
  S   S137      1.0  0.28898821587430523  0.9910060130979721  0.7081247922669102  1.0000
  S   S138      1.0  0.28540296931446796  0.04371738169673356  0.6693149256156388  1.0000
  Fe  Fe70      1.0  0.3607640265465081  0.5650824235834868  0.7676313968180873  1.0000
  S   S139      1.0  0.3689462775242562  0.5330649814577234  0.7846106471134037  1.0000
  S   S140      1.0  0.4038715158886487  0.6074196582564254  0.7760189713799067  1.0000
  Fe  Fe71      1.0  0.3708378705812563  0.007407663639417583  0.7178383404238642  1.0000
  S   S141      1.0  0.4224616919230281  0.9950908104399888  0.7004376414408973  1.0000
  Fe  Fe72      1.0  0.27064778871034517  0.9940727977288554  0.7480345534359756  1.0000
  S   S142      1.0  0.1967413839911056  0.9607044162327687  0.7689296173204617  1.0000
  S   S143      1.0  0.3746634188830923  0.5583594809178353  0.7284506977374616  1.0000
  S   S144      1.0  0.27376219335869967  0.540260020460903  0.7686120397999279  1.0000
  Fe  Fe73      1.0  0.7700431387109558  0.754283754111816  0.7381070761861478  1.0000
  S   S145      1.0  0.8257601692672449  0.7632842271449749  0.7671292395433658  1.0000
  S   S146      1.0  0.767960610580338  0.7859696601259363  0.7158884204970445  1.0000
  Fe  Fe74      1.0  0.7035733010549162  0.6957830251835591  0.755530374496332  1.0000
  S   S147      1.0  0.7525852074706477  0.7005800404465772  0.7866753671731487  1.0000
  S   S148      1.0  0.642971316489351  0.6536444841826899  0.7504278066640379  1.0000
  Fe  Fe75      1.0  0.7536883576678437  0.737300263312843  0.7927135829431721  1.0000
  S   S149      1.0  0.7366637477873591  0.7488615373353643  0.8293251339453368  1.0000
  Fe  Fe76      1.0  0.8190776028504804  0.725588017449075  0.7580712024870445  1.0000
  S   S150      1.0  0.8839034178620845  0.7183323221449469  0.7541857906984296  1.0000
  S   S151      1.0  0.6979395850109981  0.7300985158379747  0.7642378861601691  1.0000
  S   S152      1.0  0.7702037417487334  0.719019859254388  0.7263490172956285  1.0000
  Fe  Fe77      1.0  0.7386558859895892  0.5138942053223565  0.7357466151527657  1.0000
  S   S153      1.0  0.7160478814415706  0.9921054917179263  0.7313614948336785  1.0000
  S   S154      1.0  0.7675313684097042  0.01174204053820982  0.6590436612414009  1.0000
  Fe  Fe78      1.0  0.7811107432716546  0.5722599314253578  0.7366092291102504  1.0000
  S   S155      1.0  0.764836199684628  0.5696677448262788  0.7777116623366102  1.0000
  S   S156      1.0  0.8201700706779874  0.6098465332457624  0.7119628481288286  1.0000
  Fe  Fe79      1.0  0.7943648390660302  0.5426693369148415  0.779645544217766  1.0000
  S   S157      1.0  0.8564291947110768  0.5467312769354118  0.8035526713278469  1.0000
  Fe  Fe80      1.0  0.6879467565929963  0.5336247070240164  0.7711040425822732  1.0000
  S   S158      1.0  0.5853367108054068  0.9862473547443823  0.760875219431459  1.0000
  S   S159      1.0  0.8184391791108354  0.548930448275558  0.7388663464880081  1.0000
  S   S160      1.0  0.7028701793615536  0.5377587516359257  0.729604481281886  1.0000
  C   C121      1.0  0.8635257014131328  0.6879147029950078  0.7423990539014057  1.0000
  C   C122      1.0  0.8918874895548982  0.6870839532018604  0.7216822612905825  1.0000
  C   C123      1.0  0.8775482767992732  0.6630181725795751  0.712408244691386  1.0000
  C   C124      1.0  0.8361797572720499  0.6394702103901523  0.7244060830069422  1.0000
  C   C125      1.0  0.8084171862701144  0.6401050723953304  0.7455783926642087  1.0000
  C   C126      1.0  0.8213451320212121  0.6643822481960416  0.7542467295111913  1.0000
  H   H81       1.0  0.9245126037914599  0.7051850503578339  0.7125050984181341  1.0000
  H   H82       1.0  0.8990163935256774  0.662686641509549  0.6959761091373752  1.0000
  H   H83       1.0  0.7769392681097521  0.6220252675543646  0.7551817652957705  1.0000
  H   H84       1.0  0.7996829089440988  0.6649312196785632  0.7704651620747897  1.0000
  C   C127      1.0  0.5391217190144598  0.9880926783173631  0.7443062991793862  1.0000
  C   C128      1.0  0.5351764645156705  0.5350761752572192  0.7824228276332673  1.0000
  C   C129      1.0  0.5081234293450673  0.9925713197605694  0.7052139395777792  1.0000
  C   C130      1.0  0.4663344872441439  0.9921078223212121  0.7178714078691656  1.0000
  C   C131      1.0  0.46068176454145665  0.9894241014309555  0.7438685184907672  1.0000
  C   C132      1.0  0.49686249190187687  0.9872289152411875  0.7570673410980391  1.0000
  H   H85       1.0  0.5405882499297631  0.5432005639801794  0.8002823388541966  1.0000
  H   H86       1.0  0.47056577061147237  0.5390376736568692  0.7757014402843181  1.0000
  H   H87       1.0  0.42807498345651085  0.9886410191376549  0.7537540576993976  1.0000
  H   H88       1.0  0.4922167306193523  0.9849651055070757  0.7771448170404819  1.0000
  C   C133      1.0  0.5767919457345653  0.6417468268403425  0.7567124260491929  1.0000
  C   C134      1.0  0.5414030456333412  0.6145451811538049  0.7593989401647834  1.0000
  C   C135      1.0  0.4883615685936015  0.6041413035292852  0.7650947972644491  1.0000
  C   C136      1.0  0.4704307033769097  0.6208399014483726  0.7685929267520676  1.0000
  C   C137      1.0  0.5057128675869679  0.6481189782559541  0.7659150159660303  1.0000
  C   C138      1.0  0.5589441202739897  0.6586023783621657  0.7596533362481853  1.0000
  H   H89       1.0  0.5549300103963237  0.6013707859243483  0.757364661077456  1.0000
  H   H90       1.0  0.4614861487967888  0.5831163571335622  0.767028617545404  1.0000
  H   H91       1.0  0.4918281331895716  0.6610971195582407  0.768356943596835  1.0000
  H   H92       1.0  0.5860750703367275  0.6796502095310076  0.7570433872552477  1.0000
  C   C139      1.0  0.8187843678860358  0.9515989285688342  0.8022223793298251  1.0000
  C   C140      1.0  0.8546558816870996  0.9755425547713408  0.8112581994957446  1.0000
  C   C141      1.0  0.8585134505396145  0.9987386448593379  0.802418387045026  1.0000
  C   C142      1.0  0.8269188818623618  0.9982313370368601  0.7843241029812502  1.0000
  C   C143      1.0  0.8836968241195187  0.5175502495272694  0.8313021579377486  1.0000
  C   C144      1.0  0.7876234420354676  0.9511175369272866  0.7838541401011238  1.0000
  H   H93       1.0  0.8791496724477874  0.9762069074389415  0.8252555901472362  1.0000
  H   H94       1.0  0.8859022532381928  0.017122029641027936  0.8098072295151808  1.0000
  H   H95       1.0  0.923080955120173  0.5345366563731849  0.8282933559914339  1.0000
  H   H96       1.0  0.9054813339841086  0.49439847606527787  0.8526526931206152  1.0000
  C   C145      1.0  0.8723504913990917  0.829946940908055  0.8450735691094837  1.0000
  C   C146      1.0  0.8210873414523472  0.8228091507912081  0.8514040312844484  1.0000
  C   C147      1.0  0.779324223808213  0.7977252401645352  0.846853331281743  1.0000
  C   C148      1.0  0.788788539560432  0.7800481848393925  0.835450076987231  1.0000
  C   C149      1.0  0.8400200063715078  0.7874203901318607  0.8288475762723128  1.0000
  C   C150      1.0  0.8816389750950749  0.812159545171822  0.8339231746046966  1.0000
  H   H97       1.0  0.8136273986856241  0.8363992763553341  0.8601212275920335  1.0000
  H   H98       1.0  0.7396994835170354  0.7921068457913476  0.851949191671354  1.0000
  H   H99       1.0  0.8477101144322795  0.7737979149909414  0.8203527829758841  1.0000
  H   H100      1.0  0.9212390536050393  0.8175387625427616  0.8291316606495913  1.0000
  C   C151      1.0  0.09300107834427386  0.9798209785040757  0.8152658869593218  1.0000
  C   C152      1.0  0.12939181053233942  0.9981826990889018  0.7964906732449454  1.0000
  C   C153      1.0  0.1600259968083116  0.992111617454106  0.781507025588718  1.0000
  C   C154      1.0  0.15511051798380165  0.9678606311847566  0.7855468555268672  1.0000
  C   C155      1.0  0.11724536917750542  0.9491258698733022  0.8036409002356187  1.0000
  C   C156      1.0  0.08610758524907759  0.9550415497547906  0.8184239809005412  1.0000
  H   H101      1.0  0.13405975308284804  0.017179187189216405  0.7936716023896037  1.0000
  H   H102      1.0  0.23710064827685878  0.523176716996584  0.8240261874346835  1.0000
  H   H103      1.0  0.11279232737067608  0.9301955068635698  0.8066838723709729  1.0000
  H   H104      1.0  0.05791274877673415  0.9407107406098855  0.8327988379233107  1.0000
  C   C157      1.0  0.9433969030508051  0.9375768342586797  0.007067630798680114  1.0000
  C   C158      1.0  0.8893550468879112  0.9252953631828825  0.007512587784423125  1.0000
  C   C159      1.0  0.8653350034915384  0.9201562729991777  0.9850836391946997  1.0000
  C   C160      1.0  0.8949884599263825  0.9274158305310117  0.9619902409075731  1.0000
  C   C161      1.0  0.949097417765784  0.9400331538578917  0.9615243333301456  1.0000
  C   C162      1.0  0.9730386887932356  0.9448446647181116  0.9839539589724069  1.0000
  H   H105      1.0  0.8660674333018347  0.9195672184730455  0.025132442863665522  1.0000
  H   H106      1.0  0.8234723988797092  0.9104747415425192  0.9856481864618557  1.0000
  H   H107      1.0  0.9725010668567455  0.9460516920680101  0.9439167433861375  1.0000
  H   H108      1.0  0.9559586181137538  0.4794418482900018  0.005979917545658964  1.0000
  C   C163      1.0  0.797209696758824  0.9456616881804604  0.6531760258261556  1.0000
  C   C164      1.0  0.8266963043140628  0.9689790493811454  0.637824610446155  1.0000
  C   C165      1.0  0.8172838918081928  0.9891431604796155  0.6398773229770968  1.0000
  C   C166      1.0  0.7794414852883849  0.986453611397627  0.6577541120029622  1.0000
  C   C167      1.0  0.7509290842665952  0.9634712813428715  0.6736431258927595  1.0000
  C   C168      1.0  0.7592775140048751  0.9429268627156892  0.6710807079542257  1.0000
  H   H109      1.0  0.85601449479158  0.9714207769511354  0.6239821140720184  1.0000
  H   H110      1.0  0.7479880656888788  0.44255562028705814  0.6951549881197755  1.0000
  H   H111      1.0  0.7211729950765303  0.9611631567533246  0.6872578030292441  1.0000
  H   H112      1.0  0.7361394025464753  0.9248591588929493  0.6829144737467683  1.0000
  C   C169      1.0  0.9150813425179813  0.853557468912006  0.6721790544797444  1.0000
  C   C170      1.0  0.8685899663248391  0.8529565457976885  0.6733276565813208  1.0000
  C   C171      1.0  0.8237916187545024  0.8320894911967492  0.6868443746406211  1.0000
  C   C172      1.0  0.8252559171891533  0.8117963776973824  0.6994003290582843  1.0000
  C   C173      1.0  0.8720131915016074  0.8126507048804568  0.6987855582182505  1.0000
  C   C174      1.0  0.916862693010862  0.8334913876533427  0.6850868813112917  1.0000
  H   H113      1.0  0.8668100121779748  0.8682925642075737  0.6633804618191232  1.0000
  H   H114      1.0  0.7876903669058419  0.8315026387313932  0.6872753871987713  1.0000
  H   H115      1.0  0.8733967653852815  0.7970466441430953  0.7084519069538774  1.0000
  H   H116      1.0  0.9527709348943663  0.8338792984744613  0.6842199312328126  1.0000
  C   C175      1.0  0.11073965459229665  0.01064612729218628  0.6741574968070476  1.0000
  C   C176      1.0  0.1377670862012871  0.01868835315909534  0.6954460507347896  1.0000
  C   C177      1.0  0.19123911061965757  0.028465956457180086  0.6941460104504852  1.0000
  C   C178      1.0  0.2183228072544049  0.031240180291289832  0.6713479609063426  1.0000
  C   C179      1.0  0.19155111129438263  0.02387863704296045  0.64992585957874  1.0000
  C   C180      1.0  0.13766635941491606  0.01323276439615384  0.65137308047538  1.0000
  H   H117      1.0  0.11717284576390138  0.016932036283033858  0.7130729160310566  1.0000
  H   H118      1.0  0.21174243138723003  0.03446060233651549  0.7106616068868291  1.0000
  H   H119      1.0  0.21243186537646225  0.026102592683939996  0.6322395589103188  1.0000
  H   H120      1.0  0.11714211082239843  0.0073085188543213775  0.6348177057545231  1.0000
  C   C181      1.0  0.9110149058798932  0.9184546583591914  0.4892897725294984  1.0000
  C   C182      1.0  0.945144955072434  0.9457445147135419  0.4866586899696088  1.0000
  C   C183      1.0  0.9701910285233307  0.959318145983179  0.5071746858935914  1.0000
  C   C184      1.0  0.9608144500486216  0.9458414785251  0.5305702441787525  1.0000
  C   C185      1.0  0.9260104988864692  0.9185836666842284  0.5333019978736804  1.0000
  C   C186      1.0  0.9013129709061418  0.9049774295659577  0.5127267642039244  1.0000
  H   H121      1.0  0.952408782830491  0.9564018189874057  0.46881056034927004  1.0000
  H   H122      1.0  0.9968842364917346  0.9804292347611273  0.5049416209381054  1.0000
  H   H123      1.0  0.9189226736021228  0.9079448834245409  0.5511355208775929  1.0000
  H   H124      1.0  0.8749867887476821  0.8838434230221827  0.5149120712537228  1.0000
  C   C187      1.0  0.04134631029248524  0.8738837953418095  0.1809059750764254  1.0000
  C   C188      1.0  0.06866900596287698  0.897305093822406  0.19249447131890432  1.0000
  C   C189      1.0  0.06837970466392414  0.9194328499738882  0.1836256526491209  1.0000
  C   C190      1.0  0.039879720795702636  0.9180373301534605  0.16355813712414052  1.0000
  C   C191      1.0  0.01165958342660799  0.8944478025001291  0.15243864320251455  1.0000
  C   C192      1.0  0.012850478277039314  0.8725495283216382  0.16093298736035164  1.0000
  H   H125      1.0  0.0904980326763173  0.8984958778883834  0.2080050270021328  1.0000
  H   H126      1.0  0.09012553715344664  0.9376389716593737  0.1923508420045692  1.0000
  H   H127      1.0  0.9897837266038262  0.8932077013407376  0.13691834940153771  1.0000
  H   H128      1.0  0.991836120887748  0.8545254624429056  0.15182317110145382  1.0000
  C   C193      1.0  0.03295306263088666  0.8593463457031498  0.3272758383216052  1.0000
  C   C194      1.0  0.07511964551557683  0.8847595423022895  0.31988120635601425  1.0000
  C   C195      1.0  0.07922680515567362  0.9064134559374445  0.33093445677178884  1.0000
  C   C196      1.0  0.04053223602491653  0.9028556501595603  0.3489046164841044  1.0000
  C   C197      1.0  0.9981495007584196  0.8774651126176712  0.35609693383433794  1.0000
  C   C198      1.0  0.9947791456290199  0.8557819459954495  0.34555013105055676  1.0000
  H   H129      1.0  0.10499638693886255  0.8877018433044558  0.30596826395496185  1.0000
  H   H130      1.0  0.1122775113806671  0.926008996242019  0.3253785377589023  1.0000
  H   H131      1.0  0.9684287489310037  0.8744451437474176  0.37010719695680727  1.0000
  H   H132      1.0  0.9622821038101418  0.836154293795424  0.3515025710203092  1.0000
  C   C199      1.0  0.29996995962491496  0.8662548378717446  0.24863035160187186  1.0000
  C   C200      1.0  0.2767142720570708  0.8441009222480839  0.2655779237890883  1.0000
  C   C201      1.0  0.305237562275885  0.8334282523013813  0.27326438160382466  1.0000
  C   C202      1.0  0.3569580913721064  0.8444043146379636  0.2636557894146663  1.0000
  C   C203      1.0  0.38038281613338343  0.8664064432997246  0.24646228298856396  1.0000
  C   C204      1.0  0.352006674475312  0.8774566312897452  0.2391472442218595  1.0000
  H   H133      1.0  0.23698292625969158  0.8354238300456933  0.2731522668856158  1.0000
  H   H134      1.0  0.28694588669043924  0.816516237670581  0.2866989561968305  1.0000
  H   H135      1.0  0.42033926854010184  0.8750546858727879  0.23900676233858642  1.0000
  H   H136      1.0  0.3703164652166327  0.8946449587346349  0.22606147706769386  1.0000
  C   C205      1.0  0.6725488588122327  0.8812120917606243  0.3164562030736908  1.0000
  C   C206      1.0  0.7052530580436697  0.8990021262878176  0.3329202732959858  1.0000
  C   C207      1.0  0.7447592241394699  0.8967921166941666  0.3425738588690256  1.0000
  C   C208      1.0  0.7513424423188544  0.8765444617406872  0.3360306199096433  1.0000
  C   C209      1.0  0.7188247677852153  0.858833210396643  0.31945684652577655  1.0000
  C   C210      1.0  0.6796747575341001  0.8612102350877595  0.3095963418261672  1.0000
  H   H137      1.0  0.700005592959991  0.9145366089062433  0.3382890447790572  1.0000
  H   H138      1.0  0.7696319067433117  0.9105367979391782  0.3553201657572672  1.0000
  H   H139      1.0  0.7235599888481079  0.8430504248271747  0.31442456713286354  1.0000
  H   H140      1.0  0.6544894901009802  0.847318325608494  0.29704781558526766  1.0000
  C   C211      1.0  0.7424091495989644  0.8819149958799904  0.14898369562585928  1.0000
  C   C212      1.0  0.7127542471397647  0.886978864749637  0.13370255938939263  1.0000
  C   C213      1.0  0.6700221503291589  0.8873649266160359  0.14410832429348577  1.0000
  C   C214      1.0  0.6567006317472261  0.8826594636396464  0.16981925667631434  1.0000
  C   C215      1.0  0.6878657468627378  0.8788282530625154  0.18518587873249076  1.0000
  C   C216      1.0  0.7302823673953486  0.8781576419546004  0.1747711338306278  1.0000
  H   H141      1.0  0.7150541042019439  0.42424042182052946  0.17645848050710225  1.0000
  H   H142      1.0  0.6463027996657967  0.8905387001434889  0.13212043457604283  1.0000
  H   H143      1.0  0.6792440315865704  0.8762486196244598  0.20506927359272648  1.0000
  H   H144      1.0  0.7531385577545773  0.8742038101493749  0.18664384360326325  1.0000
  C   C217      1.0  0.34290218327229366  0.7060350193684637  0.22352010685810214  1.0000
  C   C218      1.0  0.35633593830562954  0.7021261265950299  0.24686403848155897  1.0000
  C   C219      1.0  0.4048958245995784  0.7209184955980575  0.2547847605614006  1.0000
  C   C220      1.0  0.4393268199530796  0.7441216762059845  0.23982842496531878  1.0000
  C   C221      1.0  0.4252317281988623  0.7483239091081851  0.21674914709915968  1.0000
  C   C222      1.0  0.37753282873654076  0.7291182701389907  0.20845650313445874  1.0000
  H   H145      1.0  0.3300624532254749  0.6842616424874001  0.2585251406269285  1.0000
  H   H146      1.0  0.41575123372537925  0.7174621214868142  0.27256661261422127  1.0000
  H   H147      1.0  0.45148216132930163  0.7660661349605296  0.2050170823195223  1.0000
  H   H148      1.0  0.36728959809892314  0.7322253772541382  0.19038734495461906  1.0000
  C   C223      1.0  0.11911114962643041  0.7098614573359794  0.2808655069524541  1.0000
  C   C224      1.0  0.08971466595753505  0.7003676546909398  0.2605568241672594  1.0000
  C   C225      1.0  0.07238192896550677  0.7150010777868847  0.24863376132384815  1.0000
  C   C226      1.0  0.08558204452505655  0.7394988589127356  0.25647779903202106  1.0000
  C   C227      1.0  0.11670921400592515  0.7494823783110237  0.2762094315994147  1.0000
  C   C228      1.0  0.13264619334406264  0.7344561771780086  0.2886488229018105  1.0000
  H   H149      1.0  0.07884605538825444  0.6813581431650929  0.2545483812764433  1.0000
  H   H150      1.0  0.04816062880464475  0.7071607980377415  0.23342184124454388  1.0000
  H   H151      1.0  0.12763427137613223  0.7684737848086619  0.2822288897694048  1.0000
  H   H152      1.0  0.15540227735152592  0.7418653856866984  0.3043867457781009  1.0000
  C   C229      1.0  0.11073970869770672  0.5645739094313749  0.3293573195596457  1.0000
  C   C230      1.0  0.07379687528168392  0.570635008262347  0.3363091237143178  1.0000
  C   C231      1.0  0.02483819987636894  0.5510466792251829  0.34777491423206935  1.0000
  C   C232      1.0  0.012309181954259932  0.5252234271744671  0.3522488225200858  1.0000
  C   C233      1.0  0.049818040856198245  0.519265492017404  0.3461440903829955  1.0000
  C   C234      1.0  0.09912491263927195  0.5389898564855302  0.3348322818350461  1.0000
  H   H153      1.0  0.0829961907835624  0.5904639856142181  0.33291025425442405  1.0000
  H   H154      1.0  0.9962231983257515  0.5558347957789522  0.3527939641097996  1.0000
  H   H155      1.0  0.040519653137818246  0.4993972236003998  0.3496663007377014  1.0000
  H   H156      1.0  0.1277411212576999  0.5342512992149798  0.3296488543431046  1.0000
  C   C235      1.0  0.042135765987569795  0.5612628990468651  0.20763264934901957  1.0000
  C   C236      1.0  0.00868019157992227  0.5469061924712081  0.18966230339554566  1.0000
  C   C237      1.0  0.0141700536589927  0.5282370851508226  0.17750444467875956  1.0000
  C   C238      1.0  0.053507079432352035  0.5240475946868933  0.18315488194467555  1.0000
  C   C239      1.0  0.08590989295050365  0.5378721160166496  0.20159097383031063  1.0000
  C   C240      1.0  0.07983693593038767  0.5561442544579518  0.21395528685541038  1.0000
  H   H157      1.0  0.9789546171791574  0.5505019574038329  0.18481848577424131  1.0000
  H   H158      1.0  0.9889029280853433  0.51761253394385  0.16331797602341702  1.0000
  H   H159      1.0  0.11597011543720764  0.5344597597862566  0.20626689790811645  1.0000
  H   H160      1.0  0.10432823731907509  0.5661082541887361  0.2284287279750249  1.0000
  N   N1        1.0  0.898062998274615  0.21400691008566985  0.7351018337798708  1.0000
  C   C241      1.0  0.8796053501479797  0.18993281280068564  0.7219920976534371  1.0000
  C   C242      1.0  0.9045276727877332  0.20888446293618723  0.7611842272075795  1.0000
  C   C243      1.0  0.8595571907836288  0.2216890458587346  0.7345330103286402  1.0000
  C   C244      1.0  0.9484701986071655  0.23552069186876978  0.7227303073040295  1.0000
  H   H161      1.0  0.8729744106013303  0.19273065314640858  0.7024043743751418  1.0000
  H   H162      1.0  0.8421125453740862  0.17322450798554767  0.7311454647837001  1.0000
  H   H163      1.0  0.9078464153299419  0.18363259703029922  0.7218167237887597  1.0000
  H   H164      1.0  0.9339646672801785  0.20347711790322998  0.7624117721743975  1.0000
  H   H165      1.0  0.916671781965473  0.22629513080233465  0.7719392615434666  1.0000
  H   H166      1.0  0.8673833995183834  0.19235001389317574  0.7708761813904531  1.0000
  H   H167      1.0  0.8717422515593884  0.23961977269973067  0.7444907414865797  1.0000
  H   H168      1.0  0.8211686955849622  0.20586020268667804  0.7436627788714945  1.0000
  H   H169      1.0  0.8534998261386995  0.22575809326378793  0.7151952730093002  1.0000
  H   H170      1.0  0.9633069874034017  0.2539654364313475  0.732179573472687  1.0000
  H   H171      1.0  0.9447836689157918  0.23985892585808188  0.7030238527479551  1.0000
  H   H172      1.0  0.9785404038466252  0.23042986627749507  0.7228009204564763  1.0000
  N   N2        1.0  0.03154329758314639  0.3978309503844918  0.26006851454429  1.0000
  C   C245      1.0  0.015277376381854562  0.40333976423663737  0.2840790656809843  1.0000
  C   C246      1.0  0.028287493166936645  0.3725857631309369  0.26307169973748673  1.0000
  C   C247      1.0  0.08582780712134916  0.41908837541848465  0.25196182425850444  1.0000
  C   C248      1.0  0.9969241438521969  0.39624942675414965  0.24120531222993843  1.0000
  H   H173      1.0  0.975186464169843  0.387215735395045  0.29129080283433856  1.0000
  H   H174      1.0  0.016019464534428023  0.42193738318838375  0.28252218110756117  1.0000
  H   H175      1.0  0.04156771550457087  0.4053168847982798  0.29848191931178175  1.0000
  H   H176      1.0  0.040459651041425675  0.3677992158496107  0.2453968411038895  1.0000
  H   H177      1.0  0.05399646321768772  0.37312634901235187  0.2771188893861301  1.0000
  H   H178      1.0  0.9880277381379574  0.3559838261182957  0.2693886045887128  1.0000
  H   H179      1.0  0.09001695721593386  0.43852390101483857  0.24975920841397514  1.0000
  H   H180      1.0  0.09926558880847515  0.4156829373818296  0.23379887057236448  1.0000
  H   H181      1.0  0.11310257218858949  0.4204278035466902  0.2655652830792707  1.0000
  H   H182      1.0  0.008088568319997448  0.39196761547001907  0.2229232787639649  1.0000
  H   H183      1.0  0.9987351145573892  0.41504927955435084  0.2382179156683661  1.0000
  H   H184      1.0  0.9557066799378728  0.3803463415431777  0.2467448720614229  1.0000
  N   N3        1.0  0.7399769130423725  0.37244880006526976  0.8349756771240971  1.0000
  C   C249      1.0  0.7183526405646704  0.34805748290031363  0.8220895870070758  1.0000
  C   C250      1.0  0.7132601961302079  0.38601048376759983  0.8284425875602756  1.0000
  C   C251      1.0  0.7962796328913695  0.3898908136625836  0.8273080050516017  1.0000
  C   C252      1.0  0.7321092738109439  0.3658912617264813  0.8621237501729799  1.0000
  H   H185      1.0  0.7228383282221916  0.35215889026188213  0.8015753711942731  1.0000
  H   H186      1.0  0.6762015881448675  0.3340651482944161  0.8278876055891855  1.0000
  H   H187      1.0  0.7384539487870295  0.33766165556957717  0.8262437751022393  1.0000
  H   H188      1.0  0.7286812970921571  0.4044550463410333  0.8380084006272804  1.0000
  H   H189      1.0  0.7185862146113231  0.39143644279513523  0.8081241185440324  1.0000
  H   H190      1.0  0.67069408431042  0.3734288452323932  0.8340134936784187  1.0000
  H   H191      1.0  0.8138064092446778  0.4086375727744991  0.8363774368810969  1.0000
  H   H192      1.0  0.8039753663942643  0.39478311466390303  0.806891577020124  1.0000
  H   H193      1.0  0.8178278144084119  0.38060130640622303  0.8326102473365373  1.0000
  H   H194      1.0  0.7520960871451361  0.355811300193104  0.8677785980816408  1.0000
  H   H195      1.0  0.6901146403249059  0.3526220055704787  0.8686032438918024  1.0000
  H   H196      1.0  0.7477819537366825  0.38390296961741255  0.8723956345348305  1.0000
  N   N4        1.0  0.6018603703996801  0.6649469123792258  0.8325925226106667  1.0000
  C   C253      1.0  0.5653466194193312  0.6381710758873911  0.8252843084922444  1.0000
  C   C254      1.0  0.6147452944370462  0.6842265774161478  0.8114492721143068  1.0000
  C   C255      1.0  0.650120952251646  0.6671640694845884  0.8396196060355929  1.0000
  C   C256      1.0  0.5775302559716017  0.6704396903828216  0.8538329042417755  1.0000
  H   H197      1.0  0.554209700101437  0.6230071295218604  0.8408247729986955  1.0000
  H   H198      1.0  0.5829718093214947  0.6334977172586167  0.8093556894255998  1.0000
  H   H199      1.0  0.528950183433936  0.6359956436363137  0.8192891630584379  1.0000
  H   H200      1.0  0.6420210801617676  0.7046971842696337  0.8162322327216126  1.0000
  H   H201      1.0  0.6336771978479396  0.6807617157368591  0.7952281516711347  1.0000
  H   H202      1.0  0.5794029238497224  0.6831376924334556  0.8054390837909567  1.0000
  H   H203      1.0  0.6684872184237821  0.6623112060202041  0.8242037459076529  1.0000
  H   H204      1.0  0.6423933183002395  0.653582617146011  0.85610465284292  1.0000
  H   H205      1.0  0.6795049164224815  0.687552674985079  0.8440771639001368  1.0000
  H   H206      1.0  0.6043770365104046  0.6906173150793102  0.8595730175779347  1.0000
  H   H207      1.0  0.5672753925245494  0.6562982278525303  0.8702198797035748  1.0000
  H   H208      1.0  0.5411963381401246  0.6690948045966947  0.8490308975702635  1.0000
  N   N5        1.0  0.9049184510999052  0.996349251902423  0.7112173561361088  1.0000
  C   C257      1.0  0.9034517188801315  0.9850046781690811  0.7362015293556604  1.0000
  C   C258      1.0  0.9552596727662478  0.0215787165457344  0.7055124374301651  1.0000
  C   C259      1.0  0.8618480508791821  0.0008398694222637726  0.7105810419658481  1.0000
  C   C260      1.0  0.8993428735227352  0.9780049244023947  0.6925535725990607  1.0000
  H   H209      1.0  0.9356332786797689  0.9815161747504834  0.7373673837375109  1.0000
  H   H210      1.0  0.8660962350941002  0.965878268601596  0.7410963350933046  1.0000
  H   H211      1.0  0.9074153948836554  0.9983133354854149  0.7507783570616172  1.0000
  H   H212      1.0  0.9577169181571801  0.03067082262461107  0.686762137193338  1.0000
  H   H213      1.0  0.9609854037489745  0.035901161612351684  0.7192847205562273  1.0000
  H   H214      1.0  0.9886057598682738  0.018835352040025732  0.705632941124404  1.0000
  H   H215      1.0  0.8232474402096795  0.9821556327431852  0.7145334793209184  1.0000
  H   H216      1.0  0.8619770966967681  0.009599615578763654  0.6920393873610233  1.0000
  H   H217      1.0  0.8645799716652716  0.014430878947327308  0.7246177929212123  1.0000
  H   H218      1.0  0.9011652080614416  0.9861529358992966  0.6734502137540463  1.0000
  H   H219      1.0  0.861568582283871  0.9587836626521952  0.695993708579184  1.0000
  H   H220      1.0  0.9310751794788295  0.9740887651990033  0.6926739022961511  1.0000
  N   N6        1.0  0.4931668098357715  0.40843501733282483  0.2966681476751997  1.0000
  C   C261      1.0  0.5013868767712335  0.43446765372230317  0.30017362432081723  1.0000
  C   C262      1.0  0.5175755886355917  0.4018071283665562  0.31605547160237085  1.0000
  C   C263      1.0  0.5170019993344941  0.4090795878353097  0.27190287241321737  1.0000
  C   C264      1.0  0.4367068272975447  0.3883793977699237  0.2984894947204507  1.0000
  H   H221      1.0  0.543633790318018  0.45004590241207837  0.29883041257846743  1.0000
  H   H222      1.0  0.4839395052390104  0.43471531490297743  0.3186971784981403  1.0000
  H   H223      1.0  0.48324969186712063  0.43994361422093997  0.28582700932212884  1.0000
  H   H224      1.0  0.5117168171116436  0.3821525533439473  0.3140628779697187  1.0000
  H   H225      1.0  0.5604539190294793  0.41615875833366456  0.3149429329463743  1.0000
  H   H226      1.0  0.5010165557213753  0.4013531391081217  0.3350365623029743  1.0000
  H   H227      1.0  0.5109707348267534  0.3896952668991779  0.26852142389627026  1.0000
  H   H228      1.0  0.5597784931308115  0.42363836651704745  0.2699228273674637  1.0000
  H   H229      1.0  0.4995215476300847  0.4139384704220601  0.25672744513780227  1.0000
  H   H230      1.0  0.4172016348500519  0.3921306919802282  0.2835417256750055  1.0000
  H   H231      1.0  0.4169621367305351  0.387762130199835  0.31664598309621944  1.0000
  H   H232      1.0  0.42927522189951417  0.36842227255847426  0.29665317258542856  1.0000
  N   N7        1.0  0.6579458888492006  0.5993328699444619  0.7127378389367834  1.0000
  C   C265      1.0  0.6085024305952011  0.5968745504763249  0.7075903550221643  1.0000
  C   C266      1.0  0.7022031844128448  0.6259754025789935  0.7039019433413735  1.0000
  C   C267      1.0  0.6628570867521706  0.5796120261687927  0.6997462944609498  1.0000
  C   C268      1.0  0.6582536256691354  0.5948216387454146  0.73975637989239  1.0000
  H   H233      1.0  0.5741501904771958  0.5772264952930265  0.7146586305372898  1.0000
  H   H234      1.0  0.6063287560313766  0.5995459426421654  0.6873368228975102  1.0000
  H   H235      1.0  0.6044107524271868  0.611987465131473  0.7165819050851151  1.0000
  H   H236      1.0  0.7005597172345113  0.6413842791149142  0.7137767163665364  1.0000
  H   H237      1.0  0.7401233234660455  0.6282970947204995  0.7070403099177056  1.0000
  H   H238      1.0  0.7026667277119765  0.6302893787519901  0.6836845556476442  1.0000
  H   H239      1.0  0.6310638650215558  0.5592423831531705  0.7066144409817843  1.0000
  H   H240      1.0  0.7006566935669819  0.5815796523876944  0.7025943666943656  1.0000
  H   H241      1.0  0.6613395161817319  0.5819223121850889  0.6793706831257245  1.0000
  H   H242      1.0  0.6930817298916333  0.5945381130596946  0.744159947681613  1.0000
  H   H243      1.0  0.6235507210171629  0.5756774744156332  0.7473230087634464  1.0000
  H   H244      1.0  0.6580987092012851  0.6103391359201513  0.7500805581000041  1.0000
  N   N8        1.0  0.96723559537567  0.5180838517986409  0.27894318603011137  1.0000
  C   C269      1.0  0.9408128419782172  0.5280576453656433  0.2942380202249039  1.0000
  C   C270      1.0  0.9482521491375829  0.5140043451781287  0.25394713530015406  1.0000
  C   C271      1.0  0.9559993227450895  0.4929439979459463  0.29091983938160837  1.0000
  C   C272      1.0  0.024012464754208655  0.5374339346745634  0.27669658604240915  1.0000
  H   H245      1.0  0.9529745809104417  0.530531423158596  0.3134633973023195  1.0000
  H   H246      1.0  0.8977896406326029  0.5142730240401655  0.29585597633720434  1.0000
  H   H247      1.0  0.9500732996589543  0.5475211633134092  0.2862573171205769  1.0000
  H   H248      1.0  0.9058448184708277  0.49890879031589414  0.2547860474762431  1.0000
  H   H249      1.0  0.9546133610378579  0.5324894497013529  0.24486514385580802  1.0000
  H   H250      1.0  0.9689985021874419  0.5075887573099302  0.24150457631384142  1.0000
  H   H251      1.0  0.9134161093419224  0.4780173829304935  0.2934965593589602  1.0000
  H   H252      1.0  0.9704865287538805  0.49551832382933964  0.30971218112007126  1.0000
  H   H253      1.0  0.9750202150902678  0.48474499898229595  0.279820649591996  1.0000
  H   H254      1.0  0.04538905017817499  0.5306428263077927  0.26530581518363006  1.0000
  H   H255      1.0  0.03957334502834082  0.5409157822829113  0.2951577972207384  1.0000
  H   H256      1.0  0.03400307016518418  0.5567484593510177  0.267971654272041  1.0000
  N   N9        1.0  0.9497547207024963  0.08812169548404562  0.34668635670004366  1.0000
  C   C273      1.0  0.0067999100483979264  0.10150409835813684  0.3470638048881565  1.0000
  C   C274      1.0  0.9378646787173697  0.10183940385639798  0.32753866293282136  1.0000
  C   C275      1.0  0.9267907474931407  0.08852725893914322  0.3712995581841594  1.0000
  C   C276      1.0  0.927628241204446  0.06058854173180958  0.3409194561697687  1.0000
  H   H257      1.0  0.017208195591453933  0.09158618545822078  0.361211622808395  1.0000
  H   H258      1.0  0.025019970517319697  0.12236145503166378  0.3512638943263275  1.0000
  H   H259      1.0  0.02546218100425275  0.1015209002850881  0.328825660280989  1.0000
  H   H260      1.0  0.8952050396587327  0.0926877496800908  0.3270037508957247  1.0000
  H   H261      1.0  0.9553364358855594  0.12292746745875856  0.3307835164617679  1.0000
  H   H262      1.0  0.9536471095990499  0.10141244316285035  0.3086603803573809  1.0000
  H   H263      1.0  0.9425896263665973  0.1090129750140439  0.376243005103666  1.0000
  H   H264      1.0  0.9352396110403463  0.07834120031988628  0.38613449743706935  1.0000
  H   H265      1.0  0.8837057485277274  0.07844803604955237  0.37174337686890757  1.0000
  H   H266      1.0  0.8847828689562754  0.049958503702617764  0.3399433195834226  1.0000
  H   H267      1.0  0.9348401997944562  0.04949083016491055  0.3553434254946696  1.0000
  H   H268      1.0  0.9451714614114914  0.0594742609379379  0.32278295103628324  1.0000
  N   N10       1.0  0.9725624084448418  0.7431959826611019  0.31050636787908137  1.0000
  C   C277      1.0  0.9706043477083903  0.718800068383499  0.3055987194108441  1.0000
  C   C278      1.0  0.9444680726248824  0.7397490674529933  0.33490159005088965  1.0000
  C   C279      1.0  0.948118807286752  0.7493967973086738  0.29082334302103174  1.0000
  C   C280      1.0  0.02735865471751353  0.7650317465774713  0.31061677494175494  1.0000
  H   H269      1.0  0.990043105137576  0.7138770545972769  0.31966196519979695  1.0000
  H   H270      1.0  0.9908186413448684  0.7207513532152213  0.2870877461425357  1.0000
  H   H271      1.0  0.9298199217920414  0.7017778064420054  0.30567761711947533  1.0000
  H   H272      1.0  0.9457120400996304  0.7579936064965765  0.3390604902462225  1.0000
  H   H273      1.0  0.9028177644511513  0.7235125307621665  0.33550302642737817  1.0000
  H   H274      1.0  0.9620605071059901  0.7351031421376206  0.35015487790146366  1.0000
  H   H275      1.0  0.9064846786872622  0.7335504588628242  0.290332814187923  1.0000
  H   H276      1.0  0.9681036828765313  0.7517691773846258  0.27211566633119383  1.0000
  H   H277      1.0  0.950116601184532  0.7680801594418786  0.2936266253195059  1.0000
  H   H278      1.0  0.03043796984366165  0.7837704345084214  0.3144415514904278  1.0000
  H   H279      1.0  0.049171698031132305  0.7683647826560626  0.2923308955942821  1.0000
  H   H280      1.0  0.047644131492591946  0.760969563173508  0.3248643911694179  1.0000
  N   N11       1.0  0.19696575603435632  0.61914728427307  0.16684651662255717  1.0000
  C   C281      1.0  0.1652852542325905  0.6276312651564068  0.17992628417216164  1.0000
  C   C282      1.0  0.1635806499621141  0.597235846688076  0.15180891291629636  1.0000
  C   C283      1.0  0.21979231835718144  0.6103316016010455  0.18519637158970353  1.0000
  C   C284      1.0  0.2392917310638943  0.6414895469794729  0.15054773944102862  1.0000
  H   H281      1.0  0.18938296484600456  0.6445024286228391  0.19103227466237127  1.0000
  H   H282      1.0  0.13396082947451865  0.6115524326621642  0.19293633764694318  1.0000
  H   H283      1.0  0.14619880674872665  0.6337453595856488  0.1667730974577872  1.0000
  H   H284      1.0  0.14625081691402098  0.6032532270173397  0.1375196671492754  1.0000
  H   H285      1.0  0.18574144416041397  0.5897964107500299  0.1421389928374762  1.0000
  H   H286      1.0  0.13061014475796104  0.5803235826914918  0.16357490423912976  1.0000
  H   H287      1.0  0.24456403934850318  0.6041276380176568  0.17598887922944884  1.0000
  H   H288      1.0  0.1890032054250519  0.5932591547894264  0.19762270849057498  1.0000
  H   H289      1.0  0.2445137081195329  0.6262927922743649  0.19716536206360888  1.0000
  H   H290      1.0  0.26396627820290947  0.6358259046587224  0.1402800079749755  1.0000
  H   H291      1.0  0.2651908672487606  0.6582156619711123  0.16155008345967756  1.0000
  H   H292      1.0  0.22356233254267302  0.6488916163199185  0.13665365386104122  1.0000
  N   N12       1.0  0.9530753095831686  0.3824349795442652  0.7340275663738822  1.0000
  C   C285      1.0  0.9758693704760126  0.37876346430610475  0.756041374326396  1.0000
  C   C286      1.0  0.9713447205423731  0.37510914017025154  0.7118023649131411  1.0000
  C   C287      1.0  0.969427550206928  0.41027233928011564  0.7303102513030774  1.0000
  C   C288      1.0  0.8956603816394498  0.36560864839408747  0.7378977640491117  1.0000
  H   H293      1.0  0.9632066056806503  0.3843317825968761  0.7731502711134812  1.0000
  H   H294      1.0  0.019204853981341863  0.3910947733609184  0.7536433078045829  1.0000
  H   H295      1.0  0.9640067889997058  0.3579184812143471  0.7595161847440407  1.0000
  H   H296      1.0  0.95901702982903  0.3540974423540516  0.7137012494910409  1.0000
  H   H297      1.0  0.9555657677565251  0.37815596890248165  0.6947869071421487  1.0000
  H   H298      1.0  0.014567789641009465  0.38738503130209906  0.7082629051607633  1.0000
  H   H299      1.0  0.9564467270953783  0.416577035731239  0.7466714141746471  1.0000
  H   H300      1.0  0.9533744971874213  0.4138032591937751  0.7136630886447421  1.0000
  H   H301      1.0  0.012624534222036798  0.42347867496184505  0.7271574969753067  1.0000
  H   H302      1.0  0.8773172256849698  0.3677483300755998  0.7214758661322354  1.0000
  H   H303      1.0  0.8803675106313734  0.3706091848328634  0.7544446173940758  1.0000
  H   H304      1.0  0.8821112335625042  0.34445608107100656  0.7408566464322308  1.0000
  N   N13       1.0  0.5651295269136366  0.07503742260049018  0.7357151505464316  1.0000
  C   C289      1.0  0.5902938303877378  0.06054433274079685  0.7293830684805948  1.0000
  C   C290      1.0  0.5858429189913779  0.0889785681775328  0.7581935065261504  1.0000
  C   C291      1.0  0.5082641149787163  0.056379685580456806  0.7404516089250528  1.0000
  C   C292      1.0  0.5759240750745193  0.09427302900893686  0.7148121183299514  1.0000
  H   H305      1.0  0.6333212892592603  0.07400518637040543  0.7255386770835065  1.0000
  H   H306      1.0  0.5752383482401938  0.04963699981244263  0.7125859401654743  1.0000
  H   H307      1.0  0.5829310049663339  0.04581406654325115  0.7447352480097327  1.0000
  H   H308      1.0  0.6287355253079128  0.10313300831984673  0.7553495013680983  1.0000
  H   H309      1.0  0.5678235430968087  0.1002358162884931  0.7633710810502647  1.0000
  H   H310      1.0  0.5779940683630489  0.07500567443388384  0.7743671175160556  1.0000
  H   H311      1.0  0.4984578245681879  0.04164322574922652  0.7562149281397449  1.0000
  H   H312      1.0  0.4913186733021658  0.04540049501100363  0.7238985690092237  1.0000
  H   H313      1.0  0.4880095571523968  0.06666768948186874  0.7450860802618101  1.0000
  H   H314      1.0  0.5576839227287597  0.10564274905416382  0.7190714003772054  1.0000
  H   H315      1.0  0.560230720975237  0.08431104982339899  0.6976292279747273  1.0000
  H   H316      1.0  0.6185178473671267  0.10855836175622446  0.7105801965777608  1.0000
  N   N14       1.0  0.9900921168985781  0.38803088023772825  0.447175833027113  1.0000
  C   C293      1.0  0.0034380994106038465  0.4146844350057258  0.4390182730178208  1.0000
  C   C294      1.0  0.9480911274236394  0.3686553434878687  0.43292015578335014  1.0000
  C   C295      1.0  0.972118276605833  0.38238259977610856  0.4739381476384331  1.0000
  C   C296      1.0  0.03659473103590374  0.3865270077333964  0.44267680106946017  1.0000
  H   H317      1.0  0.033920832964785985  0.4298680432434988  0.44980538104663575  1.0000
  H   H318      1.0  0.9687828540454121  0.4161957414316272  0.4414766313159582  1.0000
  H   H319      1.0  0.018163476344052118  0.41987478131555406  0.41902014492669193  1.0000
  H   H320      1.0  0.912062990858197  0.3689770679904976  0.4363144636922801  1.0000
  H   H321      1.0  0.9598665892583804  0.37280512913370956  0.41254583657766575  1.0000
  H   H322      1.0  0.9376018777858985  0.34831358995815287  0.43816800365983727  1.0000
  H   H323      1.0  0.9620116680139151  0.36248995786126076  0.4808747214245842  1.0000
  H   H324      1.0  0.9366839510564067  0.38317158264383105  0.47768082671392303  1.0000
  H   H325      1.0  0.0023370236568174075  0.3969818094187174  0.48526924030268503  1.0000
  H   H326      1.0  0.028049527125801565  0.3666498877860134  0.4485408166688186  1.0000
  H   H327      1.0  0.06919071599893929  0.40105012787427186  0.4530086706920581  1.0000
  H   H328      1.0  0.050720342835549055  0.39075232858167275  0.4225380546497162  1.0000
  N   N15       1.0  0.11323630279193289  0.9413718193986892  0.7021715631596395  1.0000
  C   C297      1.0  0.10710514167937665  0.957498459761448  0.7201782487122774  1.0000
  C   C298      1.0  0.14127302468701672  0.9301492572604474  0.7130603496273308  1.0000
  C   C299      1.0  0.1432412419565603  0.9579733503515132  0.679182839399439  1.0000
  C   C300      1.0  0.06136886813730489  0.9198956788251614  0.6962145479726712  1.0000
  H   H329      1.0  0.0845439064024231  0.9655520220793546  0.7128920790972241  1.0000
  H   H330      1.0  0.14562969979817636  0.9744140228683615  0.7244091130440167  1.0000
  H   H331      1.0  0.08650424474205731  0.9459033285474157  0.738148491958111  1.0000
  H   H332      1.0  0.14619297103113188  0.9176207179328034  0.700136710378047  1.0000
  H   H333      1.0  0.18074520256576992  0.9458751947560549  0.7174818887152317  1.0000
  H   H334      1.0  0.12040837930220946  0.9179988629724745  0.7307725840807763  1.0000
  H   H335      1.0  0.12235720951408136  0.9661005035649478  0.6701541196162314  1.0000
  H   H336      1.0  0.14977851886369364  0.9466418889247978  0.665378872713965  1.0000
  H   H337      1.0  0.18211548823481238  0.9749240455337429  0.6829744139589847  1.0000
  H   H338      1.0  0.03924235676557352  0.9276664145310488  0.6877467520784611  1.0000
  H   H339      1.0  0.037438777928004846  0.9069199262526615  0.7130531801448121  1.0000
  H   H340      1.0  0.0645500266128781  0.9073569653666966  0.6826067677709938  1.0000
  N   N16       1.0  0.045852786259242606  0.9205200368268665  0.44974842768643875  1.0000
  C   C301      1.0  0.045908273953583434  0.9405083599042973  0.4646471035047297  1.0000
  C   C302      1.0  0.06957824861338979  0.9083207960516012  0.46318793526642965  1.0000
  C   C303      1.0  0.07602215792207989  0.93310837470259  0.4254914784998075  1.0000
  C   C304      1.0  0.991698782744921  0.9001006528023632  0.44568628051683756  1.0000
  H   H341      1.0  0.028152161244914264  0.9500637846792611  0.4550329412709795  1.0000
  H   H342      1.0  0.08606229159236212  0.9562733367120316  0.46818940171637635  1.0000
  H   H343      1.0  0.023089216095262044  0.9316451645300291  0.4830243112761777  1.0000
  H   H344      1.0  0.11042813912347182  0.923203645153675  0.46669721577701867  1.0000
  H   H345      1.0  0.047480295919798854  0.8986006502331961  0.4815410261489529  1.0000
  H   H346      1.0  0.07016186644085898  0.893146992381127  0.45243047396874103  1.0000
  H   H347      1.0  0.07564893808136297  0.91852320438233  0.41340088555326604  1.0000
  H   H348      1.0  0.11733422282485861  0.9483873988338833  0.427711135028593  1.0000
  H   H349      1.0  0.059575428181130485  0.9428521722386557  0.4150342171697294  1.0000
  H   H350      1.0  0.9898467625887458  0.8847113042601095  0.4343531958823568  1.0000
  H   H351      1.0  0.9726664195683585  0.9087028979091006  0.43573586215668536  1.0000
  H   H352      1.0  0.967436423051656  0.8902876154918655  0.4635719199514475  1.0000
  N   N17       1.0  0.20514036203240738  0.2586039201402011  0.2474686114286434  1.0000
  C   C305      1.0  0.19700903296008357  0.2575999780873482  0.22076084860055248  1.0000
  C   C306      1.0  0.1893671210996767  0.275525820962517  0.2586364221681481  1.0000
  C   C307      1.0  0.26082881675127856  0.26949344812012155  0.2503889676632111  1.0000
  C   C308      1.0  0.17330426402076152  0.23177482864223634  0.25995788574721446  1.0000
  H   H353      1.0  0.221255188221945  0.27744405787909127  0.2106725447113113  1.0000
  H   H354      1.0  0.15564477600696133  0.2500672932323669  0.2178666770665548  1.0000
  H   H355      1.0  0.20733734079271407  0.24445784983485638  0.211880923897168  1.0000
  H   H356      1.0  0.1959680445834816  0.2772819820831972  0.27870144878568737  1.0000
  H   H357      1.0  0.21183864869780167  0.2957838959328117  0.24932147308007743  1.0000
  H   H358      1.0  0.1473315132249934  0.26767412422207837  0.25710799178187815  1.0000
  H   H359      1.0  0.28593217564394346  0.28976848788409154  0.24123173638535472  1.0000
  H   H360      1.0  0.27411509164253584  0.2573117060789607  0.2419822406428278  1.0000
  H   H361      1.0  0.26860150190716786  0.27046297912159567  0.2703095046999539  1.0000
  H   H362      1.0  0.17959316654077626  0.23163359023718041  0.28000828612310763  1.0000
  H   H363      1.0  0.18283951235191606  0.2182370477760078  0.2513581142570898  1.0000
  H   H364      1.0  0.13099108859565298  0.22329281138924098  0.2586980705139569  1.0000
  N   N18       1.0  0.2809445699579012  0.15049169588168582  0.2963582457375723  1.0000
  C   C309      1.0  0.2495859143794471  0.12159050993178455  0.2959438497070211  1.0000
  C   C310      1.0  0.29735458780886087  0.1628082800933796  0.2706107864096652  1.0000
  C   C311      1.0  0.3275269607277409  0.1584827284371944  0.3097451245102886  1.0000
  C   C312      1.0  0.24926177296442828  0.15911166733882387  0.30920126186967406  1.0000
  H   H365      1.0  0.23561755306573018  0.11164698272961085  0.315074152866356  1.0000
  H   H366      1.0  0.27215694112735905  0.11421706305688509  0.2866191111419338  1.0000
  H   H367      1.0  0.2142041250491372  0.11500253221236513  0.28593528124765716  1.0000
  H   H368      1.0  0.3198938858120899  0.1560918004614309  0.2600914248458839  1.0000
  H   H369      1.0  0.2632439492560603  0.15808296784417442  0.2601764869355782  1.0000
  H   H370      1.0  0.32265390713167885  0.18460235837456204  0.27024304778542524  1.0000
  H   H371      1.0  0.35198414507935283  0.1802516641179041  0.31033305177897647  1.0000
  H   H372      1.0  0.3524301211618414  0.1523132313578497  0.30060058923495275  1.0000
  H   H373      1.0  0.3165288528335548  0.14963782420404084  0.32928384152520784  1.0000
  H   H374      1.0  0.23412306870473729  0.1492151986362859  0.32829208632718765  1.0000
  H   H375      1.0  0.2148209472769368  0.15431966518876494  0.29908411270279317  1.0000
  H   H376      1.0  0.272239598707116  0.18063935323826197  0.31089207438510086  1.0000
  N   N19       1.0  0.6685657505670944  0.25078212275310147  0.6753296477475198  1.0000
  C   C313      1.0  0.7047780949159658  0.24352968752822302  0.6838673979270147  1.0000
  C   C314      1.0  0.6959973745320861  0.2725342967669158  0.6555432830037722  1.0000
  C   C315      1.0  0.6495712163340297  0.25920703455184585  0.6964078660347967  1.0000
  C   C316      1.0  0.6237965945656345  0.22776363107229725  0.6655578091853221  1.0000
  H   H377      1.0  0.7384848097562559  0.2601807999481799  0.6919209649176145  1.0000
  H   H378      1.0  0.7205517681561023  0.23745830181729635  0.6683942305470514  1.0000
  H   H379      1.0  0.6849826511246487  0.22684926551058301  0.6984533044933198  1.0000
  H   H380      1.0  0.7307044072092268  0.2899967790484359  0.6621421341805385  1.0000
  H   H381      1.0  0.7100061080291422  0.2667068289972876  0.6391485144589466  1.0000
  H   H382      1.0  0.670320538675723  0.27902318204424903  0.649053106166329  1.0000
  H   H383      1.0  0.6289257700817151  0.2432712716952839  0.7117314270627818  1.0000
  H   H384      1.0  0.621861474048328  0.2646528846516093  0.6906939519579904  1.0000
  H   H385      1.0  0.6821551671723137  0.27652011340401805  0.7042761376480311  1.0000
  H   H386      1.0  0.602095588384618  0.21107912856254452  0.6801645284768373  1.0000
  H   H387      1.0  0.6365575771828103  0.22059625769927985  0.649821040767296  1.0000
  H   H388      1.0  0.5956520361814633  0.23249157398329545  0.6588796397396469  1.0000
  N   N20       1.0  0.6040944846776172  0.7963714145901007  0.18498587522010704  1.0000
  C   C317      1.0  0.6384130682998642  0.8061563233328857  0.16154379437298003  1.0000
  C   C318      1.0  0.569851266882811  0.8067292537010617  0.18536558630743466  1.0000
  C   C319      1.0  0.6361331675510942  0.8052352961526523  0.2063013571694322  1.0000
  C   C320      1.0  0.5718202141168633  0.7673411481065202  0.1868293461202127  1.0000
  H   H389      1.0  0.6657524929777993  0.7992812076677348  0.16079037044162883  1.0000
  H   H390      1.0  0.6625876297085798  0.8279965618803894  0.15938565543695316  1.0000
  H   H391      1.0  0.615600477619579  0.7996062657982916  0.14506803754867417  1.0000
  H   H392      1.0  0.5439734200127299  0.7999424006988572  0.2029237160537866  1.0000
  H   H393      1.0  0.5927214126612844  0.8285598218698725  0.18397143849517164  1.0000
  H   H394      1.0  0.5447346231962503  0.8003371626275317  0.16969057984297442  1.0000
  H   H395      1.0  0.6113124051257188  0.7980273307855128  0.22430288637643322  1.0000
  H   H396      1.0  0.6606296697312517  0.8270477531012886  0.2056626157719801  1.0000
  H   H397      1.0  0.6627167395124347  0.7979297406672722  0.2065629965592026  1.0000
  H   H398      1.0  0.5456336439026405  0.7593784557705856  0.20441044789944005  1.0000
  H   H399      1.0  0.5963477603790565  0.7588182501937565  0.18661634766642154  1.0000
  H   H400      1.0  0.546648757095878  0.7599037079495323  0.17121854510129123  1.0000
  N   N21       1.0  0.915309030245587  0.8833529577544937  0.2973125299674563  1.0000
  C   C321      1.0  0.9114112302235337  0.868625212518486  0.2755031049602454  1.0000
  C   C322      1.0  0.9705368356344866  0.9037884396736502  0.29944505761838053  1.0000
  C   C323      1.0  0.8941003092089989  0.8651061642746021  0.3200098202711991  1.0000
  C   C324      1.0  0.8851949304511287  0.8958203654708881  0.29431955307795193  1.0000
  H   H401      1.0  0.8702190388028971  0.8529711238650249  0.2734413407928987  1.0000
  H   H402      1.0  0.9338159408297906  0.8589965157383441  0.2771677117237001  1.0000
  H   H403      1.0  0.927098804001349  0.8817899593268934  0.25801720475993933  1.0000
  H   H404      1.0  0.9751886340814693  0.9148168891021096  0.31615267614008297  1.0000
  H   H405      1.0  0.9944200456278345  0.8950132409897317  0.30118000502987674  1.0000
  H   H406      1.0  0.9876438152382965  0.9183241796954807  0.28294798484529693  1.0000
  H   H407      1.0  0.9142281579965323  0.854434161555546  0.32226562675192105  1.0000
  H   H408      1.0  0.8517506349609618  0.8502000435753272  0.31969659396367545  1.0000
  H   H409      1.0  0.8985031935660235  0.875749672931726  0.33696174344442287  1.0000
  H   H410      1.0  0.8873128699530748  0.9070818206319006  0.31045646549711925  1.0000
  H   H411      1.0  0.8430889461909553  0.880909007085167  0.29316919795046076  1.0000
  H   H412      1.0  0.8997829071007731  0.9096421171576211  0.2773358956301176  1.0000
  N   N22       1.0  0.9006933682224757  0.8583882792740577  0.9370014724847932  1.0000
  C   C325      1.0  0.860393451696791  0.8615511150852628  0.9266564993425515  1.0000
  C   C326      1.0  0.9351803099830432  0.8816064093456342  0.9503722317761099  1.0000
  C   C327      1.0  0.9316736785499737  0.8559405132997446  0.9165618574777182  1.0000
  C   C328      1.0  0.8754023229133089  0.83452779740149  0.9543832490428285  1.0000
  H   H413      1.0  0.8360668057146363  0.8634512361724351  0.9414939997829354  1.0000
  H   H414      1.0  0.8342054035191849  0.8447887048898162  0.9158668320915279  1.0000
  H   H415      1.0  0.8784090575777534  0.8796828562746206  0.913946779735921  1.0000
  H   H416      1.0  0.9662627177009605  0.880088956400145  0.9584863831802346  1.0000
  H   H417      1.0  0.9545793228067319  0.8999654260502398  0.9377557128906183  1.0000
  H   H418      1.0  0.9129648205454679  0.8841844809375933  0.9658104812466618  1.0000
  H   H419      1.0  0.9622294186529042  0.8532584923950519  0.9235851577704621  1.0000
  H   H420      1.0  0.9516647145182355  0.8737549919377207  0.9032194175002408  1.0000
  H   H421      1.0  0.9067436431693885  0.8390057373577746  0.905618639126163  1.0000
  H   H422      1.0  0.8490083374798069  0.8166887967563411  0.944831150272812  1.0000
  H   H423      1.0  0.8517195437113371  0.8358523212460013  0.9699832688225434  1.0000
  H   H424      1.0  0.90472916177387  0.8315757708186498  0.9625991564130364  1.0000
  N   N23       1.0  0.11301923841143649  0.026280886656583027  0.1611387670298508  1.0000
  C   C329      1.0  0.06477588699845899  0.010130294774882767  0.14889387185457992  1.0000
  C   C330      1.0  0.12938485680701034  0.009169357478722552  0.17173839789109221  1.0000
  C   C331      1.0  0.10348276549236471  0.039504113368726834  0.18118231300698792  1.0000
  C   C332      1.0  0.15428037814040596  0.04622907885305109  0.14262231978184703  1.0000
  H   H425      1.0  0.032780046441577865  0.9945960509552572  0.16217342218924724  1.0000
  H   H426      1.0  0.07090423451109396  0.9999016624117569  0.13375068811396829  1.0000
  H   H427      1.0  0.050888581903608586  0.022206864623672516  0.1405927606905911  1.0000
  H   H428      1.0  0.1652925159716996  0.02050811420361913  0.18145674532351105  1.0000
  H   H429      1.0  0.09832323027382636  0.9934859616930555  0.18530543410700664  1.0000
  H   H430      1.0  0.13700748819047498  0.998942822540691  0.15703589986103128  1.0000
  H   H431      1.0  0.1390859204627824  0.0520883702435343  0.19074906469623934  1.0000
  H   H432      1.0  0.07273029769572203  0.025042199200029196  0.1955804927761787  1.0000
  H   H433      1.0  0.09038215025426752  0.052311722465539355  0.17386395236679575  1.0000
  H   H434      1.0  0.1913982474403228  0.058813637404405227  0.15114170907157146  1.0000
  H   H435      1.0  0.14277079164117792  0.059338874455942006  0.13427245913432923  1.0000
  H   H436      1.0  0.16214271090209934  0.0368564846118032  0.12714709639455155  1.0000
  N   N24       1.0  0.6794760152012703  0.9794247143093932  0.8206742553899408  1.0000
  C   C333      1.0  0.7255601742168739  0.9835100411765016  0.8325128585280358  1.0000
  C   C334      1.0  0.6832247594631349  0.9740460327998393  0.7945489623047325  1.0000
  C   C335      1.0  0.6776357151301982  0.0033340895340490118  0.8215090107456307  1.0000
  C   C336      1.0  0.6315483153676356  0.9568579993112261  0.8338590530319911  1.0000
  H   H437      1.0  0.7236271528426902  0.9869858603047991  0.8524578825940807  1.0000
  H   H438      1.0  0.7622304395518771  0.000851803147602137  0.8232712523573111  1.0000
  H   H439      1.0  0.7294617850191957  0.9662640684000229  0.8312906234973625  1.0000
  H   H440      1.0  0.6492007256735597  0.9708724558561671  0.7849064534695228  1.0000
  H   H441      1.0  0.7188046985588459  0.9908382087179992  0.7841875672770594  1.0000
  H   H442      1.0  0.6851235503019625  0.9562703556883358  0.793003500176731  1.0000
  H   H443      1.0  0.6445238773697822  0.0012933188786212746  0.8117411881551899  1.0000
  H   H444      1.0  0.7139874009212915  0.02082072355297626  0.8122335757895346  1.0000
  H   H445      1.0  0.6732624230852818  0.007689112052855052  0.8409372296442185  1.0000
  H   H446      1.0  0.6272060188597901  0.9602229159138187  0.8536633882752088  1.0000
  H   H447      1.0  0.631808001854137  0.9385229763312696  0.833440999801435  1.0000
  H   H448      1.0  0.5962830373792318  0.9532983392161904  0.8251259074969701  1.0000
  N   N25       1.0  0.8395184473246542  0.848958203853688  0.7688200013288118  1.0000
  C   C337      1.0  0.8376314212272683  0.824244172144411  0.773825928263533  1.0000
  C   C338      1.0  0.7909620325411721  0.8430693215230419  0.758376383709014  1.0000
  C   C339      1.0  0.8845293692501218  0.866713543581194  0.7507536963744552  1.0000
  C   C340      1.0  0.844894066156622  0.8616842939410514  0.7922321986685195  1.0000
  H   H449      1.0  0.8733985722762628  0.8277933149214954  0.7819318197917743  1.0000
  H   H450      1.0  0.8340018539973361  0.8143089380210607  0.7564670092350924  1.0000
  H   H451      1.0  0.8037385009943633  0.8101495787964629  0.7871232306000708  1.0000
  H   H452      1.0  0.7908574421884652  0.8612453019903922  0.7543826354492136  1.0000
  H   H453      1.0  0.7858194053684636  0.8334370419553129  0.7406795119453622  1.0000
  H   H454      1.0  0.7561527420209408  0.829470106163923  0.7714084343796672  1.0000
  H   H455      1.0  0.9217968708789792  0.8714854932919313  0.7580336607863863  1.0000
  H   H456      1.0  0.8870505878216224  0.8855387567757181  0.7464295228977716  1.0000
  H   H457      1.0  0.8816203493879677  0.8576050260824651  0.7328922938608589  1.0000
  H   H458      1.0  0.88106151469282  0.8662711715814893  0.8006946708825355  1.0000
  H   H459      1.0  0.8115747419408429  0.8487607111365368  0.8062659221130662  1.0000
  H   H460      1.0  0.8463823219879383  0.8804360210958513  0.789235000552965  1.0000
  N   N26       1.0  0.08186067979078884  0.31023480336909776  0.15813464076661338  1.0000
  C   C341      1.0  0.03486843728770848  0.29704481626019935  0.17593419921742193  1.0000
  C   C342      1.0  0.11407534916108701  0.2992506495385373  0.162891468752394  1.0000
  C   C343      1.0  0.11232928708438324  0.33871958728294654  0.16124345890090347  1.0000
  C   C344      1.0  0.06609783970395071  0.3059064044493954  0.1325494983674354  1.0000
  H   H461      1.0  0.009761242817896644  0.3049819503373812  0.17318031527973077  1.0000
  H   H462      1.0  0.04548470265585079  0.299639653733597  0.19537694824457136  1.0000
  H   H463      1.0  0.010992712879465948  0.2754661613241571  0.17426041911016113  1.0000
  H   H464      1.0  0.14921752605373892  0.3081667814669679  0.1494127423308806  1.0000
  H   H465      1.0  0.12765208411026827  0.30286043098231846  0.1818620477365522  1.0000
  H   H466      1.0  0.09163027740826887  0.2775642845914533  0.16179320042084067  1.0000
  H   H467      1.0  0.08968203912210965  0.3478441426864358  0.15740442584752387  1.0000
  H   H468      1.0  0.14874643046300876  0.3493118988015014  0.14854492035086744  1.0000
  H   H469      1.0  0.12379603913013046  0.34265486302538695  0.18054003213082004  1.0000
  H   H470      1.0  0.04145705489774956  0.3138744511162611  0.12850703499072103  1.0000
  H   H471      1.0  0.04316604632852894  0.2845883133622975  0.12958782332761679  1.0000
  H   H472      1.0  0.10057963677546829  0.3157366221776224  0.11859017750416367  1.0000
  N   N27       1.0  0.8027726455151678  0.922439602023043  0.5703878574668168  1.0000
  C   C345      1.0  0.8035497317641703  0.9254327573340952  0.5430828678342549  1.0000
  C   C346      1.0  0.7919873787678471  0.896115875178529  0.5781014720020032  1.0000
  C   C347      1.0  0.7620025660734224  0.9256249478836704  0.5824305768353758  1.0000
  C   C348      1.0  0.85390886045481  0.9426576818910484  0.5781210722340181  1.0000
  H   H473      1.0  0.8117946099948258  0.9451402479942235  0.5366855734165452  1.0000
  H   H474      1.0  0.7656914596832347  0.9103660034694112  0.53647697660362  1.0000
  H   H475      1.0  0.8343311477152556  0.9233623268295135  0.5335340684924533  1.0000
  H   H476      1.0  0.7912305460964455  0.8933165553918677  0.598674493545817  1.0000
  H   H477      1.0  0.7536963225372677  0.8802622172655976  0.5725689416541195  1.0000
  H   H478      1.0  0.8224052807945902  0.8931848520383614  0.569583211998506  1.0000
  H   H479      1.0  0.7227570957918841  0.9108018859546483  0.576961379327024  1.0000
  H   H480      1.0  0.7694837729733627  0.9454861241660544  0.5774828550224703  1.0000
  H   H481      1.0  0.7604083187476243  0.9232725807355627  0.6030811098492942  1.0000
  H   H482      1.0  0.8546247989326153  0.9405594276496979  0.598531104993331  1.0000
  H   H483      1.0  0.8635596167780958  0.9628869220051278  0.5729687427344723  1.0000
  H   H484      1.0  0.885710602461684  0.9409867810467971  0.5693866606549384  1.0000
  N   N28       1.0  0.7831387045796446  0.9694794401336841  0.15606594594603507  1.0000
  C   C349      1.0  0.7304572581087039  0.9568263236992571  0.16911062725032164  1.0000
  C   C350      1.0  0.8133659698529484  0.9976769063931236  0.16042835718505927  1.0000
  C   C351      1.0  0.7791745115057983  0.9665948586404088  0.12912223205298662  1.0000
  C   C352      1.0  0.8096486839584999  0.956810092886271  0.16558774289246259  1.0000
  H   H485      1.0  0.7319928664944659  0.9580874092915309  0.18954769767197702  1.0000
  H   H486      1.0  0.7062127130070432  0.9356762192226267  0.16590923362496796  1.0000
  H   H487      1.0  0.7094412571047127  0.9660437234888191  0.16259453001326588  1.0000
  H   H488      1.0  0.8188566131120376  0.0006114101287388873  0.1804734177887527  1.0000
  H   H489      1.0  0.8527689971844754  0.008053079080182712  0.1502666189162175  1.0000
  H   H490      1.0  0.7939103022075079  0.007735806807006584  0.15395489238143684  1.0000
  H   H491      1.0  0.7570194787679924  0.9455269199360997  0.12518249321175098  1.0000
  H   H492      1.0  0.8184626071741901  0.9760543849400277  0.11877284435457867  1.0000
  H   H493      1.0  0.7592783594257301  0.9758248778983842  0.12117741426256383  1.0000
  H   H494      1.0  0.8489882354704075  0.9655753813231219  0.15567710552406752  1.0000
  H   H495      1.0  0.7874801905266765  0.9354432093184857  0.16290885274094355  1.0000
  H   H496      1.0  0.8145769978422641  0.9589950332366325  0.18574510536795463  1.0000
  N   N29       1.0  0.9310200317076662  0.6357086420381897  0.7781204627093672  1.0000
  C   C353      1.0  0.9050983325099623  0.650136500488861  0.7827965846481736  1.0000
  C   C354      1.0  0.9149313912391346  0.6226200985697048  0.7548489097643986  1.0000
  C   C355      1.0  0.9159336325494314  0.6157289166583197  0.7990005426279987  1.0000
  C   C356      1.0  0.988079648671419  0.6543583295251957  0.7757835435785357  1.0000
  H   H497      1.0  0.9166716358445304  0.660539267525071  0.8000554120970114  1.0000
  H   H498      1.0  0.8619583780602835  0.6366279467057342  0.7848415264529411  1.0000
  H   H499      1.0  0.915138105934081  0.6651893944274371  0.7672480597587654  1.0000
  H   H500      1.0  0.9328638977969522  0.6110947010453471  0.7509026959034139  1.0000
  H   H501      1.0  0.8720315469443762  0.6087712750744847  0.7557940673129917  1.0000
  H   H502      1.0  0.9259184240987426  0.6370536290496768  0.7385868717278535  1.0000
  H   H503      1.0  0.927101577127721  0.6247757143289762  0.8169446177681664  1.0000
  H   H504      1.0  0.9346664441249821  0.6043762203438293  0.796122932909889  1.0000
  H   H505      1.0  0.8730788552702768  0.6011905804854537  0.8011307840356872  1.0000
  H   H506      1.0  0.008886636891826116  0.6441427370756447  0.7721246419117108  1.0000
  H   H507      1.0  0.0016164370479616608  0.6645877993435461  0.7930349845635654  1.0000
  H   H508      1.0  0.0005087286198397489  0.6697288540178322  0.7602091018192405  1.0000
  N   N30       1.0  0.4819595231997016  0.8769812141735929  0.3320543010794661  1.0000
  C   C357      1.0  0.4308215164089802  0.8732848221854742  0.33907928383591174  1.0000
  C   C358      1.0  0.47619751846032776  0.8510930405160707  0.3325475939183758  1.0000
  C   C359      1.0  0.5197390420678917  0.8931966365438548  0.3496788228801294  1.0000
  C   C360      1.0  0.5011859673751765  0.8902916681698232  0.30676893785389264  1.0000
  H   H509      1.0  0.4018791348931678  0.861210349571879  0.325845943906679  1.0000
  H   H510      1.0  0.4336290522176124  0.8924186292206023  0.3389304602422868  1.0000
  H   H511      1.0  0.4147860896384407  0.8630759966282918  0.35798496678968383  1.0000
  H   H512      1.0  0.5140497854379319  0.853145256140355  0.32714597587038524  1.0000
  H   H513      1.0  0.4621191156900064  0.8405379694679627  0.3513808218033548  1.0000
  H   H514      1.0  0.4478539850290779  0.8382893498693375  0.31949822212480716  1.0000
  H   H515      1.0  0.5586021671800611  0.8961069175882715  0.3446852981410588  1.0000
  H   H516      1.0  0.5066631095987612  0.8837685270197714  0.368981380485716  1.0000
  H   H517      1.0  0.5255319548431153  0.9129964351253878  0.34969329624643464  1.0000
  H   H518      1.0  0.5052873709914543  0.9097307238351049  0.3055776652849715  1.0000
  H   H519      1.0  0.4741921631032072  0.8783645654913868  0.2928651327833891  1.0000
  H   H520      1.0  0.540093914088384  0.8937517825845734  0.3010248524361038  1.0000
  N   N31       1.0  0.2853585418519412  0.7520673314736097  0.2552594414967746  1.0000
  C   C361      1.0  0.27963533383883726  0.7513148038735721  0.28263782002316695  1.0000
  C   C362      1.0  0.3407490575969447  0.7637519813598411  0.2466873029491633  1.0000
  C   C363      1.0  0.2667899070110785  0.7680582327311578  0.244301796426072  1.0000
  C   C364      1.0  0.25434216751614563  0.7250933490677822  0.24744933446957823  1.0000
  H   H521      1.0  0.2382667575110637  0.7425261873339561  0.28978344405604883  1.0000
  H   H522      1.0  0.3027990922249308  0.7714051537760798  0.28913382376891633  1.0000
  H   H523      1.0  0.29287260918675906  0.73920170658484  0.29151832447566434  1.0000
  H   H524      1.0  0.3465751068603051  0.7643564247727669  0.22614659084002747  1.0000
  H   H525      1.0  0.36539321267726554  0.7841872030692267  0.2520061956667852  1.0000
  H   H526      1.0  0.3560129804066302  0.7523374047886747  0.25500693970632127  1.0000
  H   H527      1.0  0.27003875342258316  0.7688274969401989  0.22367078866787404  1.0000
  H   H528      1.0  0.28990952487602445  0.7886338649408742  0.24958497413373631  1.0000
  H   H529      1.0  0.2252063613819732  0.7598999123998226  0.2506945937235534  1.0000
  H   H530      1.0  0.2671560561371389  0.7125053232822051  0.2555752315772193  1.0000
  H   H531      1.0  0.2582399392349928  0.7247899237713619  0.22691374229064978  1.0000
  H   H532      1.0  0.21225852332074863  0.7156672004738118  0.2534849127351874  1.0000
  N   N32       1.0  0.7941535959616065  0.4259240158959255  0.07394792833033553  1.0000
  C   C365      1.0  0.7594366054629184  0.4310673921496599  0.06032082779399148  1.0000
  C   C366      1.0  0.7638281544688851  0.40664513342491954  0.09545251608220438  1.0000
  C   C367      1.0  0.8360586082077878  0.45070426276639924  0.08279145439593727  1.0000
  C   C368      1.0  0.8173929586499687  0.4153891117309409  0.057216488887553214  1.0000
  H   H533      1.0  0.7273670877466926  0.41277610019791644  0.05334433405291184  1.0000
  H   H534      1.0  0.7811822507248593  0.4455971615665087  0.044014753874067974  1.0000
  H   H535      1.0  0.741391141525146  0.43908119847269234  0.07246072684137017  1.0000
  H   H536      1.0  0.7888666185783211  0.4024862848857459  0.10634384799766819  1.0000
  H   H537      1.0  0.7460554472290996  0.4140759483111938  0.10855049636237306  1.0000
  H   H538      1.0  0.7319097629029613  0.38762328071398533  0.08958418352276638  1.0000
  H   H539      1.0  0.8600815556163443  0.46575316057859617  0.06712323441263904  1.0000
  H   H540      1.0  0.8630381993387768  0.4474965828429484  0.0929355679872226  1.0000
  H   H541      1.0  0.8203031621175142  0.4590860701511834  0.09587114060435355  1.0000
  H   H542      1.0  0.840125200729928  0.429384298468653  0.04068695691798878  1.0000
  H   H543      1.0  0.7871786296367563  0.3964600139838159  0.050413605540883415  1.0000
  H   H544      1.0  0.8448192848833372  0.4118746539639352  0.06673393265765253  1.0000
  N   N33       1.0  0.8722964271624291  0.4909962021855285  0.7552248331969269  1.0000
  C   C369      1.0  0.8689556681093509  0.47328784964022247  0.7759105307888436  1.0000
  C   C370      1.0  0.8225930747441635  0.4897332032494419  0.7553852863598087  1.0000
  C   C371      1.0  0.8825926583221204  0.48283966526494027  0.73131685566538  1.0000
  C   C372      1.0  0.9149561876347062  0.5182374765810642  0.7582498291805382  1.0000
  H   H545      1.0  0.9061770363021722  0.47411684099354673  0.7767115288271746  1.0000
  H   H546      1.0  0.8374368720482831  0.4525676217290007  0.7740318488716496  1.0000
  H   H547      1.0  0.8603778775428805  0.4787626417060515  0.7941330440229148  1.0000
  H   H548      1.0  0.8238530145382391  0.5027865038427649  0.7399722917631024  1.0000
  H   H549      1.0  0.7892452784164102  0.469556570889949  0.7529778448835841  1.0000
  H   H550      1.0  0.8136293711384929  0.496025848978358  0.7729783421152481  1.0000
  H   H551      1.0  0.9192086517684407  0.482940848759102  0.7306331213888568  1.0000
  H   H552      1.0  0.886657089713508  0.496290203960734  0.715432611604336  1.0000
  H   H553      1.0  0.8502339994380789  0.4627575644348238  0.7278597659180478  1.0000
  H   H554      1.0  0.9177420912917575  0.5321646261331552  0.7431935316244251  1.0000
  H   H555      1.0  0.9532593220245572  0.5200642036052753  0.7579047155826525  1.0000
  H   H556      1.0  0.9086816441978753  0.524950296863402  0.7761983764770307  1.0000
  N   N34       1.0  0.912207351677422  0.49582160469964226  0.5622663009168517  1.0000
  C   C373      1.0  0.9594948778388511  0.5004635060088239  0.5731622131644013  1.0000
  C   C374      1.0  0.9256484433902323  0.5189822790859238  0.5456347038362472  1.0000
  C   C375      1.0  0.8729226357565274  0.49144763704807  0.5823937745807786  1.0000
  C   C376      1.0  0.8910077214031827  0.4724387907994511  0.5478771566147682  1.0000
  H   H557      1.0  0.9506440487209771  0.48322123869549916  0.5855069769374724  1.0000
  H   H558      1.0  0.9762265326186864  0.5176210797283247  0.5846069710602685  1.0000
  H   H559      1.0  0.9901140040961584  0.5037542697637274  0.5586017466027279  1.0000
  H   H560      1.0  0.8908713902872057  0.5161168337227704  0.5369967880165186  1.0000
  H   H561      1.0  0.9418432787644788  0.536965141775951  0.5559234468757926  1.0000
  H   H562      1.0  0.9553819193848208  0.5228198354876501  0.5303107230750409  1.0000
  H   H563      1.0  0.836634157453762  0.48792027286184214  0.5749647221018472  1.0000
  H   H564      1.0  0.8879984385421832  0.5085657557162291  0.593875296970752  1.0000
  H   H565      1.0  0.8620386930019679  0.4741651628631137  0.5953503487924292  1.0000
  H   H566      1.0  0.9196409413762684  0.4752204332753455  0.5324386990488748  1.0000
  H   H567      1.0  0.8548259539944992  0.46797781393685256  0.5396194020347056  1.0000
  H   H568      1.0  0.8816435220088008  0.4546812876710244  0.5597023096176037  1.0000
  N   N35       1.0  0.20355636419818776  0.894742712197269  0.16342736880670342  1.0000
  C   C377      1.0  0.1748025216863129  0.902369283108244  0.14772674791814436  1.0000
  C   C378      1.0  0.19280444762302887  0.8972935879208628  0.18976174202527865  1.0000
  C   C379      1.0  0.26007625485947283  0.9120399720136109  0.1562590411390332  1.0000
  C   C380      1.0  0.1864760836693313  0.8671823814900078  0.1600870795593345  1.0000
  H   H569      1.0  0.1832487662001054  0.901503102180871  0.12765155672135597  1.0000
  H   H570      1.0  0.18465901763040557  0.9226121505498812  0.1505898153199071  1.0000
  H   H571      1.0  0.13194718308253753  0.8889528138977295  0.1521033034760236  1.0000
  H   H572      1.0  0.21398990106997465  0.8917654744188356  0.2021563948717948  1.0000
  H   H573      1.0  0.20453892774361832  0.9177213139409388  0.193060216397631  1.0000
  H   H574      1.0  0.15068070149904328  0.8842775473366645  0.19585980080241935  1.0000
  H   H575      1.0  0.2826441411009538  0.9068520219735453  0.16807428868994853  1.0000
  H   H576      1.0  0.2741156224013465  0.9329905450986639  0.15846122582177533  1.0000
  H   H577      1.0  0.2698936885615126  0.9104357625082785  0.13656964887808035  1.0000
  H   H578      1.0  0.2072595592502313  0.8607149896269386  0.17173133200141674  1.0000
  H   H579      1.0  0.1936849887821427  0.8644274020296843  0.1404151606352906  1.0000
  H   H580      1.0  0.1439170755053348  0.8535922444557564  0.16550062264883247  1.0000
  N   N36       1.0  0.07679114574112605  0.4682393116684381  0.9473980095204654  1.0000
  C   C381      1.0  0.1255233328017338  0.4942185194227859  0.9475988274868002  1.0000
  C   C382      1.0  0.08403430144567657  0.45301105116905316  0.9287110893553813  1.0000
  C   C383      1.0  0.03460975082484297  0.47190769437449176  0.9409501565525225  1.0000
  C   C384      1.0  0.06264153407336757  0.4538242203478876  0.972209235570281  1.0000
  H   H581      1.0  0.13679484149980548  0.505389670295656  0.9290006555480668  1.0000
  H   H582      1.0  0.15836616367677686  0.4922965407736808  0.9524304370559936  1.0000
  H   H583      1.0  0.12119735976247054  0.506301802590602  0.9613397186213912  1.0000
  H   H584      1.0  0.048585737951296865  0.43290819568413474  0.9287860156434125  1.0000
  H   H585      1.0  0.09209179101089582  0.4627061478052052  0.9095652489560332  1.0000
  H   H586      1.0  0.11703507377548485  0.4507745107666403  0.9323293595945342  1.0000
  H   H587      1.0  0.02741231858594314  0.482970120374822  0.9548119038851576  1.0000
  H   H588      1.0  0.9975783830754309  0.45267751818450436  0.9401202027781727  1.0000
  H   H589      1.0  0.04401969697894141  0.4830342177709988  0.9225430335412014  1.0000
  H   H590      1.0  0.09361965344170065  0.4507740374867269  0.9778951346906442  1.0000
  H   H591      1.0  0.025966253033776008  0.4340883559654701  0.9724594526030025  1.0000
  H   H592      1.0  0.05579446800329679  0.4644958457644096  0.98671320293146  1.0000
  N   N37       1.0  0.28083651388439934  0.03846282032064485  0.8241576014142273  1.0000
  C   C385      1.0  0.23272779580961295  0.02435797970820101  0.8412564275555386  1.0000
  C   C386      1.0  0.2757933206353101  0.0546384456163956  0.8046883678475141  1.0000
  C   C387      1.0  0.2893537686170176  0.01922098151034418  0.8124767594442023  1.0000
  C   C388      1.0  0.3257320139263715  0.05569632142641033  0.8381471583931677  1.0000
  H   H593      1.0  0.23577099672984678  0.012571784080950374  0.8565985784457657  1.0000
  H   H594      1.0  0.19848216742696123  0.010445921520238028  0.8314567227465478  1.0000
  H   H595      1.0  0.22371170861203551  0.03813554804072097  0.8496796511682753  1.0000
  H   H596      1.0  0.2422620045223147  0.04236401816502446  0.7937757687042335  1.0000
  H   H597      1.0  0.2696389851712914  0.0695009583745886  0.8127813475081775  1.0000
  H   H598      1.0  0.31140323610761533  0.06538893274803474  0.7913718177986822  1.0000
  H   H599      1.0  0.32597545928542243  0.029248055457881724  0.7999386362380527  1.0000
  H   H600      1.0  0.25702138060050395  0.006324827728717073  0.8011546633099749  1.0000
  H   H601      1.0  0.2921752735570311  0.006234585735607172  0.826566295071279  1.0000
  H   H602      1.0  0.33135140921394857  0.04417495227963892  0.8527508950476723  1.0000
  H   H603      1.0  0.32054357308474196  0.0703948983362268  0.8473195887946217  1.0000
  H   H604      1.0  0.3625477439182686  0.06678544523975562  0.8256353504195586  1.0000
  N   N38       1.0  0.7480191311339833  0.3704231105879912  0.2519638864216105  1.0000
  C   C389      1.0  0.7408034076291907  0.34723042950294236  0.24007254306686837  1.0000
  C   C390      1.0  0.7762497286824198  0.37411244521449644  0.2743241610128616  1.0000
  C   C391      1.0  0.6965298463926  0.3662243505752515  0.2591209476404002  1.0000
  C   C392      1.0  0.7782363320567552  0.39404994773872515  0.23435750701230706  1.0000
  H   H605      1.0  0.7787350935135039  0.34989748864342146  0.23369919042466047  1.0000
  H   H606      1.0  0.7180431282052536  0.34332778558878335  0.22365031806055002  1.0000
  H   H607      1.0  0.7188493378405586  0.3291617709611479  0.2530617904309071  1.0000
  H   H608      1.0  0.7806385049656306  0.39081052836679214  0.2843880449600823  1.0000
  H   H609      1.0  0.7552311954926689  0.3563583606315215  0.28773523140860907  1.0000
  H   H610      1.0  0.8158134377992697  0.37801396838343654  0.2696107520898227  1.0000
  H   H611      1.0  0.6722407603593153  0.34815503513875223  0.27185412038205464  1.0000
  H   H612      1.0  0.6745222194952288  0.36386038133060594  0.24264950375470645  1.0000
  H   H613      1.0  0.7000346546253481  0.3829909968469089  0.26870047109578216  1.0000
  H   H614      1.0  0.784499856547639  0.4118784028833264  0.2428464140550367  1.0000
  H   H615      1.0  0.757531394536695  0.3920078879757571  0.21750339601217444  1.0000
  H   H616      1.0  0.8169772990174657  0.39762223214554776  0.22804492680709637  1.0000
  N   N39       1.0  0.3552113292698675  0.45499741330017157  0.7952153659647014  1.0000
  C   C393      1.0  0.34965251334972797  0.46327140345615164  0.7701485940206676  1.0000
  C   C394      1.0  0.4090169739984997  0.47305592154401466  0.8016817481301558  1.0000
  C   C395      1.0  0.3439656094695975  0.4279858787067843  0.7955017773609642  1.0000
  C   C396      1.0  0.31820774090170084  0.45577987628795597  0.8134197934674251  1.0000
  H   H617      1.0  0.30928239862468176  0.450551453570324  0.7647280501858533  1.0000
  H   H618      1.0  0.37669911214130863  0.4628503330311167  0.7557580493609872  1.0000
  H   H619      1.0  0.3588241991537854  0.48371075011217207  0.7692444667272755  1.0000
  H   H620      1.0  0.41791970179988513  0.4934177340377393  0.802479673700423  1.0000
  H   H621      1.0  0.41540921823750604  0.4669538555734061  0.820110276646942  1.0000
  H   H622      1.0  0.4382391066905519  0.4739704786087256  0.7876576165279998  1.0000
  H   H623      1.0  0.34756349404273934  0.4210220315198385  0.8141849866952634  1.0000
  H   H624      1.0  0.3714020562156523  0.4268525112886448  0.7819498857905686  1.0000
  H   H625      1.0  0.30372246608815046  0.4139596625379395  0.790519708668424  1.0000
  H   H626      1.0  0.3208934856018582  0.4495695820227043  0.8326032831221744  1.0000
  H   H627      1.0  0.2771658849717767  0.4427480955695727  0.8089013470751667  1.0000
  H   H628      1.0  0.3256533231791634  0.4759396533068999  0.8136266319060392  1.0000
  N   N40       1.0  0.35161697520208135  0.6178304122443419  0.7058803964682276  1.0000
  C   C397      1.0  0.40472753571574743  0.6298223740279494  0.7139318928514402  1.0000
  C   C398      1.0  0.3130540374579446  0.6002739818812163  0.7265228981773565  1.0000
  C   C399      1.0  0.34627435072517876  0.60248286935008  0.6843672764038178  1.0000
  C   C400      1.0  0.3422357310220921  0.6386983312261352  0.6987438457709466  1.0000
  H   H629      1.0  0.4131922447364626  0.614615769905914  0.7193455559998382  1.0000
  H   H630      1.0  0.40976216385240405  0.6410655497897592  0.7304971811977571  1.0000
  H   H631      1.0  0.4349758888504301  0.6434044461576809  0.6989535196110179  1.0000
  H   H632      1.0  0.3190195413163375  0.5843404554802836  0.7322455429191734  1.0000
  H   H633      1.0  0.31615128830780453  0.6109818842752832  0.743267702436866  1.0000
  H   H634      1.0  0.2724564946678832  0.5905342053921916  0.72110135205192  1.0000
  H   H635      1.0  0.3063429405297837  0.5927972237988773  0.6780592419729669  1.0000
  H   H636      1.0  0.3528052595442633  0.5864358965651616  0.6891362427336849  1.0000
  H   H637      1.0  0.3745714717404461  0.6149989135202563  0.6683478050663483  1.0000
  H   H638      1.0  0.37060415523505763  0.65232192107682  0.6831737394119964  1.0000
  H   H639      1.0  0.34588585050175236  0.6505884625863864  0.7146086042778175  1.0000
  H   H640      1.0  0.3024072434138451  0.6302264953923002  0.692628421722385  1.0000
