data_image0
_chemical_formula_structural       NH6SCHCFeSHFeS2Fe2CS4FeSFeSFeSFeS2FeSFeS3FeS2FeSHFeSFeCS2H2SCH2FeS2FeS2FeSFeS3FeSHFeS2FeSFeS3FeS2FeS2Fe2S3FeSHFeSCFeSFeS3FeS2FeS2FeSFeS3H2CSH3CH2SHSC6H5C2H2SH2CHC6H4C6H4C6H4C3H5NC2SHSH2CHSC6H5CH2CHCH3C7H2C9H4CHC6H4C6H4C6H4C6H9CHCFeHCH2CH3C6H10CSHCH3CH6NHCSC2H3CH2CH3NH2C2H4NC4H13CH2CH4C2HFeC3HC2HCH4SHNC4H6CHCH3NH6C2SH2SHCHSNCH2C2H2CHC3H2C2NC4H12NC4H2CH8CNC4H15SC2H3NHCHCH3CNH2CH3S2HCHCHCH2CFeH2SNH3CHC2HCSH2CH5CH6NCH2CHS2HC3H3SNCHNHCFeCHC4SCSHNC2HNH4FeH3CHC2HC3H3CH2SH2NHC2HFeH4NHCH4SHCHCHSH3CHCH3C2HNH4C3H4FeHSH3CH8CHCFeH2CHSH2CH2CSHCH2CSC2HFeSHSHFeS3FeSFeS2FeSFeS3FeS2FeS2FeSFeCS2FeS2FeS2FeSFeS3H2FeS2FeS2FeSFeCS2FeS2FeS2FeSFeS3FeS2FeSHFeHFeS3C2HSFeS2FeS2FeSFeS3FeS2FeS2FeSFeS3C2H3CH2CHC3H4C2HCHCHCH2C6H4C5HSH2C5HFeH2C9H5SCHCH2CHCH4C2H2C2HCH2C6H4C3HCH4CHSH2C6H4C6H4C6H2C2HCSH4C6H7CHFeH2FeH2C6H4C6H4C6H7CHC5H2CH4CH2NCNHCSHC2H7CH5CH2CH10CHSHNC3H8NC4H12NHCH2CH3C2H3CHFeSHFeCHNC2H7NC3H2CH4C2H3CNHCH9NH2C2H2C3H3CSC2HCFeCH2SC9HCHCHC2H2CHCH3CHNH3SHC2NC4H14CN2C4H2CH6CH3CH5CNH2CFeCH3FeHSNC4H12NC4H8CH2CH5CH7C2H3NH2CH4CH2SCH3SH3NHCH2CHC2HC2HCHCNCSHCH2CH5NHCHSHCH2SH3CH3S2H4SHNH2NH4CHCH3CHCH2C2HNH3C3H4C3H4CHC2H3CH2NHCNHCH2FeCSCNCH2C2HSCSCFeS2FeSFeHS2H2FeSCHSFeSFeSHFe2SFeS2FeS2FeHFeS4CSHFeS2FeS2FeSFeS2FeSNFeS2FeSFeS3FeS2FeS2FeSFeS3FeS2FeS2FeSFeS3FeS2FeS2FeNFeS6FeSFeSCFeS2FeS2Fe2S4HC6H4C6H4C6H4C6H4CHSC6H4C6H4C6H4C6H4C6H7CH4CFeC6H4C6H6C3HC6H6CHNC6H2CH2CNHC3H4C6H6FeH4SH2C6H4C6H5SHCH2CNH4FeHNH2SCNHCNC4H12NC4H13SHCHCHCSH2C3H3NC4H11NC4H10NC4H13SNC4H14CH2C3HCS2FeNC4H11NC4H16SCH3FeC2H2CFeSHFeC2H5C3H4C2NC2H2CSCH5SCHSH3SH5CHCH4NC4H12C2HCNH4CH2C2SH3FeH5SCHCSC3SHSCSHCH2C3HCH2CH2C2H4FeSFeCH5FeHC2SHSHCH2SHCH3CFeC2FeH2CH2NHCH2CHCHSH5N2H10C5H5CH5C2HC3H4CH2SH5FeH2CH2NH4C2HCH3FeS2FeS2FeSH2SHFeS2FeSHCFeSHSHC2HCFeC2SFeS2FeS2FeSFeS3FeS2H2CHFeHS2FeS2FeS2Fe2S3HSHCSFeSFeS4FeS2FeSFeS3FeS2FeS3H2FeSCSH2SHSFeHSFe2SFeS3HFeS2FeS2FeSFeS3FeS2FeS2FeSFeS3C7H4C6H4C6H6C2H4SHC6H4C6H4C6H4C7H4C6H4CH2NH5C8H3CHCH2C6H4C6H4C6H5C4H2NHNC3H2SH3C3H3NFeC6H4C6H4C6H7C3SH4CHCNC4H12NC4H12NC4H12NC4H2SHSHSH5NC4H10CH3FeHSH3CH2C2H2FeHC3H3CH3NC4H12CH3NC4H12CS2CH2CH3CH3SCH4NH3C2H2FeNCH3CHC2H2FeH4CHSCSHCHCH4CH4SC2HCHC2NC4H15C2H7SH5CH5CH2CHCH4CH10SC2H2CH2C2HCH2FeCHSHC3H2CH4SC2H2CFeC2HCH2SHN2CNCH2SCHFeCHCHFe2HCH2FeC2HSCHCH4C2HCHC2FeHCHNHCHCH2FeH6CHNHCFeSCSHCH2CHCH2S2CSFeSHCNCHNSCH2CH3NHC4HC2HSHSHCSHCH2FeH2CH3CH3NHS2H9FeS2FeS2FeSFeS3H3NH2CFeC2SH2SHSH2CFeS2FeS2FeSFeHS2FeS2FeS2FeC2S2FeS2FeS2Fe2S4HCHC2HFeH2FeS2FeSCHS2HSHC6H3NHSH3C3HCH2C2H2CH4C6H4C6H5CHC6H3FeC6H4NH4SC5SH3CH4SH2SH7C6H4C4H5C2H8CHCH4CH4C2H6CHC3H4C3H3CH11NHCH2CHFeHC2H3CH3CH4NHCH2NHNC4H16CH2C2HSHC3H4CFeHCHNH7C2H3NH4NC4SHNHCHC2H2FeHC3HCHCH2CHCHC2NHC4HNH3CHCSCH2CSHCHSFeH5C2HCSC2HC2HSCFeSHFeS2FeCFeS4CFeS2FeS2FeSFeS3FeS2FeS2FeSFeS3H5CSH4CHFeS2FeS2FeSFeS3FeS2FeHFeSCSHFeS2FeHCFe2HNS2CFeHCHCH5NH4C6HCH3C6H6CH5CHC3HC2H3C2H3SCNCH6CH2CH2CHCHC6H4C6H6C2HC6H4CFeH2CH7CHC3HNC6H3C6H4CH6CH4C2H2C2HNC4H12FeHNCSH2CH3CHCHSHSHCHSHCSH2NHCH2CSC3NSCH4NCFeH3C2H4CH2CH2CH3CSCNC3H8CSNCSH4SH7CH2C2HCH2SHCHC2HCHCHSCHCH2NC2HNCH3CH4CH4CFeCHCH15CFeSHFeS2FeHFeHS3HFeS2FeS2FeSFeHS2CFeS2FeS2FeSFeS3FeS2FeS2FeSFeS3HS2CH3FeHC2H2FeSHFeS2FeSFeS3HCNHCH4CH2FeS2FeNHFeHCHSH2NHCNCH3C2NH3CNSC7H8C3H3CSC2H3C2HCSC3HCH3C7H4C6H3C3H7C3H2CH4CH3NC3H2C6H4C6H4C4HCH2CHC6H4C2H2C6H4CH4CHCHN2C2H3C3HCH3SHSCH2CH3CH2NHCH4C3H3SCH2CH3CH2CH2CHCHCNSHCHC2H5C2H4CH2CH3CH2SH3CH4CHSH4NC4H14NC2HCSCH3CHSCHCH3NH3SC2H2NH2CH2CSHCHSHCH4FeH2CH2CHCH3CHCHCH6CH4CH7CHCH2C2HCHNHC3SCHSH2C2HCHFeSFeSHSHCHC2NSH2CHFeSHNFeS2FeS2FeHFeS2FeS2FeS2Fe2S3FeHSH2NSCH3FeS2FeS2FeHFeS3NH4CHC3SH3SHCSCH2FeSCH3FeNFeSCSNCH2CSH2SHCFeCSH3CHSCHCH3CH3CH3FeH6FeCH11SCFeH2C6H3CH3SC5HC3HC2H2CH4C6H4C6H4C3SHCHC2HC6H4FeC6H8CHCNHCH5CHSH2C6H5NFeH7CH4CNC4H16CH2C2SHCHCSCSHSH2CH2SCNCH2CH2SHCHCNCH2CH3C3HCH5CH3NC2H4CHS2CHC2H2CH2CHCHCH2SFeS2CSFeS2FeS2FeSFeS3H2SCHFeS2FeS2CFeS3H3SHFeSHCH3CSFeH16CSHNHSHFeSHFeSFeSCSFeS2H5FeSHSFeS2FeS2FeSFeS3HSHFeS2FeSFeHS2NC3FeS2FeS2FeSFeS3FeSHFeS2FeSFeS3C6H4NH5C3NC6H4C2H2C3H3C6H4C6H4CHC4H4C6H5NH2CH2CH5CHCHSCHNH3CH7Fe2CHCH2C3HCHC2H4C6H5SHCHC6H4C6H4C2SHC2HSH3C7H4C2HNSH2CHCH2C3H3C6H4C6H5C4HSH2C3NC2H2SHC2FeSHFeC3HFeSHCH4CHCH2NHCH2C2H5C2NC4H12NC2H6NC4HCH10NHCH3FeH2SHCH3CH2CHCH3CH2NHCH6CNC4H12CH2NCH2SCH5CH3CH5C3H7CH4CH2CFeCHCHCNCH5CH2CHC2H5FeHCHSNC4H15NC2H6C2SCH4CHCHCH2CH4CH6CH3NSHC3HCHNHCH2CHFeS2C3FeS2HFeS2H2FeNHS2HCHFeS2FeSHFeSFeS3HSCH2FeC2SFeH2NH3CH2CHC2SH3CFeSFeSFeS2FeS2FeS2FeHFeS3FeS2FeS2FeSFeS3FeS2FeS2FeSFeS3CHCSHC2HSCSFeS3FeSFeSFeS2FeS2FeSFeS3C6H4C6H4C6H4C7H3C6H3C6H4C6H3C6H4CH2C4SHNH3CNCH4CHCSCHSCH2CHC6SH3CH2SCH4CH2CH5NC4HC6H7CH2C3H4CHC6H4C3HC2H2FeC7H4SC3HSHC2H4C2HCH2CH3Fe2CFeCNH2CH4NHFeCHNC4H12CH2C2NC4H12NC4H15NH3FeCH3CH3SCHC2HCSFeCHSNHSHSH9CH3SCSH2SH2CH5SHSHFeHSC2SCHCHC2SFeHSC2H2CNC4H12NH5CHC2H2SH2C2H3S2CH2C3SH4C3NCH4FeSHCHC2HCH2CHCHCSH6CSH2CFeHC2H2FeNC4H12NC3H9NC4H12CSNHCH6C2HCH7CNC2HCH6CSH7FeH2CH2FeS2FeS2FeSFeS3FeS2FeSFeSFeS2FeSFeSFeS3H2CSH3FeSH2FeH5SHFeSHFeSFeSHSHC2FeS2FeS2FeSFeS3FeS2FeS2FeSFeS3FeS2FeS2FeSFeHS2FeS2FeS2FeS2FeSFeS3C6H4C6H4C2HCH5C6H4C6H5CHC4H3SC6HCH2C6H3C7H4CH3CFeCH2C7H4C6H4C2H2CHNCNHC6H5CH3CHNH2C6H5C5H3C6H4C6H4C4H2CHC4H4CHNC4H12NC3H11CSHNCH2C2H2CH6CH3C2HCSH3CFeHCH6FeH4CH2C3H6CH6CHCH7NHFeCSCHNC3H15CH2CH2NCH2SC2HCHFeSCH2CH3CSCH3CNC4H12CH2C2H4CHNHSC2NCH4CHSH4CH3CH2CNC4H15CHCHNH2NHSCH2CNC4H12CH7NHCSHNH2SC2HSHCHSC2SH5SH2C2FeSCH2CH2SH2CSCH3CH3CH7C2NHCH2CHSNCHC2H3NC2SH7C2H2Fe2S2HCH3S2C4FeSC2HFeHFeSHSCFeHCS2CFeS2FeSFeHSHSFe2S2FeS4FeS2FeS2FeSFeS3FeS2FeS2FeSFeS3CH2CS2FeS2FeS2FeSFeS3FeS2FeS2FeSFeS3H4CH3SC6H4C7H3NCH2C6H4C6H4C6H4C6H3C7H4C6H4C5H3C6H4C6HCHC6H4NCSH3CH2C7H4C2HSH9CH2C2HCH4C2H6NC2H10CH3CH9NC4H9FeH3NCHNHCFeCHCH2NH2CHCNHS2CHCH3CSNC4H22C3H2NH3CH3CNFeHSCHSCH2FeH5SFeCH3CHCH3SHC3H4CSNCH2C2H2CH4C3H7SCHCHCHSHCHCHSHCH3CHNHFeCSCH2CH3CHC2NFeCFeH7NCH2CH4CNFeHFeNCH2CH9FeHSH2FeH4CH4SCH2CSHFeHCHCFeSNH2SH2FeS2FeSHCSHC2S2CFeSC2HFeS2FeS2FeSFeS3FeS2FeS2FeSFeS3HCFeSFeS2HS2CSFeS2HS2HFeS2FeS2FeS2FeSFeS4FeSHSCH3FeS2HFeS2HFeHC4H3C6H4C6H4C6H4C2H3C6H4C6H4C6H4C6H4C6H5C6H5NHSCFe2HSHC6H4CNH3CNHCH2C3HSHCSFe2H2C7H5CH6CNC4H12NC4SH6C2HCHCFeH2C2HCH3CH6C2H3CHCHC2SHS2H4CNC4H14CHSH2CHSH3SHC2NCH2NC4H12NC4SFeH2SHCHCSH2NCFeC2H3CH5CH2CH2CHCH5CHFeCHC2H4C2H2CH3FeHCH2CH4S2H5CHSHNC4HC2H3CH2CH2NC3NH8CFeC2HCHSHCH3SHC2SNC2H7C2FeCH5C2FeHCSHCHFeHC2H2CS2HSH3FeSC2H4CHFeNH2CHCHSCHSH3SH3Fe2CS2CH2FeH2CHCNC3H2NCH2CNFeH2CH2SFe2CH2CH2CHSC2SHSHCHCH5NHSHCSHC2HCS2H2FeCH2Fe2H8FeHSH2CH3S2HSCH2NH5CSHCH2CH5CHSHCSFeS2FeSFeSCH4NH3SCHFeS2FeS2FeSFeS3FeS2FeS2FeSFeS3CHCHFe2SC3H2CHNH2SH3CH2FeS2FeS2FeSFeS3FeS2FeS2FeSFeS3CH6SCHCSHFeS2FeCFeSHSCHSC4H3C6H4C6H4C6H4FeH2CHC8H6C2H2CHCSHC5H2SC4H4C6H4C3NCHCHC6H4C6H4C6H9C6H4C7H5CH2C2SHC2SFeSH10CHCHC2NH6NH5C2NC4H12FeCSH3CHCHCFeH3SH2CH4CHFeCHNCHS2H5CHCSHC2HSHCNCH2SCFeHNC4H7SH4CH5NC4H13FeHFeHC2H3FeH2SH2C3HCHCHSHCHCH2SCH2CSHSFe2H2NHNHC2FeNCH2SH3CHCH2C2H3CS2HS2NCHCSHCFeSC2H2CH4NC4H13NC2H7C2NCHSHCH3C2HCH2CFeHCSH6CH3CH5SH2CSH5CFeH2CHCH2SFeHNH2SC2HSHC2FeCH2FeCH7C2FeHC2HCHCSCH2S2H3SH3SHCHS2HFeS2FeS2FeSFeS3FeS2FeSCFeSFeS3HC2FeS2NFeS3FeS2FeS2FeSFeS3FeS2FeS2FeSFeS3FeS2FeS2FeSFeS3FeS2FeS2FeSFeS3FeS2FeS2FeSFeS3H5CHNH3C6H4C2HCNCH4CH4CH3C7H4C6H4C6H4C6H4C6H5C7FeC7H4C6SH3C5H3C3HCNHCHC6H4CHCH2C3HC2HCH2C6H4C2HC2H2C6H4NFeC6H4NHCH3CH2CH2N2C4H12NC4H13CSCH3SH4FeCH5CHCH2NHC3HNC4H20CH2C2H4NC4H12NC4H12NC4H12NHCHCSH3CH5CH3C3HNH2FeH2NC4H12NC4H12NC4H12SCHCSH4C2HSCHC2H8C2SCH2C2H3CH3CFeHCHCNCH4CH2CNC2HSHCH4NHFeH8C6SH4CHCHCH2SH2C2HCFeC2HCH3S3H2C2H5CH2CHCSCH2NC2SH2CH7CNHCFeHSH5SC3H2SC2H4SH2CH14C2H4CHC2H2C2HSCHCNFeSH2CH4FeS2FeS2FeSFeS3FeS2FeS2FeSFeS3H2FeH2FeS2FeH2S2H4FeHSH2S2NHCHS2FeS2FeS2FeSFeS3FeS2FeS2FeSFeS3FeS2FeS2FeSFeS3FeS2FeS2FeSFeS3C6H4C6H4C6H4C6H5C6H4C6H4C6H5CHC4H3CSH3FeC2H3C4H5C6H4C6H4CH2CHCHCH2C6H4C2HC2NH2C6H9CFeHSCHSCSHC2H2NCH2NHC6H4CHCHC2H2CHC3H2C2H6C2HCH7SH3CHCH9SFeHCHCHCHC2H2CH2NHCH5C2NC4H15CH3CHFeHC2HC3NC4H13CH4SCH2FeHCH5C2HNC4H12NC4H2FeH5CHCHCNH2NSC3H8CNH3SHCHCH4NC4H12NHSH2CH3CSH2FeNC2H4C3H2CHCHSHSCH6FeNH2CHNSH2NCHNSH11SHNC4H7C3H2NCH3CHNHFeCH4CSCH2FeCH3SHCH3CHCH5CSH
_chemical_formula_sum              "N312 H4992 S1248 C3120 Fe624"
_cell_length_a       90.5235
_cell_length_b       90.6919
_cell_length_c       90.656
_cell_angle_alpha    73.9746
_cell_angle_beta     73.8982
_cell_angle_gamma    73.9709

_space_group_name_H-M_alt    "P 1"
_space_group_IT_number       1

loop_
  _space_group_symop_operation_xyz
  'x, y, z'

loop_
  _atom_site_type_symbol
  _atom_site_label
  _atom_site_symmetry_multiplicity
  _atom_site_fract_x
  _atom_site_fract_y
  _atom_site_fract_z
  _atom_site_occupancy
  N   N1        1.0  0.01906  0.09704  0.24572  1.0000
  H   H1        1.0  0.03662  0.23376  0.40092  1.0000
  H   H2        1.0  0.08678  0.11421  0.27155  1.0000
  H   H3        1.0  0.18995  0.03102  0.23065  1.0000
  H   H4        1.0  0.07036  0.09851  0.30328  1.0000
  H   H5        1.0  0.16959  0.44276  0.00700  1.0000
  H   H6        1.0  0.04530  0.48363  0.46513  1.0000
  S   S1        1.0  0.00079  0.24738  0.21058  1.0000
  C   C1        1.0  0.16395  0.11932  0.09086  1.0000
  H   H7        1.0  0.01649  0.29897  0.19303  1.0000
  C   C2        1.0  0.21320  0.11047  0.26409  1.0000
  Fe  Fe1       1.0  0.21220  0.44201  0.02178  1.0000
  S   S2        1.0  0.22160  0.45177  0.03660  1.0000
  H   H8        1.0  0.01574  0.11465  0.25858  1.0000
  Fe  Fe2       1.0  0.18786  0.42864  0.04950  1.0000
  S   S3        1.0  0.19481  0.43794  0.06651  1.0000
  S   S4        1.0  0.16743  0.41668  0.05510  1.0000
  Fe  Fe3       1.0  0.19628  0.45991  0.04764  1.0000
  Fe  Fe4       1.0  0.21956  0.42893  0.05395  1.0000
  C   C3        1.0  0.01224  0.31122  0.19360  1.0000
  S   S5        1.0  0.18693  0.45150  0.03175  1.0000
  S   S6        1.0  0.21252  0.41823  0.03801  1.0000
  S   S7        1.0  0.19407  0.04515  0.13253  1.0000
  S   S8        1.0  0.19239  0.05973  0.16260  1.0000
  Fe  Fe5       1.0  0.18278  0.04144  0.15832  1.0000
  S   S9        1.0  0.15840  0.03746  0.16997  1.0000
  Fe  Fe6       1.0  0.20562  0.06184  0.13750  1.0000
  S   S10       1.0  0.20871  0.08661  0.12598  1.0000
  Fe  Fe7       1.0  0.13067  0.04390  0.26134  1.0000
  S   S11       1.0  0.11088  0.05607  0.24889  1.0000
  Fe  Fe8       1.0  0.13283  0.07404  0.26873  1.0000
  S   S12       1.0  0.11342  0.08853  0.25674  1.0000
  S   S13       1.0  0.14374  0.08939  0.27628  1.0000
  Fe  Fe9       1.0  0.10122  0.06869  0.26882  1.0000
  S   S14       1.0  0.07578  0.07417  0.28139  1.0000
  Fe  Fe10      1.0  0.12489  0.07478  0.23803  1.0000
  S   S15       1.0  0.13106  0.08697  0.21278  1.0000
  S   S16       1.0  0.11989  0.05494  0.28244  1.0000
  S   S17       1.0  0.14537  0.06189  0.24896  1.0000
  Fe  Fe11      1.0  0.17845  0.12091  0.33679  1.0000
  S   S18       1.0  0.17541  0.10007  0.35673  1.0000
  S   S19       1.0  0.16255  0.14513  0.33463  1.0000
  Fe  Fe12      1.0  0.21012  0.10353  0.32012  1.0000
  S   S20       1.0  0.20937  0.08142  0.33867  1.0000
  H   H9        1.0  0.03241  0.21955  0.25885  1.0000
  Fe  Fe13      1.0  0.18390  0.08642  0.33754  1.0000
  S   S21       1.0  0.17377  0.06698  0.33578  1.0000
  Fe  Fe14      1.0  0.20119  0.09725  0.35580  1.0000
  C   C4        1.0  0.16056  0.09965  0.22946  1.0000
  S   S22       1.0  0.18535  0.10752  0.31761  1.0000
  S   S23       1.0  0.20356  0.11908  0.33718  1.0000
  H   H10       1.0  0.19743  0.40425  0.00901  1.0000
  H   H11       1.0  0.15597  0.11141  0.22250  1.0000
  S   S24       1.0  0.03529  0.13749  0.24918  1.0000
  C   C5        1.0  0.17494  0.11050  0.24118  1.0000
  H   H12       1.0  0.05207  0.28606  0.11236  1.0000
  H   H13       1.0  0.02020  0.07639  0.23784  1.0000
  Fe  Fe15      1.0  0.07323  0.17598  0.35529  1.0000
  S   S25       1.0  0.07601  0.18257  0.32914  1.0000
  S   S26       1.0  0.09043  0.15873  0.36918  1.0000
  Fe  Fe16      1.0  0.03919  0.19389  0.36133  1.0000
  S   S27       1.0  0.03867  0.20162  0.33561  1.0000
  S   S28       1.0  0.01780  0.19855  0.38098  1.0000
  Fe  Fe17      1.0  0.05221  0.17720  0.33360  1.0000
  S   S29       1.0  0.05060  0.16333  0.31708  1.0000
  Fe  Fe18      1.0  0.06240  0.20652  0.33278  1.0000
  S   S30       1.0  0.07015  0.22788  0.31614  1.0000
  S   S31       1.0  0.05031  0.16880  0.35957  1.0000
  S   S32       1.0  0.06202  0.20059  0.35864  1.0000
  Fe  Fe19      1.0  0.02488  0.32363  0.23899  1.0000
  S   S33       1.0  0.04186  0.30207  0.23246  1.0000
  H   H14       1.0  0.15906  0.21242  0.01799  1.0000
  Fe  Fe20      1.0  0.03459  0.31912  0.26992  1.0000
  S   S34       1.0  0.05283  0.29734  0.26526  1.0000
  S   S35       1.0  0.03018  0.32238  0.29505  1.0000
  Fe  Fe21      1.0  0.05885  0.31060  0.24026  1.0000
  S   S36       1.0  0.08419  0.30662  0.22676  1.0000
  Fe  Fe22      1.0  0.03442  0.29077  0.25783  1.0000
  S   S37       1.0  0.02851  0.26683  0.26695  1.0000
  S   S38       1.0  0.04232  0.33311  0.24538  1.0000
  S   S39       1.0  0.01577  0.31163  0.26377  1.0000
  Fe  Fe23      1.0  0.10860  0.26751  0.04596  1.0000
  S   S40       1.0  0.09104  0.25465  0.06355  1.0000
  S   S41       1.0  0.12816  0.27144  0.05447  1.0000
  Fe  Fe24      1.0  0.09508  0.26816  0.01817  1.0000
  S   S42       1.0  0.07615  0.25570  0.03362  1.0000
  S   S43       1.0  0.09913  0.27503  0.99154  1.0000
  Fe  Fe25      1.0  0.07340  0.27126  0.05017  1.0000
  Fe  Fe26      1.0  0.09541  0.24030  0.04558  1.0000
  S   S44       1.0  0.10084  0.21403  0.04966  1.0000
  S   S45       1.0  0.09073  0.28531  0.03361  1.0000
  S   S46       1.0  0.11453  0.25167  0.02909  1.0000
  Fe  Fe27      1.0  0.21771  0.17451  0.04420  1.0000
  S   S47       1.0  0.20336  0.16167  0.06562  1.0000
  H   H15       1.0  0.02101  0.09491  0.26939  1.0000
  Fe  Fe28      1.0  0.19582  0.17646  0.02324  1.0000
  S   S48       1.0  0.17963  0.16366  0.04286  1.0000
  C   C6        1.0  0.17894  0.99300  0.16385  1.0000
  Fe  Fe29      1.0  0.18262  0.17856  0.05739  1.0000
  S   S49       1.0  0.16337  0.19028  0.07474  1.0000
  Fe  Fe30      1.0  0.20169  0.14761  0.04952  1.0000
  S   S50       1.0  0.20181  0.12163  0.05662  1.0000
  S   S51       1.0  0.19702  0.19280  0.03733  1.0000
  S   S52       1.0  0.21787  0.15911  0.02842  1.0000
  Fe  Fe31      1.0  0.14866  0.33897  0.11219  1.0000
  S   S53       1.0  0.14944  0.31949  0.10099  1.0000
  S   S54       1.0  0.16776  0.35271  0.10637  1.0000
  Fe  Fe32      1.0  0.11964  0.33268  0.13764  1.0000
  S   S55       1.0  0.11771  0.31252  0.12890  1.0000
  S   S56       1.0  0.10230  0.34461  0.15645  1.0000
  Fe  Fe33      1.0  0.14405  0.30556  0.12569  1.0000
  S   S57       1.0  0.15683  0.28032  0.12972  1.0000
  Fe  Fe34      1.0  0.12317  0.32763  0.10479  1.0000
  S   S58       1.0  0.10890  0.32921  0.08739  1.0000
  S   S59       1.0  0.14554  0.32417  0.13676  1.0000
  S   S60       1.0  0.12281  0.34859  0.11361  1.0000
  H   H16       1.0  0.17857  0.01631  0.24095  1.0000
  H   H17       1.0  0.01955  0.30819  0.38745  1.0000
  C   C7        1.0  0.14674  0.21855  0.01707  1.0000
  S   S61       1.0  0.14341  0.01887  0.26016  1.0000
  H   H18       1.0  0.21432  0.43504  0.09019  1.0000
  H   H19       1.0  0.99674  0.10821  0.23938  1.0000
  H   H20       1.0  0.06482  0.26806  0.10809  1.0000
  C   C8        1.0  0.04558  0.19254  0.27641  1.0000
  H   H21       1.0  0.18886  0.09268  0.21008  1.0000
  H   H22       1.0  0.06246  0.12564  0.30870  1.0000
  S   S62       1.0  0.05029  0.28409  0.06291  1.0000
  H   H23       1.0  0.13747  0.13825  0.08308  1.0000
  S   S63       1.0  0.00861  0.33905  0.22334  1.0000
  C   C9        1.0  0.17644  0.27799  0.13075  1.0000
  C   C10       1.0  0.18834  0.26753  0.12282  1.0000
  C   C11       1.0  0.20413  0.26591  0.12307  1.0000
  C   C12       1.0  0.20805  0.27437  0.13167  1.0000
  C   C13       1.0  0.19612  0.28459  0.13990  1.0000
  C   C14       1.0  0.18034  0.28659  0.13923  1.0000
  H   H24       1.0  0.18536  0.26087  0.11624  1.0000
  H   H25       1.0  0.21323  0.25808  0.11660  1.0000
  H   H26       1.0  0.19908  0.29104  0.14669  1.0000
  H   H27       1.0  0.17117  0.29452  0.14555  1.0000
  H   H28       1.0  0.00539  0.24772  0.11206  1.0000
  C   C15       1.0  0.22001  0.20117  0.06417  1.0000
  C   C16       1.0  0.21685  0.21297  0.07255  1.0000
  H   H29       1.0  0.23363  0.07017  0.28612  1.0000
  H   H30       1.0  0.19593  0.47964  0.99936  1.0000
  S   S64       1.0  0.01818  0.27036  0.16986  1.0000
  H   H31       1.0  0.21058  0.19613  0.06392  1.0000
  H   H32       1.0  0.20502  0.21686  0.07889  1.0000
  C   C17       1.0  0.17575  0.04222  0.20615  1.0000
  H   H33       1.0  0.10391  0.30712  0.98236  1.0000
  C   C18       1.0  0.12337  0.28803  0.06276  1.0000
  C   C19       1.0  0.11083  0.30050  0.05939  1.0000
  C   C20       1.0  0.10673  0.31332  0.06669  1.0000
  C   C21       1.0  0.11501  0.31361  0.07754  1.0000
  C   C22       1.0  0.12763  0.30119  0.08082  1.0000
  C   C23       1.0  0.13192  0.28853  0.07330  1.0000
  H   H34       1.0  0.10430  0.30032  0.05113  1.0000
  H   H35       1.0  0.09703  0.32296  0.06403  1.0000
  H   H36       1.0  0.13402  0.30125  0.08925  1.0000
  H   H37       1.0  0.14166  0.27900  0.07597  1.0000
  C   C24       1.0  0.11729  0.20648  0.05812  1.0000
  C   C25       1.0  0.12758  0.19247  0.05507  1.0000
  C   C26       1.0  0.14178  0.18741  0.06016  1.0000
  C   C27       1.0  0.14535  0.19594  0.06894  1.0000
  C   C28       1.0  0.13454  0.20934  0.07289  1.0000
  C   C29       1.0  0.12073  0.21484  0.06713  1.0000
  H   H38       1.0  0.12475  0.18580  0.04841  1.0000
  H   H39       1.0  0.14981  0.17683  0.05746  1.0000
  H   H40       1.0  0.13695  0.21562  0.08018  1.0000
  H   H41       1.0  0.11267  0.22547  0.06982  1.0000
  C   C30       1.0  0.08917  0.31729  0.20726  1.0000
  C   C31       1.0  0.10226  0.31069  0.19670  1.0000
  C   C32       1.0  0.10650  0.31895  0.18109  1.0000
  C   C33       1.0  0.09789  0.33407  0.17609  1.0000
  C   C34       1.0  0.08506  0.34084  0.18676  1.0000
  C   C35       1.0  0.08054  0.33239  0.20222  1.0000
  H   H42       1.0  0.10905  0.29906  0.20058  1.0000
  H   H43       1.0  0.11643  0.31362  0.17299  1.0000
  H   H44       1.0  0.07844  0.35259  0.18304  1.0000
  H   H45       1.0  0.07059  0.33766  0.21034  1.0000
  C   C36       1.0  0.02316  0.33972  0.30259  1.0000
  C   C37       1.0  0.01881  0.33825  0.31899  1.0000
  C   C38       1.0  0.01341  0.35163  0.32562  1.0000
  H   H46       1.0  0.18972  0.00312  0.21860  1.0000
  H   H47       1.0  0.16897  0.03655  0.23770  1.0000
  H   H48       1.0  0.19582  0.01388  0.12452  1.0000
  H   H49       1.0  0.14023  0.19262  1.00000  1.0000
  H   H50       1.0  0.12116  0.21847  0.99577  1.0000
  N   N2        1.0  0.00930  0.28834  0.40062  1.0000
  C   C39       1.0  0.01612  0.21151  0.39309  1.0000
  C   C40       1.0  0.02838  0.21876  0.39166  1.0000
  S   S65       1.0  0.00333  0.47946  0.45066  1.0000
  H   H51       1.0  0.09026  0.09136  0.29384  1.0000
  S   S66       1.0  0.21900  0.44960  0.99552  1.0000
  H   H52       1.0  0.19930  0.08597  0.28462  1.0000
  H   H53       1.0  0.03901  0.21682  0.38271  1.0000
  C   C41       1.0  0.01903  0.27757  0.39026  1.0000
  H   H54       1.0  0.18716  0.01358  0.19921  1.0000
  S   S67       1.0  0.99458  0.45324  0.42815  1.0000
  C   C42       1.0  0.05870  0.23754  0.30207  1.0000
  C   C43       1.0  0.06571  0.24549  0.28730  1.0000
  C   C44       1.0  0.05651  0.25430  0.27635  1.0000
  C   C45       1.0  0.04028  0.25511  0.28013  1.0000
  C   C46       1.0  0.03332  0.24687  0.29473  1.0000
  C   C47       1.0  0.04249  0.23824  0.30575  1.0000
  H   H55       1.0  0.07824  0.24500  0.28438  1.0000
  H   H56       1.0  0.06196  0.26058  0.26503  1.0000
  H   H57       1.0  0.02073  0.24766  0.29777  1.0000
  H   H58       1.0  0.03690  0.23263  0.31729  1.0000
  H   H59       1.0  0.00138  0.10268  0.26599  1.0000
  C   C48       1.0  0.03591  0.09715  0.23904  1.0000
  H   H60       1.0  0.07867  0.12150  0.31806  1.0000
  H   H61       1.0  0.16564  0.12943  0.36639  1.0000
  C   C49       1.0  0.19361  0.31170  0.09854  1.0000
  H   H62       1.0  0.15288  0.43582  0.00678  1.0000
  C   C50       1.0  0.18892  0.01484  0.21042  1.0000
  H   H63       1.0  0.20391  0.05114  0.31726  1.0000
  H   H64       1.0  0.01795  0.27387  0.42096  1.0000
  H   H65       1.0  0.17416  0.39401  0.00951  1.0000
  C   C51       1.0  0.21073  0.46578  0.08825  1.0000
  C   C52       1.0  0.02555  0.27662  0.10809  1.0000
  C   C53       1.0  0.01818  0.16892  0.32597  1.0000
  C   C54       1.0  0.03179  0.16233  0.31608  1.0000
  C   C55       1.0  0.03050  0.15533  0.30464  1.0000
  C   C56       1.0  0.01564  0.15503  0.30298  1.0000
  C   C57       1.0  0.22619  0.10524  0.25275  1.0000
  H   H66       1.0  0.01910  0.17432  0.33483  1.0000
  H   H67       1.0  0.04098  0.15027  0.29691  1.0000
  C   C58       1.0  0.22407  0.40845  0.98339  1.0000
  C   C59       1.0  0.18504  0.17796  0.98858  1.0000
  C   C60       1.0  0.18867  0.41442  0.01310  1.0000
  C   C61       1.0  0.14225  0.14805  0.34348  1.0000
  C   C62       1.0  0.13599  0.13662  0.35567  1.0000
  C   C63       1.0  0.12007  0.13997  0.36347  1.0000
  C   C64       1.0  0.11018  0.15453  0.35877  1.0000
  C   C65       1.0  0.11634  0.16575  0.34629  1.0000
  C   C66       1.0  0.13237  0.16260  0.33885  1.0000
  H   H68       1.0  0.14340  0.12528  0.35922  1.0000
  H   H69       1.0  0.11534  0.13121  0.37305  1.0000
  H   H70       1.0  0.10884  0.17702  0.34262  1.0000
  H   H71       1.0  0.13712  0.17150  0.32945  1.0000
  C   C67       1.0  0.00199  0.16159  0.31285  1.0000
  H   H72       1.0  0.20515  0.11496  0.28743  1.0000
  C   C68       1.0  0.06468  0.09188  0.27249  1.0000
  C   C69       1.0  0.07049  0.09967  0.25723  1.0000
  C   C70       1.0  0.06155  0.11391  0.25037  1.0000
  C   C71       1.0  0.04670  0.12035  0.25868  1.0000
  C   C72       1.0  0.04098  0.11267  0.27403  1.0000
  C   C73       1.0  0.04991  0.09840  0.28089  1.0000
  H   H73       1.0  0.08177  0.09462  0.25058  1.0000
  H   H74       1.0  0.06603  0.11979  0.23846  1.0000
  H   H75       1.0  0.02970  0.11770  0.28065  1.0000
  H   H76       1.0  0.04540  0.09244  0.29275  1.0000
  C   C74       1.0  0.14987  0.08268  0.29419  1.0000
  C   C75       1.0  0.15144  0.09376  0.30142  1.0000
  C   C76       1.0  0.15757  0.08890  0.31499  1.0000
  C   C77       1.0  0.16274  0.07293  0.32109  1.0000
  C   C78       1.0  0.16059  0.06177  0.31424  1.0000
  C   C79       1.0  0.15408  0.06664  0.30081  1.0000
  H   H77       1.0  0.14799  0.10618  0.29649  1.0000
  H   H78       1.0  0.15835  0.09756  0.32068  1.0000
  H   H79       1.0  0.16441  0.04938  0.31904  1.0000
  H   H80       1.0  0.15277  0.05802  0.29533  1.0000
  C   C80       1.0  0.20695  0.09571  0.10657  1.0000
  C   C81       1.0  0.20377  0.08802  0.09676  1.0000
  C   C82       1.0  0.20256  0.09593  0.08127  1.0000
  C   C83       1.0  0.20461  0.11145  0.07557  1.0000
  C   C84       1.0  0.20807  0.11892  0.08536  1.0000
  C   C85       1.0  0.20902  0.11118  0.10083  1.0000
  H   H81       1.0  0.20223  0.07605  0.10109  1.0000
  H   H82       1.0  0.19994  0.09004  0.07372  1.0000
  H   H83       1.0  0.21003  0.13068  0.08104  1.0000
  H   H84       1.0  0.21145  0.11720  0.10838  1.0000
  C   C86       1.0  0.14845  0.05216  0.18058  1.0000
  C   C87       1.0  0.15210  0.06701  0.17544  1.0000
  C   C88       1.0  0.14620  0.07791  0.18514  1.0000
  C   C89       1.0  0.13675  0.07392  0.20009  1.0000
  C   C90       1.0  0.13252  0.05932  0.20496  1.0000
  C   C91       1.0  0.13815  0.04854  0.19509  1.0000
  H   H85       1.0  0.15955  0.07009  0.16398  1.0000
  H   H86       1.0  0.14932  0.08927  0.18123  1.0000
  H   H87       1.0  0.12497  0.05629  0.21634  1.0000
  H   H88       1.0  0.13500  0.03720  0.19899  1.0000
  H   H89       1.0  0.18660  0.11015  0.24332  1.0000
  H   H90       1.0  0.15413  0.14393  0.06852  1.0000
  H   H91       1.0  0.16691  0.15647  0.08871  1.0000
  H   H92       1.0  0.06281  0.31011  0.10591  1.0000
  H   H93       1.0  0.15078  0.03112  0.22484  1.0000
  C   C92       1.0  0.22666  0.06451  0.28179  1.0000
  H   H94       1.0  0.14611  0.23142  0.01426  1.0000
  C   C93       1.0  0.17904  0.42109  0.98927  1.0000
  Fe  Fe35      1.0  0.00913  0.26533  0.15147  1.0000
  H   H95       1.0  0.19318  0.30071  0.10773  1.0000
  C   C94       1.0  0.17108  0.14376  0.08843  1.0000
  H   H96       1.0  0.19355  0.08166  0.24379  1.0000
  H   H97       1.0  0.15562  0.19031  0.00991  1.0000
  C   C95       1.0  0.22899  0.21953  0.07303  1.0000
  H   H98       1.0  0.15617  0.13052  0.11707  1.0000
  H   H99       1.0  0.22273  0.06575  0.36854  1.0000
  H   H100      1.0  0.00289  0.30673  0.38115  1.0000
  C   C96       1.0  0.16764  0.39891  0.06936  1.0000
  C   C97       1.0  0.15527  0.39112  0.07275  1.0000
  C   C98       1.0  0.15517  0.37689  0.08403  1.0000
  C   C99       1.0  0.16746  0.37041  0.09199  1.0000
  C   C100      1.0  0.17979  0.37822  0.08865  1.0000
  C   C101      1.0  0.17992  0.39240  0.07735  1.0000
  H   H101      1.0  0.14573  0.39609  0.06662  1.0000
  H   H102      1.0  0.14563  0.37095  0.08648  1.0000
  H   H103      1.0  0.18934  0.37328  0.09478  1.0000
  H   H104      1.0  0.18951  0.39830  0.07481  1.0000
  H   H105      1.0  0.17215  0.11299  0.09888  1.0000
  H   H106      1.0  0.17064  0.11838  0.07869  1.0000
  H   H107      1.0  0.16863  0.42402  0.98392  1.0000
  H   H108      1.0  0.11035  0.01992  0.27458  1.0000
  H   H109      1.0  0.04338  0.08984  0.24750  1.0000
  H   H110      1.0  0.15866  0.02125  0.20874  1.0000
  C   C102      1.0  0.00085  0.22406  0.41494  1.0000
  S   S68       1.0  0.23247  0.10318  0.30150  1.0000
  H   H111      1.0  0.07640  0.13805  0.30195  1.0000
  C   C103      1.0  0.16378  0.43256  0.01141  1.0000
  H   H112      1.0  0.16473  0.21291  0.98954  1.0000
  H   H113      1.0  0.07350  0.28143  0.08014  1.0000
  H   H114      1.0  0.15335  0.00322  0.18471  1.0000
  C   C104      1.0  0.22848  0.08129  0.37920  1.0000
  H   H115      1.0  0.10081  0.28451  0.09156  1.0000
  H   H116      1.0  0.05194  0.34893  0.15537  1.0000
  H   H117      1.0  0.18581  0.41127  0.02616  1.0000
  H   H118      1.0  0.08601  0.09442  0.31343  1.0000
  H   H119      1.0  0.01136  0.11989  0.23181  1.0000
  H   H120      1.0  0.17347  0.08030  0.25311  1.0000
  N   N3        1.0  0.15779  0.13592  0.09212  1.0000
  H   H121      1.0  0.18278  0.07350  0.23521  1.0000
  C   C105      1.0  0.07521  0.12560  0.30649  1.0000
  S   S69       1.0  0.00456  0.34914  0.40227  1.0000
  C   C106      1.0  0.14749  0.14400  0.08087  1.0000
  C   C107      1.0  0.21519  0.11071  0.27882  1.0000
  H   H122      1.0  0.13848  0.13099  0.11144  1.0000
  H   H123      1.0  0.01729  0.28261  0.22152  1.0000
  H   H124      1.0  0.00399  0.08051  0.25397  1.0000
  C   C108      1.0  0.21527  0.99426  0.12798  1.0000
  H   H125      1.0  0.00973  0.29397  0.42200  1.0000
  H   H126      1.0  0.04463  0.20901  0.29710  1.0000
  C   C109      1.0  0.17895  0.15455  0.98575  1.0000
  H   H127      1.0  0.01611  0.19937  0.27182  1.0000
  H   H128      1.0  0.08092  0.26853  0.32042  1.0000
  H   H129      1.0  0.20822  0.32943  0.07265  1.0000
  N   N4        1.0  0.16446  0.98670  0.16973  1.0000
  H   H130      1.0  0.01630  0.18916  0.29177  1.0000
  H   H131      1.0  0.21894  0.33635  0.08239  1.0000
  C   C110      1.0  0.01252  0.36665  0.31589  1.0000
  C   C111      1.0  0.03327  0.20617  0.29757  1.0000
  H   H132      1.0  0.00006  0.31311  0.39889  1.0000
  H   H133      1.0  0.20950  0.04336  0.28500  1.0000
  H   H134      1.0  0.15556  0.40745  0.00816  1.0000
  H   H135      1.0  0.03801  0.10928  0.23611  1.0000
  N   N5        1.0  0.13582  0.37583  0.14189  1.0000
  C   C112      1.0  0.12794  0.37702  0.12922  1.0000
  C   C113      1.0  0.14867  0.38450  0.13548  1.0000
  C   C114      1.0  0.14244  0.35915  0.14811  1.0000
  C   C115      1.0  0.12421  0.38257  0.15469  1.0000
  H   H136      1.0  0.13636  0.37195  0.11940  1.0000
  H   H137      1.0  0.12287  0.38945  0.12415  1.0000
  H   H138      1.0  0.11813  0.37064  0.13366  1.0000
  H   H139      1.0  0.15498  0.38379  0.14466  1.0000
  H   H140      1.0  0.15753  0.37961  0.12573  1.0000
  H   H141      1.0  0.14412  0.39714  0.13060  1.0000
  H   H142      1.0  0.14825  0.35774  0.15789  1.0000
  H   H143      1.0  0.15143  0.35375  0.13882  1.0000
  H   H144      1.0  0.13311  0.35216  0.15274  1.0000
  H   H145      1.0  0.12972  0.38188  0.16448  1.0000
  H   H146      1.0  0.11446  0.37609  0.15973  1.0000
  H   H147      1.0  0.11882  0.39512  0.15041  1.0000
  H   H148      1.0  0.19300  0.30914  0.08743  1.0000
  C   C116      1.0  0.12531  0.22183  0.00460  1.0000
  H   H149      1.0  0.18521  0.43101  0.98428  1.0000
  H   H150      1.0  0.23818  0.07501  0.14171  1.0000
  C   C117      1.0  0.01661  0.08092  0.24883  1.0000
  H   H151      1.0  0.14904  0.00950  0.16558  1.0000
  H   H152      1.0  0.11724  0.21880  0.01622  1.0000
  H   H153      1.0  0.22263  0.20554  0.10768  1.0000
  H   H154      1.0  0.04028  0.09261  0.22805  1.0000
  C   C118      1.0  0.01678  0.28614  0.41387  1.0000
  C   C119      1.0  0.20229  0.07814  0.29569  1.0000
  H   H155      1.0  0.09367  0.00084  0.27901  1.0000
  Fe  Fe36      1.0  0.00132  0.29364  0.16621  1.0000
  C   C120      1.0  0.23474  0.05120  0.18525  1.0000
  C   C121      1.0  0.01237  0.27292  0.23013  1.0000
  C   C122      1.0  0.09089  0.23674  0.98255  1.0000
  H   H156      1.0  0.22472  0.06268  0.20477  1.0000
  C   C123      1.0  0.14335  0.19667  0.00904  1.0000
  C   C124      1.0  0.04887  0.25898  0.08826  1.0000
  H   H157      1.0  0.18376  0.11334  0.20984  1.0000
  C   C125      1.0  0.16636  0.40500  0.01282  1.0000
  H   H158      1.0  0.08012  0.29930  0.07582  1.0000
  H   H159      1.0  0.16098  0.09080  0.22284  1.0000
  H   H160      1.0  0.14411  0.14904  0.10968  1.0000
  H   H161      1.0  0.01983  0.26791  0.23897  1.0000
  S   S70       1.0  0.21233  0.09687  0.37541  1.0000
  H   H162      1.0  0.15170  0.09759  0.24072  1.0000
  N   N6        1.0  0.05627  0.32535  0.16919  1.0000
  C   C126      1.0  0.04623  0.32015  0.16214  1.0000
  C   C127      1.0  0.04704  0.32984  0.18412  1.0000
  C   C128      1.0  0.06193  0.33905  0.15817  1.0000
  C   C129      1.0  0.06984  0.31237  0.17233  1.0000
  H   H163      1.0  0.03584  0.32965  0.15963  1.0000
  H   H164      1.0  0.04160  0.30990  0.17014  1.0000
  H   H165      1.0  0.05279  0.31665  0.15087  1.0000
  H   H166      1.0  0.05404  0.33443  0.18948  1.0000
  H   H167      1.0  0.03629  0.33913  0.18239  1.0000
  H   H168      1.0  0.04321  0.31962  0.19296  1.0000
  C   C130      1.0  0.00678  0.32213  0.18092  1.0000
  H   H169      1.0  0.06925  0.34353  0.16322  1.0000
  C   C131      1.0  0.22422  0.41950  0.99154  1.0000
  H   H170      1.0  0.07757  0.30916  0.16127  1.0000
  H   H171      1.0  0.06594  0.30167  0.18014  1.0000
  H   H172      1.0  0.07722  0.31563  0.17835  1.0000
  N   N7        1.0  0.03228  0.20486  0.28201  1.0000
  H   H173      1.0  0.02356  0.21547  0.30214  1.0000
  H   H174      1.0  0.23311  0.30882  0.09132  1.0000
  H   H175      1.0  0.23414  0.05303  0.27952  1.0000
  H   H176      1.0  0.99869  0.42265  0.42251  1.0000
  H   H177      1.0  0.21337  0.47770  0.08342  1.0000
  H   H178      1.0  0.19780  0.34124  0.08682  1.0000
  C   C132      1.0  0.03161  0.26076  0.11396  1.0000
  C   C133      1.0  0.20827  0.33172  0.08407  1.0000
  S   S71       1.0  0.22430  0.23437  0.08364  1.0000
  H   H179      1.0  0.17936  0.99807  0.12057  1.0000
  H   H180      1.0  0.00693  0.20955  0.28761  1.0000
  S   S72       1.0  0.02497  0.25144  0.13359  1.0000
  H   H181      1.0  0.20816  0.31033  0.12132  1.0000
  C   C134      1.0  0.03307  0.22009  0.27077  1.0000
  H   H182      1.0  0.16274  0.40264  0.02592  1.0000
  S   S73       1.0  0.99928  0.16849  0.26629  1.0000
  N   N8        1.0  0.14187  0.21388  0.00504  1.0000
  C   C135      1.0  0.01725  0.20059  0.28333  1.0000
  H   H183      1.0  0.01765  0.30818  0.21614  1.0000
  H   H184      1.0  0.12376  0.23486  0.00148  1.0000
  C   C136      1.0  0.22202  0.30505  0.09265  1.0000
  C   C137      1.0  0.10171  0.11581  0.29286  1.0000
  H   H185      1.0  0.02363  0.07266  0.25728  1.0000
  H   H186      1.0  0.01383  0.26366  0.22366  1.0000
  C   C138      1.0  0.11528  0.00919  0.27029  1.0000
  H   H187      1.0  0.15108  0.23141  0.98599  1.0000
  C   C139      1.0  0.00328  0.16847  0.32440  1.0000
  C   C140      1.0  0.10585  0.99837  0.27278  1.0000
  C   C141      1.0  0.19090  0.99244  0.12296  1.0000
  H   H188      1.0  0.13546  0.19290  0.02052  1.0000
  H   H189      1.0  0.18277  0.32052  0.10206  1.0000
  C   C142      1.0  0.03112  0.28361  0.09231  1.0000
  C   C143      1.0  0.23538  0.19578  0.05625  1.0000
  N   N9        1.0  0.17041  0.24168  0.06541  1.0000
  C   C144      1.0  0.17874  0.22681  0.06033  1.0000
  C   C145      1.0  0.17903  0.24487  0.07547  1.0000
  C   C146      1.0  0.15432  0.24033  0.07438  1.0000
  C   C147      1.0  0.16948  0.25473  0.05145  1.0000
  H   H190      1.0  0.17236  0.22391  0.05298  1.0000
  H   H191      1.0  0.17973  0.21672  0.07058  1.0000
  H   H192      1.0  0.19089  0.22738  0.05334  1.0000
  H   H193      1.0  0.17318  0.25614  0.07930  1.0000
  H   H194      1.0  0.17967  0.23543  0.08629  1.0000
  H   H195      1.0  0.19135  0.24566  0.06919  1.0000
  H   H196      1.0  0.14781  0.25111  0.07885  1.0000
  H   H197      1.0  0.15453  0.23019  0.08465  1.0000
  H   H198      1.0  0.14728  0.23869  0.06687  1.0000
  H   H199      1.0  0.16312  0.26610  0.05487  1.0000
  H   H200      1.0  0.16289  0.25279  0.04368  1.0000
  H   H201      1.0  0.18140  0.25611  0.04436  1.0000
  N   N10       1.0  0.06030  0.28178  0.31151  1.0000
  C   C148      1.0  0.06915  0.29169  0.29806  1.0000
  C   C149      1.0  0.04729  0.27866  0.30677  1.0000
  C   C150      1.0  0.05373  0.29005  0.32462  1.0000
  C   C151      1.0  0.07103  0.26673  0.31656  1.0000
  H   H202      1.0  0.06138  0.30308  0.29377  1.0000
  H   H203      1.0  0.07439  0.28576  0.28797  1.0000
  C   C152      1.0  0.20796  0.32101  0.11164  1.0000
  H   H204      1.0  0.03847  0.28961  0.30367  1.0000
  H   H205      1.0  0.05170  0.27344  0.29625  1.0000
  H   H206      1.0  0.04102  0.27034  0.31625  1.0000
  H   H207      1.0  0.04569  0.30153  0.32102  1.0000
  H   H208      1.0  0.06320  0.29259  0.32856  1.0000
  H   H209      1.0  0.04686  0.28296  0.33489  1.0000
  H   H210      1.0  0.06474  0.25872  0.32646  1.0000
  H   H211      1.0  0.22669  0.20208  0.12674  1.0000
  C   C153      1.0  0.15212  0.21846  0.98949  1.0000
  N   N11       1.0  0.04725  0.16287  0.40839  1.0000
  C   C154      1.0  0.04715  0.16071  0.42518  1.0000
  C   C155      1.0  0.03129  0.16347  0.40670  1.0000
  C   C156      1.0  0.05855  0.14964  0.40210  1.0000
  C   C157      1.0  0.05200  0.17775  0.39955  1.0000
  H   H212      1.0  0.05899  0.16038  0.42681  1.0000
  H   H213      1.0  0.04368  0.14954  0.43222  1.0000
  H   H214      1.0  0.03867  0.17050  0.43025  1.0000
  H   H215      1.0  0.02255  0.17365  0.41087  1.0000
  H   H216      1.0  0.03099  0.16494  0.39416  1.0000
  H   H217      1.0  0.02712  0.15258  0.41341  1.0000
  H   H218      1.0  0.05537  0.13818  0.40843  1.0000
  H   H219      1.0  0.07077  0.14897  0.40296  1.0000
  H   H220      1.0  0.05899  0.15097  0.38941  1.0000
  H   H221      1.0  0.05138  0.18008  0.38705  1.0000
  H   H222      1.0  0.06431  0.17749  0.39975  1.0000
  H   H223      1.0  0.04410  0.18795  0.40434  1.0000
  H   H224      1.0  0.15431  0.11290  0.09385  1.0000
  H   H225      1.0  0.14248  0.15650  0.08170  1.0000
  H   H226      1.0  0.22452  0.07215  0.27029  1.0000
  S   S74       1.0  0.23651  0.41494  0.06938  1.0000
  C   C158      1.0  0.21989  0.43557  0.98517  1.0000
  C   C159      1.0  0.20019  0.00140  0.12520  1.0000
  H   H227      1.0  0.09495  0.27438  0.11144  1.0000
  H   H228      1.0  0.20868  0.08403  0.30040  1.0000
  H   H229      1.0  0.15708  0.15819  0.36275  1.0000
  N   N12       1.0  0.21171  0.06258  0.29320  1.0000
  H   H230      1.0  0.01013  0.35032  0.33825  1.0000
  C   C160      1.0  0.18281  0.16262  0.99491  1.0000
  H   H231      1.0  0.05778  0.25206  0.08066  1.0000
  C   C161      1.0  0.00236  0.21423  0.40475  1.0000
  H   H232      1.0  0.20052  0.01812  0.20780  1.0000
  H   H233      1.0  0.13899  0.21564  0.02889  1.0000
  H   H234      1.0  0.22741  0.39602  0.98833  1.0000
  C   C162      1.0  0.23009  0.10528  0.28239  1.0000
  N   N13       1.0  0.08490  0.11560  0.29533  1.0000
  H   H235      1.0  0.03106  0.27993  0.38535  1.0000
  H   H236      1.0  0.08328  0.30937  0.09703  1.0000
  C   C163      1.0  0.07993  0.12165  0.28016  1.0000
  H   H237      1.0  0.16335  0.16831  0.37355  1.0000
  H   H238      1.0  0.14953  0.15586  0.38352  1.0000
  H   H239      1.0  0.17889  0.13830  0.09693  1.0000
  S   S75       1.0  0.22787  0.27286  0.13152  1.0000
  S   S76       1.0  0.22676  0.04348  0.14350  1.0000
  H   H240      1.0  0.04780  0.23963  0.10840  1.0000
  C   C164      1.0  0.15110  0.99901  0.17527  1.0000
  H   H241      1.0  0.19102  0.07719  0.30429  1.0000
  C   C165      1.0  0.14872  0.13665  0.10830  1.0000
  H   H242      1.0  0.17846  0.14292  0.07650  1.0000
  C   C166      1.0  0.18735  0.14544  0.36375  1.0000
  H   H243      1.0  0.04539  0.18094  0.28474  1.0000
  H   H244      1.0  0.20160  0.11445  0.26148  1.0000
  C   C167      1.0  0.16030  0.15707  0.37410  1.0000
  Fe  Fe37      1.0  0.21417  0.02653  0.14071  1.0000
  H   H245      1.0  0.19947  0.10080  0.21884  1.0000
  H   H246      1.0  0.09192  0.24392  0.00302  1.0000
  S   S77       1.0  0.23947  0.18089  0.04584  1.0000
  N   N14       1.0  0.20797  0.31738  0.09671  1.0000
  H   H247      1.0  0.16662  0.10855  0.25283  1.0000
  H   H248      1.0  0.15836  0.12702  0.38718  1.0000
  H   H249      1.0  0.02874  0.28874  0.40971  1.0000
  C   C168      1.0  0.18176  0.08278  0.24152  1.0000
  H   H250      1.0  0.08156  0.13387  0.27480  1.0000
  C   C169      1.0  0.21503  0.05265  0.30837  1.0000
  C   C170      1.0  0.04288  0.27484  0.08239  1.0000
  H   H251      1.0  0.05711  0.19534  0.27533  1.0000
  C   C171      1.0  0.08278  0.09929  0.30179  1.0000
  S   S78       1.0  0.01214  0.24318  0.42640  1.0000
  H   H252      1.0  0.06726  0.12180  0.28163  1.0000
  H   H253      1.0  0.16043  0.01083  0.22840  1.0000
  C   C172      1.0  0.16082  0.02227  0.21987  1.0000
  H   H254      1.0  0.03250  0.19497  0.30639  1.0000
  H   H255      1.0  0.07629  0.26032  0.30682  1.0000
  H   H256      1.0  0.17450  0.04172  0.19445  1.0000
  H   H257      1.0  0.19727  0.32996  0.11530  1.0000
  H   H258      1.0  0.10935  0.10844  0.28443  1.0000
  C   C173      1.0  0.23398  0.45723  0.09916  1.0000
  H   H259      1.0  0.10592  0.11113  0.30405  1.0000
  H   H260      1.0  0.06669  0.27558  0.12368  1.0000
  H   H261      1.0  0.10379  0.12794  0.28810  1.0000
  H   H262      1.0  0.22765  0.41559  0.00275  1.0000
  H   H263      1.0  0.13999  0.99463  0.18002  1.0000
  H   H264      1.0  0.02553  0.35602  0.28020  1.0000
  N   N15       1.0  0.17619  0.09861  0.23229  1.0000
  C   C174      1.0  0.02210  0.35473  0.29283  1.0000
  H   H265      1.0  0.20251  0.46602  0.09990  1.0000
  H   H266      1.0  0.17063  0.12260  0.23467  1.0000
  C   C175      1.0  0.18755  0.10147  0.21709  1.0000
  H   H267      1.0  0.02643  0.29589  0.08779  1.0000
  S   S79       1.0  0.20203  0.02175  0.16611  1.0000
  S   S80       1.0  0.22354  0.10402  0.23474  1.0000
  H   H268      1.0  0.00127  0.28531  0.25589  1.0000
  C   C176      1.0  0.13739  0.99192  0.25716  1.0000
  C   C177      1.0  0.07479  0.30239  0.10536  1.0000
  C   C178      1.0  0.07218  0.29208  0.08459  1.0000
  H   H269      1.0  0.09323  0.26723  0.09545  1.0000
  H   H270      1.0  0.05988  0.29892  0.08469  1.0000
  H   H271      1.0  0.23182  0.42845  0.09774  1.0000
  S   S81       1.0  0.22718  0.00527  0.13065  1.0000
  N   N16       1.0  0.07581  0.28789  0.10034  1.0000
  C   C179      1.0  0.09189  0.27804  0.09970  1.0000
  H   H272      1.0  0.07758  0.29969  0.11715  1.0000
  N   N17       1.0  0.17601  0.02677  0.21718  1.0000
  H   H273      1.0  0.23740  0.46877  0.09372  1.0000
  C   C180      1.0  0.23532  0.45292  0.07369  1.0000
  Fe  Fe38      1.0  0.21266  0.04039  0.16825  1.0000
  C   C181      1.0  0.00190  0.34303  0.19476  1.0000
  H   H274      1.0  0.16574  0.05141  0.21056  1.0000
  C   C182      1.0  0.06436  0.27903  0.11164  1.0000
  C   C183      1.0  0.09296  0.24717  0.99042  1.0000
  C   C184      1.0  0.17855  0.02772  0.23227  1.0000
  C   C185      1.0  0.02698  0.22840  0.40197  1.0000
  S   S82       1.0  0.21989  0.04055  0.19001  1.0000
  C   C186      1.0  0.13112  0.00590  0.26263  1.0000
  S   S83       1.0  0.00530  0.38384  0.32370  1.0000
  H   H275      1.0  0.02324  0.22968  0.27466  1.0000
  N   N18       1.0  0.22528  0.45351  0.08954  1.0000
  C   C187      1.0  0.16881  0.12893  0.37753  1.0000
  C   C188      1.0  0.01289  0.31636  0.20666  1.0000
  H   H276      1.0  0.22164  0.05803  0.31340  1.0000
  N   N19       1.0  0.17351  0.14350  0.37681  1.0000
  H   H277      1.0  0.16743  0.14092  0.40191  1.0000
  H   H278      1.0  0.19446  0.42458  0.00958  1.0000
  H   H279      1.0  0.22915  0.45002  0.06619  1.0000
  H   H280      1.0  0.01280  0.10381  0.22318  1.0000
  Fe  Fe39      1.0  0.99424  0.36916  0.38437  1.0000
  H   H281      1.0  0.22208  0.29409  0.10200  1.0000
  H   H282      1.0  0.19741  0.13518  0.36522  1.0000
  H   H283      1.0  0.19988  0.06247  0.27571  1.0000
  C   C189      1.0  0.00175  0.33803  0.18149  1.0000
  H   H284      1.0  0.21382  0.43790  0.10917  1.0000
  C   C190      1.0  0.20275  0.05516  0.28704  1.0000
  C   C191      1.0  0.17761  0.14245  0.39180  1.0000
  H   H285      1.0  0.08827  0.22551  0.98916  1.0000
  C   C192      1.0  0.01693  0.36812  0.29948  1.0000
  C   C193      1.0  0.23093  0.06726  0.37441  1.0000
  C   C194      1.0  0.01407  0.10252  0.26060  1.0000
  H   H286      1.0  0.18129  0.15323  0.39169  1.0000
  H   H287      1.0  0.17854  0.11841  0.37942  1.0000
  H   H288      1.0  0.01477  0.14963  0.29409  1.0000
  C   C195      1.0  0.09627  0.26176  0.98200  1.0000
  H   H289      1.0  0.18454  0.14649  0.35223  1.0000
  H   H290      1.0  0.18681  0.04627  0.20420  1.0000
  S   S84       1.0  0.19063  0.18831  0.99922  1.0000
  H   H291      1.0  0.18423  0.15688  0.00675  1.0000
  H   H292      1.0  0.23048  0.17112  0.10530  1.0000
  N   N20       1.0  0.17445  0.41827  0.00663  1.0000
  H   H293      1.0  0.18752  0.13223  0.39411  1.0000
  C   C196      1.0  0.00957  0.10767  0.23450  1.0000
  C   C197      1.0  0.04316  0.25195  0.10396  1.0000
  H   H294      1.0  0.19139  0.15621  0.36293  1.0000
  Fe  Fe40      1.0  0.00963  0.14475  0.26051  1.0000
  H   H295      1.0  0.23686  0.18697  0.09024  1.0000
  H   H296      1.0  0.07893  0.29445  0.30127  1.0000
  H   H297      1.0  0.17740  0.14261  0.99059  1.0000
  H   H298      1.0  0.16018  0.43084  0.02446  1.0000
  N   N21       1.0  0.24118  0.18545  0.11280  1.0000
  H   H299      1.0  0.00544  0.32288  0.42889  1.0000
  C   C198      1.0  0.00766  0.33225  0.20730  1.0000
  H   H300      1.0  0.01962  0.32669  0.32663  1.0000
  H   H301      1.0  0.21630  0.18971  0.12297  1.0000
  H   H302      1.0  0.02036  0.26508  0.39680  1.0000
  H   H303      1.0  0.04423  0.22368  0.26960  1.0000
  S   S85       1.0  0.00491  0.38886  0.36730  1.0000
  H   H304      1.0  0.01362  0.27868  0.38027  1.0000
  C   C199      1.0  0.01323  0.23109  0.41365  1.0000
  H   H305      1.0  0.01661  0.28352  0.11568  1.0000
  C   C200      1.0  0.22111  0.43808  0.09705  1.0000
  H   H306      1.0  0.04517  0.19109  0.26474  1.0000
  S   S86       1.0  0.00796  0.31654  0.16348  1.0000
  H   H307      1.0  0.01636  0.37969  0.29185  1.0000
  H   H308      1.0  0.18719  0.41057  0.98522  1.0000
  H   H309      1.0  0.22194  0.47916  0.00326  1.0000
  C   C201      1.0  0.99332  0.24811  0.11093  1.0000
  H   H310      1.0  0.06934  0.33602  0.14692  1.0000
  C   C202      1.0  0.23909  0.08297  0.38707  1.0000
  H   H311      1.0  0.14963  0.98931  0.25122  1.0000
  H   H312      1.0  0.20428  0.46385  0.08034  1.0000
  H   H313      1.0  0.22243  0.30192  0.08149  1.0000
  C   C203      1.0  0.99424  0.32520  0.42565  1.0000
  C   C204      1.0  0.22603  0.19612  0.11778  1.0000
  H   H314      1.0  0.19139  0.05361  0.29543  1.0000
  N   N22       1.0  0.99568  0.27831  0.23761  1.0000
  H   H315      1.0  0.23624  0.16580  0.13169  1.0000
  H   H316      1.0  0.18204  0.99642  0.17329  1.0000
  H   H317      1.0  0.15985  0.99178  0.14660  1.0000
  H   H318      1.0  0.21847  0.32561  0.11061  1.0000
  C   C205      1.0  0.99255  0.43096  0.41391  1.0000
  C   C206      1.0  0.00793  0.30477  0.39159  1.0000
  C   C207      1.0  0.23422  0.06143  0.19458  1.0000
  H   H319      1.0  0.21846  0.47950  0.05093  1.0000
  H   H320      1.0  0.23723  0.09378  0.39087  1.0000
  H   H321      1.0  0.22674  0.45787  0.11118  1.0000
  H   H322      1.0  0.22210  0.04075  0.30703  1.0000
  Fe  Fe41      1.0  0.99733  0.26197  0.18681  1.0000
  H   H323      1.0  0.99877  0.30063  0.23882  1.0000
  S   S87       1.0  0.99675  0.13129  0.28270  1.0000
  H   H324      1.0  0.00429  0.22129  0.23646  1.0000
  H   H325      1.0  0.99739  0.23761  0.14066  1.0000
  H   H326      1.0  0.99787  0.35535  0.19514  1.0000
  C   C208      1.0  0.99435  0.29018  0.24656  1.0000
  H   H327      1.0  0.99409  0.27239  0.41324  1.0000
  H   H328      1.0  0.99657  0.25911  0.25771  1.0000
  H   H329      1.0  0.23873  0.46433  0.06762  1.0000
  H   H330      1.0  0.21718  0.16470  0.98515  1.0000
  H   H331      1.0  0.99329  0.26629  0.12950  1.0000
  H   H332      1.0  0.99364  0.23679  0.10818  1.0000
  H   H333      1.0  0.99275  0.17353  0.33207  1.0000
  H   H334      1.0  0.23121  0.14724  0.98114  1.0000
  C   C209      1.0  0.24123  0.10055  0.25603  1.0000
  H   H335      1.0  0.23860  0.08862  0.34038  1.0000
  C   C210      1.0  0.99344  0.28482  0.40677  1.0000
  Fe  Fe42      1.0  0.99472  0.38349  0.34971  1.0000
  H   H336      1.0  0.99766  0.34653  0.17165  1.0000
  H   H337      1.0  0.23294  0.10286  0.12826  1.0000
  C   C211      1.0  0.99543  0.22017  0.23117  1.0000
  H   H338      1.0  0.99280  0.20869  0.40593  1.0000
  S   S88       1.0  0.99395  0.28941  0.14630  1.0000
  H   H339      1.0  0.17748  0.00371  0.15428  1.0000
  H   H340      1.0  0.23858  0.09788  0.10939  1.0000
  C   C212      1.0  0.99141  0.23146  0.21803  1.0000
  H   H341      1.0  0.99142  0.19863  0.24741  1.0000
  H   H342      1.0  0.14904  0.21479  0.98017  1.0000
  C   C213      1.0  0.23985  0.17801  0.10075  1.0000
  S   S89       1.0  0.99160  0.14727  0.24685  1.0000
  H   H343      1.0  0.18920  0.98424  0.15903  1.0000
  C   C214      1.0  0.11206  0.98442  0.26726  1.0000
  H   H344      1.0  0.23768  0.17948  0.97986  1.0000
  H   H345      1.0  0.22871  0.14309  0.87713  1.0000
  C   C215      1.0  0.18314  0.18527  0.97325  1.0000
  S   S90       1.0  0.01668  0.44594  0.59480  1.0000
  C   C216      1.0  0.04892  0.22179  0.88814  1.0000
  C   C217      1.0  0.21450  0.12239  0.76451  1.0000
  H   H346      1.0  0.03011  0.24848  0.74399  1.0000
  Fe  Fe43      1.0  0.20989  0.41054  0.93696  1.0000
  S   S91       1.0  0.21924  0.39954  0.95898  1.0000
  H   H347      1.0  0.00729  0.15946  0.75402  1.0000
  S   S92       1.0  0.19266  0.42885  0.89956  1.0000
  H   H348      1.0  0.00145  0.25697  0.84420  1.0000
  Fe  Fe44      1.0  0.18743  0.40791  0.91858  1.0000
  S   S93       1.0  0.17232  0.39123  0.91992  1.0000
  S   S94       1.0  0.21752  0.43127  0.91923  1.0000
  S   S95       1.0  0.21272  0.39659  0.91906  1.0000
  Fe  Fe45      1.0  0.06091  0.24093  0.91166  1.0000
  S   S96       1.0  0.06213  0.25610  0.92694  1.0000
  Fe  Fe46      1.0  0.09647  0.23416  0.89908  1.0000
  S   S97       1.0  0.10057  0.24924  0.91272  1.0000
  S   S98       1.0  0.11553  0.22184  0.88203  1.0000
  Fe  Fe47      1.0  0.08347  0.23780  0.93261  1.0000
  S   S99       1.0  0.08915  0.22769  0.95666  1.0000
  Fe  Fe48      1.0  0.07900  0.26597  0.90583  1.0000
  S   S100      1.0  0.07618  0.29165  0.89533  1.0000
  S   S101      1.0  0.08064  0.22143  0.91932  1.0000
  S   S102      1.0  0.07662  0.25198  0.89022  1.0000
  Fe  Fe49      1.0  0.19035  0.18311  0.90546  1.0000
  S   S103      1.0  0.20146  0.17383  0.92634  1.0000
  S   S104      1.0  0.18166  0.20910  0.89848  1.0000
  Fe  Fe50      1.0  0.19409  0.15070  0.89962  1.0000
  S   S105      1.0  0.20454  0.13865  0.92075  1.0000
  S   S106      1.0  0.19660  0.13813  0.88041  1.0000
  Fe  Fe51      1.0  0.18622  0.15634  0.93310  1.0000
  S   S107      1.0  0.17344  0.15128  0.95857  1.0000
  Fe  Fe52      1.0  0.21865  0.15723  0.91225  1.0000
  C   C218      1.0  0.00130  0.33791  0.78893  1.0000
  S   S108      1.0  0.17402  0.16651  0.91284  1.0000
  S   S109      1.0  0.20929  0.16852  0.89053  1.0000
  Fe  Fe53      1.0  0.15318  0.35505  0.86290  1.0000
  S   S110      1.0  0.16502  0.33208  0.87624  1.0000
  S   S111      1.0  0.15786  0.37906  0.86012  1.0000
  Fe  Fe54      1.0  0.13281  0.33987  0.85206  1.0000
  S   S112      1.0  0.14299  0.31568  0.86428  1.0000
  S   S113      1.0  0.11203  0.34600  0.84048  1.0000
  Fe  Fe55      1.0  0.14087  0.32675  0.88422  1.0000
  S   S114      1.0  0.13028  0.31415  0.90821  1.0000
  Fe  Fe56      1.0  0.16619  0.32284  0.85526  1.0000
  S   S115      1.0  0.18755  0.30674  0.84437  1.0000
  S   S116      1.0  0.12888  0.35054  0.87284  1.0000
  S   S117      1.0  0.15634  0.34621  0.84111  1.0000
  H   H349      1.0  0.23186  0.19585  0.86686  1.0000
  H   H350      1.0  0.00241  0.20573  0.87945  1.0000
  Fe  Fe57      1.0  0.16132  0.07856  0.86620  1.0000
  S   S118      1.0  0.18357  0.06043  0.86132  1.0000
  S   S119      1.0  0.15486  0.09012  0.88682  1.0000
  Fe  Fe58      1.0  0.15040  0.07748  0.83809  1.0000
  S   S120      1.0  0.17167  0.05962  0.83055  1.0000
  S   S121      1.0  0.13348  0.08652  0.82206  1.0000
  Fe  Fe59      1.0  0.16838  0.04761  0.85592  1.0000
  S   S122      1.0  0.17337  0.02105  0.86208  1.0000
  Fe  Fe60      1.0  0.18513  0.07362  0.83631  1.0000
  C   C219      1.0  0.09507  0.25555  0.95785  1.0000
  S   S123      1.0  0.14575  0.06445  0.86327  1.0000
  S   S124      1.0  0.16416  0.09292  0.84143  1.0000
  Fe  Fe61      1.0  0.06108  0.05083  0.78863  1.0000
  S   S125      1.0  0.07216  0.05541  0.76287  1.0000
  S   S126      1.0  0.03506  0.05337  0.79851  1.0000
  Fe  Fe62      1.0  0.09257  0.04068  0.79831  1.0000
  S   S127      1.0  0.10613  0.04430  0.77340  1.0000
  S   S128      1.0  0.10634  0.03126  0.81731  1.0000
  Fe  Fe63      1.0  0.08789  0.06661  0.76960  1.0000
  S   S129      1.0  0.09342  0.09036  0.75729  1.0000
  Fe  Fe64      1.0  0.08914  0.03267  0.76930  1.0000
  S   S130      1.0  0.09751  0.01399  0.75501  1.0000
  S   S131      1.0  0.07532  0.06382  0.79499  1.0000
  S   S132      1.0  0.07703  0.02726  0.79464  1.0000
  Fe  Fe65      1.0  0.17588  0.10626  0.72344  1.0000
  S   S133      1.0  0.16944  0.12231  0.74008  1.0000
  S   S134      1.0  0.16611  0.08502  0.72704  1.0000
  Fe  Fe66      1.0  0.20269  0.12132  0.70237  1.0000
  S   S135      1.0  0.19851  0.13892  0.71725  1.0000
  H   H351      1.0  0.01734  0.23228  0.55992  1.0000
  Fe  Fe67      1.0  0.19543  0.11860  0.73782  1.0000
  H   H352      1.0  0.04778  0.27514  0.89753  1.0000
  Fe  Fe68      1.0  0.17274  0.14133  0.71823  1.0000
  S   S136      1.0  0.15500  0.16438  0.71916  1.0000
  S   S137      1.0  0.20160  0.10089  0.72286  1.0000
  S   S138      1.0  0.17715  0.12540  0.70165  1.0000
  C   C220      1.0  0.03761  0.28419  0.89384  1.0000
  C   C221      1.0  0.00621  0.42499  0.64110  1.0000
  H   H353      1.0  0.00768  0.29491  0.66663  1.0000
  S   S139      1.0  0.17917  0.46478  0.92167  1.0000
  Fe  Fe69      1.0  0.08177  0.21072  0.68721  1.0000
  S   S140      1.0  0.07072  0.23590  0.67726  1.0000
  S   S141      1.0  0.10418  0.19493  0.67687  1.0000
  Fe  Fe70      1.0  0.05544  0.20730  0.71539  1.0000
  S   S142      1.0  0.04196  0.23179  0.70855  1.0000
  S   S143      1.0  0.04835  0.18978  0.73730  1.0000
  Fe  Fe71      1.0  0.04799  0.22766  0.68405  1.0000
  S   S144      1.0  0.02647  0.23970  0.67359  1.0000
  Fe  Fe72      1.0  0.06511  0.23871  0.70222  1.0000
  S   S145      1.0  0.06355  0.26170  0.70819  1.0000
  S   S146      1.0  0.05944  0.20222  0.69166  1.0000
  S   S147      1.0  0.07810  0.21445  0.71153  1.0000
  Fe  Fe73      1.0  0.08521  0.30507  0.78868  1.0000
  S   S148      1.0  0.06113  0.32091  0.79250  1.0000
  S   S149      1.0  0.10774  0.30700  0.79377  1.0000
  Fe  Fe74      1.0  0.07325  0.28117  0.77921  1.0000
  S   S150      1.0  0.04833  0.29484  0.78262  1.0000
  S   S151      1.0  0.07922  0.25743  0.77319  1.0000
  Fe  Fe75      1.0  0.05906  0.31573  0.77019  1.0000
  S   S152      1.0  0.04903  0.33479  0.75108  1.0000
  Fe  Fe76      1.0  0.05271  0.29856  0.80436  1.0000
  S   S153      1.0  0.03708  0.29305  0.82828  1.0000
  S   S154      1.0  0.08394  0.30173  0.76528  1.0000
  S   S155      1.0  0.07677  0.28313  0.80198  1.0000
  C   C222      1.0  0.01446  0.40445  0.62642  1.0000
  C   C223      1.0  0.15320  0.98712  0.77660  1.0000
  H   H354      1.0  0.02074  0.41230  0.60116  1.0000
  H   H355      1.0  0.01678  0.27483  0.66526  1.0000
  H   H356      1.0  0.19132  0.07395  0.76876  1.0000
  C   C224      1.0  0.11401  0.38593  0.84983  1.0000
  H   H357      1.0  0.03303  0.27044  0.56547  1.0000
  H   H358      1.0  0.00139  0.26588  0.56261  1.0000
  C   C225      1.0  0.02083  0.22867  0.87776  1.0000
  H   H359      1.0  0.02541  0.30119  0.85957  1.0000
  C   C226      1.0  0.03803  0.31556  0.73960  1.0000
  C   C227      1.0  0.03995  0.33070  0.73817  1.0000
  C   C228      1.0  0.03400  0.34302  0.72660  1.0000
  H   H360      1.0  0.22908  0.23708  0.84374  1.0000
  H   H361      1.0  0.14346  0.38015  0.83268  1.0000
  H   H362      1.0  0.04249  0.30601  0.74849  1.0000
  H   H363      1.0  0.03547  0.35478  0.72537  1.0000
  C   C229      1.0  0.02354  0.23995  0.65506  1.0000
  C   C230      1.0  0.03396  0.23037  0.64516  1.0000
  H   H364      1.0  0.01620  0.03634  0.77992  1.0000
  C   C231      1.0  0.22457  0.11587  0.77504  1.0000
  H   H365      1.0  0.01731  0.39212  0.62613  1.0000
  C   C232      1.0  0.00975  0.24959  0.65058  1.0000
  H   H366      1.0  0.04463  0.22290  0.64850  1.0000
  C   C233      1.0  0.21117  0.13866  0.75875  1.0000
  H   H367      1.0  0.21177  0.43353  0.95141  1.0000
  H   H368      1.0  0.00165  0.25709  0.65812  1.0000
  C   C234      1.0  0.06745  0.25991  0.72661  1.0000
  C   C235      1.0  0.07654  0.24612  0.73392  1.0000
  C   C236      1.0  0.07997  0.24528  0.74837  1.0000
  C   C237      1.0  0.07445  0.25827  0.75543  1.0000
  C   C238      1.0  0.06515  0.27193  0.74826  1.0000
  C   C239      1.0  0.06159  0.27271  0.73393  1.0000
  H   H369      1.0  0.08128  0.23625  0.72828  1.0000
  H   H370      1.0  0.08725  0.23469  0.75386  1.0000
  H   H371      1.0  0.06079  0.28189  0.75375  1.0000
  H   H372      1.0  0.05436  0.28328  0.72844  1.0000
  C   C240      1.0  0.00221  0.30542  0.62547  1.0000
  C   C241      1.0  0.02428  0.12452  0.78608  1.0000
  C   C242      1.0  0.01659  0.27337  0.83775  1.0000
  C   C243      1.0  0.02152  0.28616  0.82657  1.0000
  C   C244      1.0  0.01444  0.29298  0.81368  1.0000
  H   H373      1.0  0.00876  0.09223  0.80381  1.0000
  S   S156      1.0  0.18413  0.42005  0.93819  1.0000
  H   H374      1.0  0.02192  0.26810  0.84779  1.0000
  H   H375      1.0  0.01815  0.30294  0.80515  1.0000
  C   C245      1.0  0.01466  0.18438  0.90232  1.0000
  C   C246      1.0  0.01003  0.19019  0.72272  1.0000
  C   C247      1.0  0.02351  0.19398  0.72401  1.0000
  C   C248      1.0  0.03117  0.18529  0.73613  1.0000
  C   C249      1.0  0.02518  0.17296  0.74712  1.0000
  H   H376      1.0  0.11862  0.29068  0.96301  1.0000
  Fe  Fe77      1.0  0.19182  0.44007  0.91915  1.0000
  H   H377      1.0  0.02793  0.20364  0.71560  1.0000
  H   H378      1.0  0.03098  0.16633  0.75662  1.0000
  C   C250      1.0  0.02104  0.23591  0.77516  1.0000
  C   C251      1.0  0.14235  0.18485  0.94540  1.0000
  C   C252      1.0  0.23522  0.08406  0.81355  1.0000
  C   C253      1.0  0.14159  0.17286  0.70667  1.0000
  C   C254      1.0  0.13054  0.18670  0.70922  1.0000
  C   C255      1.0  0.11922  0.19362  0.70001  1.0000
  C   C256      1.0  0.11881  0.18678  0.68812  1.0000
  C   C257      1.0  0.13000  0.17303  0.68538  1.0000
  C   C258      1.0  0.14134  0.16605  0.69466  1.0000
  H   H379      1.0  0.13078  0.19214  0.71836  1.0000
  H   H380      1.0  0.11107  0.20446  0.70191  1.0000
  H   H381      1.0  0.12985  0.16773  0.67611  1.0000
  H   H382      1.0  0.14987  0.15544  0.69253  1.0000
  H   H383      1.0  0.00920  0.21357  0.68599  1.0000
  S   S157      1.0  0.02126  0.34723  0.66413  1.0000
  C   C259      1.0  0.02500  0.29900  0.87239  1.0000
  H   H384      1.0  0.20333  0.14379  0.75069  1.0000
  C   C260      1.0  0.08682  0.99908  0.76022  1.0000
  H   H385      1.0  0.21311  0.20972  0.84966  1.0000
  H   H386      1.0  0.21821  0.40577  0.86321  1.0000
  C   C261      1.0  0.21027  0.39861  0.87218  1.0000
  H   H387      1.0  0.00614  0.03556  0.76567  1.0000
  C   C262      1.0  0.07348  0.99905  0.77253  1.0000
  H   H388      1.0  0.01222  0.24634  0.77086  1.0000
  H   H389      1.0  0.08942  0.30127  0.96631  1.0000
  H   H390      1.0  0.11675  0.32066  0.97373  1.0000
  H   H391      1.0  0.06961  0.00820  0.77909  1.0000
  C   C263      1.0  0.02240  0.06568  0.78645  1.0000
  C   C264      1.0  0.00614  0.06706  0.79202  1.0000
  H   H392      1.0  0.04289  0.02895  0.73460  1.0000
  H   H393      1.0  0.04381  0.00674  0.75763  1.0000
  C   C265      1.0  0.01780  0.08341  0.76186  1.0000
  C   C266      1.0  0.02823  0.07400  0.77142  1.0000
  H   H394      1.0  0.00158  0.06068  0.80366  1.0000
  C   C267      1.0  0.99738  0.21515  0.68355  1.0000
  H   H395      1.0  0.02229  0.08973  0.75016  1.0000
  H   H396      1.0  0.04072  0.07324  0.76713  1.0000
  C   C268      1.0  0.11359  0.08905  0.74876  1.0000
  C   C269      1.0  0.12293  0.07522  0.74433  1.0000
  C   C270      1.0  0.13903  0.07414  0.73767  1.0000
  C   C271      1.0  0.14586  0.08694  0.73526  1.0000
  C   C272      1.0  0.13653  0.10088  0.73951  1.0000
  C   C273      1.0  0.12040  0.10192  0.74628  1.0000
  H   H397      1.0  0.11768  0.06546  0.74570  1.0000
  H   H398      1.0  0.14616  0.06340  0.73426  1.0000
  H   H399      1.0  0.14173  0.11083  0.73762  1.0000
  H   H400      1.0  0.11325  0.11258  0.74983  1.0000
  C   C274      1.0  0.17009  0.01235  0.84849  1.0000
  C   C275      1.0  0.16290  0.02158  0.83621  1.0000
  C   C276      1.0  0.16098  0.01471  0.82500  1.0000
  H   H401      1.0  0.10074  0.00418  0.87116  1.0000
  C   C277      1.0  0.11415  0.19166  0.94762  1.0000
  H   H402      1.0  0.10026  0.27689  0.95891  1.0000
  H   H403      1.0  0.15860  0.03402  0.83543  1.0000
  H   H404      1.0  0.15539  0.02199  0.81553  1.0000
  H   H405      1.0  0.02768  0.26790  0.87906  1.0000
  C   C278      1.0  0.17286  0.98909  0.83862  1.0000
  H   H406      1.0  0.03420  0.12906  0.78687  1.0000
  S   S158      1.0  0.16320  0.99037  0.81189  1.0000
  H   H407      1.0  0.21240  0.45299  0.96555  1.0000
  H   H408      1.0  0.20869  0.07953  0.84849  1.0000
  C   C279      1.0  0.12608  0.07110  0.82073  1.0000
  C   C280      1.0  0.11786  0.07332  0.80904  1.0000
  C   C281      1.0  0.11215  0.06096  0.80775  1.0000
  C   C282      1.0  0.11444  0.04640  0.81828  1.0000
  C   C283      1.0  0.12300  0.04408  0.82973  1.0000
  C   C284      1.0  0.12881  0.05643  0.83095  1.0000
  H   H409      1.0  0.11585  0.08461  0.80100  1.0000
  H   H410      1.0  0.10592  0.06278  0.79862  1.0000
  H   H411      1.0  0.12508  0.03285  0.83774  1.0000
  H   H412      1.0  0.13518  0.05465  0.83998  1.0000
  C   C285      1.0  0.11077  0.33429  0.82834  1.0000
  C   C286      1.0  0.09633  0.33603  0.82440  1.0000
  C   C287      1.0  0.09510  0.32742  0.81418  1.0000
  C   C288      1.0  0.10839  0.31718  0.80760  1.0000
  C   C289      1.0  0.12278  0.31526  0.81175  1.0000
  C   C290      1.0  0.12395  0.32367  0.82217  1.0000
  H   H413      1.0  0.08608  0.34421  0.82914  1.0000
  H   H414      1.0  0.08398  0.32903  0.81105  1.0000
  H   H415      1.0  0.13313  0.30743  0.80664  1.0000
  H   H416      1.0  0.13517  0.32230  0.82503  1.0000
  C   C291      1.0  0.19646  0.29260  0.85870  1.0000
  C   C292      1.0  0.18910  0.29115  0.87462  1.0000
  C   C293      1.0  0.19670  0.28048  0.88608  1.0000
  C   C294      1.0  0.21166  0.27121  0.88166  1.0000
  C   C295      1.0  0.21880  0.27224  0.86572  1.0000
  C   C296      1.0  0.21120  0.28295  0.85424  1.0000
  H   H417      1.0  0.17757  0.29830  0.87814  1.0000
  H   H418      1.0  0.19108  0.27961  0.89841  1.0000
  C   C297      1.0  0.16597  0.99847  0.82615  1.0000
  C   C298      1.0  0.20677  0.03112  0.82423  1.0000
  H   H419      1.0  0.02856  0.47314  0.49054  1.0000
  C   C299      1.0  0.17943  0.17718  0.96409  1.0000
  S   S159      1.0  0.99363  0.13335  0.76383  1.0000
  H   H420      1.0  0.02178  0.03187  0.73887  1.0000
  H   H421      1.0  0.17788  0.18300  0.95233  1.0000
  H   H422      1.0  0.03831  0.22262  0.62352  1.0000
  H   H423      1.0  0.12239  0.19682  0.91591  1.0000
  C   C300      1.0  0.18540  0.12411  0.88329  1.0000
  C   C301      1.0  0.17172  0.12345  0.89511  1.0000
  C   C302      1.0  0.16249  0.11281  0.89630  1.0000
  C   C303      1.0  0.16689  0.10286  0.88567  1.0000
  C   C304      1.0  0.18079  0.10326  0.87413  1.0000
  C   C305      1.0  0.19005  0.11382  0.87298  1.0000
  H   H424      1.0  0.16811  0.13131  0.90313  1.0000
  H   H425      1.0  0.15178  0.11244  0.90530  1.0000
  H   H426      1.0  0.18441  0.09533  0.86618  1.0000
  H   H427      1.0  0.20089  0.11395  0.86416  1.0000
  H   H428      1.0  0.14099  0.00368  0.75169  1.0000
  H   H429      1.0  0.20674  0.05570  0.67321  1.0000
  H   H430      1.0  0.19776  0.13750  0.84334  1.0000
  C   C306      1.0  0.23331  0.22562  0.85140  1.0000
  H   H431      1.0  0.99291  0.17866  0.82731  1.0000
  Fe  Fe78      1.0  0.00420  0.37079  0.66223  1.0000
  H   H432      1.0  0.20849  0.24381  0.86705  1.0000
  H   H433      1.0  0.10326  0.39379  0.85518  1.0000
  Fe  Fe79      1.0  0.00565  0.34073  0.65255  1.0000
  H   H434      1.0  0.19727  0.07036  0.71000  1.0000
  H   H435      1.0  0.09590  0.25886  0.94529  1.0000
  C   C307      1.0  0.08976  0.29885  0.90030  1.0000
  C   C308      1.0  0.09681  0.29044  0.91295  1.0000
  C   C309      1.0  0.10899  0.29536  0.91574  1.0000
  C   C310      1.0  0.11412  0.30866  0.90583  1.0000
  C   C311      1.0  0.10675  0.31724  0.89345  1.0000
  C   C312      1.0  0.09452  0.31242  0.89075  1.0000
  H   H436      1.0  0.09299  0.28005  0.92048  1.0000
  H   H437      1.0  0.11476  0.28849  0.92518  1.0000
  H   H438      1.0  0.11053  0.32757  0.88581  1.0000
  H   H439      1.0  0.08909  0.31897  0.88096  1.0000
  C   C313      1.0  0.13447  0.21920  0.88507  1.0000
  C   C314      1.0  0.13811  0.23006  0.89110  1.0000
  C   C315      1.0  0.15295  0.22727  0.89450  1.0000
  C   C316      1.0  0.16404  0.21345  0.89220  1.0000
  C   C317      1.0  0.16064  0.20286  0.88561  1.0000
  C   C318      1.0  0.14590  0.20583  0.88189  1.0000
  H   H440      1.0  0.12957  0.24063  0.89307  1.0000
  H   H441      1.0  0.15566  0.23557  0.89942  1.0000
  H   H442      1.0  0.16929  0.19229  0.88354  1.0000
  H   H443      1.0  0.14318  0.19748  0.87705  1.0000
  C   C319      1.0  0.16801  0.38841  0.90320  1.0000
  C   C320      1.0  0.16944  0.39940  0.88889  1.0000
  C   C321      1.0  0.16622  0.39650  0.87573  1.0000
  C   C322      1.0  0.16164  0.38258  0.87680  1.0000
  C   C323      1.0  0.16019  0.37163  0.89111  1.0000
  C   C324      1.0  0.16327  0.37460  0.90427  1.0000
  H   H444      1.0  0.02376  0.18967  0.89285  1.0000
  H   H445      1.0  0.16722  0.40509  0.86472  1.0000
  H   H446      1.0  0.15658  0.36092  0.89211  1.0000
  H   H447      1.0  0.16207  0.36608  0.91533  1.0000
  H   H448      1.0  0.12803  0.99606  0.87525  1.0000
  H   H449      1.0  0.05386  0.30313  0.87087  1.0000
  H   H450      1.0  0.01096  0.10270  0.78365  1.0000
  C   C325      1.0  0.02182  0.23580  0.88927  1.0000
  H   H451      1.0  0.13148  0.17709  0.92436  1.0000
  C   C326      1.0  0.21543  0.42953  0.96248  1.0000
  C   C327      1.0  0.02074  0.11121  0.81342  1.0000
  C   C328      1.0  0.01174  0.16908  0.74569  1.0000
  C   C329      1.0  0.04484  0.03491  0.76130  1.0000
  C   C330      1.0  0.00362  0.34881  0.76108  1.0000
  H   H452      1.0  0.02989  0.22889  0.57343  1.0000
  H   H453      1.0  0.10421  0.19865  0.94191  1.0000
  C   C331      1.0  0.01639  0.23971  0.62672  1.0000
  H   H454      1.0  0.14276  0.17203  0.94777  1.0000
  H   H455      1.0  0.23901  0.21692  0.84381  1.0000
  H   H456      1.0  0.14115  0.01265  0.78931  1.0000
  H   H457      1.0  0.00916  0.19403  0.65505  1.0000
  C   C332      1.0  0.03172  0.03501  0.74145  1.0000
  H   H458      1.0  0.05784  0.20584  0.87237  1.0000
  H   H459      1.0  0.01492  0.05187  0.76278  1.0000
  N   N23       1.0  0.00142  0.18388  0.89603  1.0000
  C   C333      1.0  0.01314  0.43190  0.61255  1.0000
  N   N24       1.0  0.11944  0.39242  0.83292  1.0000
  H   H460      1.0  0.04862  0.26247  0.87638  1.0000
  C   C334      1.0  0.01643  0.41588  0.61230  1.0000
  S   S160      1.0  0.01334  0.32118  0.70661  1.0000
  H   H461      1.0  0.11035  0.32781  0.93321  1.0000
  C   C335      1.0  0.12046  0.30169  0.95421  1.0000
  C   C336      1.0  0.04779  0.21430  0.87697  1.0000
  H   H462      1.0  0.99775  0.17416  0.87854  1.0000
  H   H463      1.0  0.23875  0.36652  0.88167  1.0000
  H   H464      1.0  0.14582  0.01692  0.76036  1.0000
  H   H465      1.0  0.08576  0.16874  0.74306  1.0000
  H   H466      1.0  0.08714  0.14805  0.75135  1.0000
  H   H467      1.0  0.11326  0.16250  0.72753  1.0000
  H   H468      1.0  0.20577  0.04395  0.81923  1.0000
  C   C337      1.0  0.23687  0.31325  0.89454  1.0000
  H   H469      1.0  0.11358  0.17906  0.95037  1.0000
  H   H470      1.0  0.18306  0.07066  0.69954  1.0000
  H   H471      1.0  0.00589  0.31060  0.78018  1.0000
  H   H472      1.0  0.01369  0.21326  0.76589  1.0000
  H   H473      1.0  0.99685  0.29219  0.80210  1.0000
  C   C338      1.0  0.03790  0.09754  0.79344  1.0000
  H   H474      1.0  0.14323  0.19140  0.91463  1.0000
  H   H475      1.0  0.01423  0.29931  0.62180  1.0000
  C   C339      1.0  0.00743  0.17457  0.88371  1.0000
  H   H476      1.0  0.23663  0.15620  0.94517  1.0000
  H   H477      1.0  0.22229  0.23395  0.87936  1.0000
  H   H478      1.0  0.20374  0.37726  0.89841  1.0000
  H   H479      1.0  0.22261  0.29541  0.88630  1.0000
  H   H480      1.0  0.18051  0.98882  0.85927  1.0000
  H   H481      1.0  0.13274  0.99659  0.80165  1.0000
  H   H482      1.0  0.22675  0.11597  0.87926  1.0000
  H   H483      1.0  0.15407  0.18672  0.93807  1.0000
  H   H484      1.0  0.23393  0.04032  0.81861  1.0000
  H   H485      1.0  0.20373  0.22857  0.88384  1.0000
  C   C340      1.0  0.19581  0.06674  0.69979  1.0000
  H   H486      1.0  0.10722  0.01629  0.85233  1.0000
  S   S161      1.0  0.20714  0.07632  0.81800  1.0000
  H   H487      1.0  0.00259  0.42857  0.65224  1.0000
  N   N25       1.0  0.16785  0.08280  0.78097  1.0000
  C   C341      1.0  0.15280  0.09254  0.77711  1.0000
  C   C342      1.0  0.17325  0.09031  0.79049  1.0000
  C   C343      1.0  0.16549  0.06703  0.78997  1.0000
  H   H488      1.0  0.14848  0.08736  0.76973  1.0000
  H   H489      1.0  0.15404  0.10461  0.77057  1.0000
  H   H490      1.0  0.14343  0.09370  0.78794  1.0000
  H   H491      1.0  0.17534  0.10216  0.78393  1.0000
  H   H492      1.0  0.16439  0.09178  0.80160  1.0000
  H   H493      1.0  0.18216  0.09295  0.75942  1.0000
  H   H494      1.0  0.16121  0.06115  0.78319  1.0000
  H   H495      1.0  0.15657  0.06774  0.80115  1.0000
  N   N26       1.0  0.05846  0.23947  0.82241  1.0000
  C   C344      1.0  0.04961  0.25165  0.81150  1.0000
  C   C345      1.0  0.07527  0.24026  0.81770  1.0000
  C   C346      1.0  0.05705  0.22377  0.82194  1.0000
  C   C347      1.0  0.05192  0.24218  0.83852  1.0000
  H   H496      1.0  0.05067  0.26363  0.81138  1.0000
  H   H497      1.0  0.03683  0.25153  0.81494  1.0000
  H   H498      1.0  0.05403  0.24989  0.79924  1.0000
  H   H499      1.0  0.07692  0.25162  0.81864  1.0000
  H   H500      1.0  0.08237  0.23077  0.82527  1.0000
  H   H501      1.0  0.08039  0.23907  0.80528  1.0000
  H   H502      1.0  0.06314  0.21433  0.83044  1.0000
  H   H503      1.0  0.06219  0.22122  0.81002  1.0000
  H   H504      1.0  0.04454  0.22278  0.82519  1.0000
  H   H505      1.0  0.05849  0.23341  0.84705  1.0000
  H   H506      1.0  0.03937  0.24120  0.84257  1.0000
  H   H507      1.0  0.05245  0.25410  0.83917  1.0000
  N   N27       1.0  0.10717  0.31504  0.95725  1.0000
  H   H508      1.0  0.03622  0.20552  0.77842  1.0000
  C   C348      1.0  0.09175  0.24098  0.96628  1.0000
  H   H509      1.0  0.18477  0.19717  0.96831  1.0000
  H   H510      1.0  0.01605  0.34944  0.75981  1.0000
  C   C349      1.0  0.20631  0.47617  0.90873  1.0000
  H   H511      1.0  0.09327  0.30846  0.94534  1.0000
  H   H512      1.0  0.20842  0.09672  0.67131  1.0000
  H   H513      1.0  0.02876  0.23998  0.78014  1.0000
  C   C350      1.0  0.03275  0.01340  0.76403  1.0000
  C   C351      1.0  0.01957  0.22203  0.75656  1.0000
  H   H514      1.0  0.21686  0.28396  0.84191  1.0000
  H   H515      1.0  0.22872  0.30988  0.86922  1.0000
  H   H516      1.0  0.05460  0.98734  0.78574  1.0000
  C   C352      1.0  0.09750  0.26581  0.96565  1.0000
  H   H517      1.0  0.02085  0.20198  0.66276  1.0000
  Fe  Fe80      1.0  0.21783  0.41825  0.90141  1.0000
  S   S162      1.0  0.03673  0.24159  0.90882  1.0000
  H   H518      1.0  0.14101  0.18786  0.95686  1.0000
  Fe  Fe81      1.0  0.00434  0.33970  0.68656  1.0000
  C   C353      1.0  0.03586  0.23239  0.89447  1.0000
  H   H519      1.0  0.20111  0.15278  0.82616  1.0000
  N   N28       1.0  0.19863  0.13164  0.82159  1.0000
  C   C354      1.0  0.18995  0.11895  0.82935  1.0000
  C   C355      1.0  0.19430  0.13962  0.80631  1.0000
  H   H520      1.0  0.21893  0.11547  0.81215  1.0000
  H   H521      1.0  0.17701  0.12366  0.83220  1.0000
  H   H522      1.0  0.19232  0.11039  0.82176  1.0000
  H   H523      1.0  0.19352  0.11219  0.84051  1.0000
  H   H524      1.0  0.18145  0.14477  0.80782  1.0000
  H   H525      1.0  0.19738  0.13130  0.79833  1.0000
  H   H526      1.0  0.20064  0.14929  0.80012  1.0000
  N   N29       1.0  0.20571  0.07368  0.68495  1.0000
  C   C356      1.0  0.22245  0.06832  0.68596  1.0000
  C   C357      1.0  0.20341  0.06871  0.67168  1.0000
  C   C358      1.0  0.20119  0.09099  0.68239  1.0000
  H   H527      1.0  0.23624  0.11843  0.85881  1.0000
  H   H528      1.0  0.19884  0.05368  0.70217  1.0000
  C   C359      1.0  0.24115  0.09423  0.69462  1.0000
  H   H529      1.0  0.99839  0.11221  0.79889  1.0000
  H   H530      1.0  0.01445  0.22815  0.78501  1.0000
  H   H531      1.0  0.03064  0.11531  0.81491  1.0000
  H   H532      1.0  0.03074  0.04790  0.73689  1.0000
  C   C360      1.0  0.23132  0.12552  0.77978  1.0000
  C   C361      1.0  0.22766  0.14181  0.77438  1.0000
  H   H533      1.0  0.22287  0.00128  0.83044  1.0000
  H   H534      1.0  0.12748  0.21527  0.94533  1.0000
  H   H535      1.0  0.01248  0.18492  0.68932  1.0000
  C   C362      1.0  0.21957  0.41347  0.96890  1.0000
  N   N30       1.0  0.02319  0.10928  0.79719  1.0000
  H   H536      1.0  0.20357  0.03091  0.85475  1.0000
  C   C363      1.0  0.22074  0.37622  0.86009  1.0000
  H   H537      1.0  0.23780  0.02165  0.81338  1.0000
  H   H538      1.0  0.20959  0.37800  0.85621  1.0000
  H   H539      1.0  0.00790  0.31884  0.75954  1.0000
  H   H540      1.0  0.12082  0.01300  0.79097  1.0000
  H   H541      1.0  0.12144  0.33194  0.94457  1.0000
  H   H542      1.0  0.10054  0.33976  0.94736  1.0000
  H   H543      1.0  0.08224  0.32154  0.95823  1.0000
  H   H544      1.0  0.00484  0.18320  0.77721  1.0000
  H   H545      1.0  0.02131  0.34987  0.70787  1.0000
  N   N31       1.0  0.99908  0.33581  0.77413  1.0000
  H   H546      1.0  0.23838  0.28956  0.87068  1.0000
  H   H547      1.0  0.23026  0.07351  0.67504  1.0000
  C   C364      1.0  0.12585  0.98781  0.77871  1.0000
  C   C365      1.0  0.99975  0.18240  0.80206  1.0000
  H   H548      1.0  0.02170  0.32029  0.76977  1.0000
  H   H549      1.0  0.20936  0.02519  0.81429  1.0000
  C   C366      1.0  0.10585  0.31776  0.97296  1.0000
  C   C367      1.0  0.21575  0.44056  0.97053  1.0000
  C   C368      1.0  0.17500  0.99605  0.84974  1.0000
  H   H550      1.0  0.01019  0.23185  0.75235  1.0000
  H   H551      1.0  0.21566  0.15554  0.97055  1.0000
  H   H552      1.0  0.22636  0.36349  0.86160  1.0000
  C   C369      1.0  0.04200  0.21399  0.76863  1.0000
  S   S163      1.0  0.23501  0.15431  0.78104  1.0000
  C   C370      1.0  0.00425  0.17758  0.73336  1.0000
  C   C371      1.0  0.13751  0.00928  0.76199  1.0000
  H   H553      1.0  0.16217  0.99391  0.77537  1.0000
  C   C372      1.0  0.20820  0.21853  0.85720  1.0000
  Fe  Fe82      1.0  0.00063  0.20884  0.82095  1.0000
  C   C373      1.0  0.21929  0.08189  0.84005  1.0000
  H   H554      1.0  0.20294  0.09513  0.69210  1.0000
  H   H555      1.0  0.23700  0.08324  0.80147  1.0000
  S   S164      1.0  0.01265  0.22676  0.82233  1.0000
  C   C374      1.0  0.00961  0.40898  0.64087  1.0000
  C   C375      1.0  0.13279  0.00526  0.79026  1.0000
  C   C376      1.0  0.00502  0.26702  0.83570  1.0000
  C   C377      1.0  0.01908  0.48375  0.48828  1.0000
  C   C378      1.0  0.23273  0.37914  0.87955  1.0000
  C   C379      1.0  0.23305  0.29896  0.87750  1.0000
  C   C380      1.0  0.99911  0.31795  0.63292  1.0000
  C   C381      1.0  0.21342  0.23218  0.87400  1.0000
  C   C382      1.0  0.17757  0.16170  0.97021  1.0000
  H   H556      1.0  0.22406  0.02866  0.85394  1.0000
  C   C383      1.0  0.01652  0.03890  0.76709  1.0000
  H   H557      1.0  0.05440  0.29451  0.85499  1.0000
  C   C384      1.0  0.03852  0.23844  0.74953  1.0000
  H   H558      1.0  0.01976  0.09994  0.82211  1.0000
  C   C385      1.0  0.03873  0.27206  0.87284  1.0000
  C   C386      1.0  0.03376  0.21772  0.87176  1.0000
  H   H559      1.0  0.12324  0.38429  0.85648  1.0000
  H   H560      1.0  0.21630  0.17972  0.95024  1.0000
  C   C387      1.0  0.00244  0.28698  0.81197  1.0000
  H   H561      1.0  0.99477  0.22705  0.67590  1.0000
  C   C388      1.0  0.00623  0.24954  0.63647  1.0000
  H   H562      1.0  0.21112  0.46577  0.90389  1.0000
  H   H563      1.0  0.20316  0.22984  0.84984  1.0000
  H   H564      1.0  0.12566  0.01700  0.76165  1.0000
  C   C389      1.0  0.21762  0.14835  0.76381  1.0000
  H   H565      1.0  0.11368  0.99511  0.77941  1.0000
  N   N32       1.0  0.21903  0.02482  0.83360  1.0000
  H   H566      1.0  0.02060  0.17240  0.90772  1.0000
  H   H567      1.0  0.04612  0.24339  0.75380  1.0000
  H   H568      1.0  0.22868  0.38276  0.85037  1.0000
  S   S165      1.0  0.22159  0.25932  0.89631  1.0000
  H   H569      1.0  0.00404  0.19705  0.71349  1.0000
  C   C390      1.0  0.03035  0.23023  0.63103  1.0000
  C   C391      1.0  0.02372  0.32519  0.71839  1.0000
  N   N33       1.0  0.08253  0.31024  0.70648  1.0000
  C   C392      1.0  0.08011  0.30951  0.72346  1.0000
  C   C393      1.0  0.09218  0.32189  0.69741  1.0000
  C   C394      1.0  0.06712  0.31499  0.70197  1.0000
  C   C395      1.0  0.09075  0.29461  0.70308  1.0000
  H   H570      1.0  0.07251  0.30121  0.73067  1.0000
  H   H571      1.0  0.07431  0.32120  0.72640  1.0000
  H   H572      1.0  0.09145  0.30554  0.72740  1.0000
  H   H573      1.0  0.09431  0.32274  0.68453  1.0000
  H   H574      1.0  0.08625  0.33382  0.69969  1.0000
  H   H575      1.0  0.10386  0.31871  0.70061  1.0000
  H   H576      1.0  0.06849  0.31599  0.68917  1.0000
  H   H577      1.0  0.06042  0.32656  0.70472  1.0000
  H   H578      1.0  0.05965  0.30630  0.70834  1.0000
  H   H579      1.0  0.08375  0.28555  0.70963  1.0000
  H   H580      1.0  0.10235  0.29053  0.70651  1.0000
  H   H581      1.0  0.09283  0.29472  0.69037  1.0000
  H   H582      1.0  0.18857  0.09551  0.68179  1.0000
  H   H583      1.0  0.13177  0.30395  0.95467  1.0000
  C   C396      1.0  0.24077  0.14084  0.86971  1.0000
  N   N34       1.0  0.03868  0.28685  0.87676  1.0000
  N   N35       1.0  0.03009  0.28620  0.67330  1.0000
  C   C397      1.0  0.02342  0.28018  0.69006  1.0000
  C   C398      1.0  0.04537  0.27573  0.66833  1.0000
  C   C399      1.0  0.03243  0.30221  0.67118  1.0000
  C   C400      1.0  0.02594  0.34028  0.71670  1.0000
  H   H584      1.0  0.21692  0.18976  0.96451  1.0000
  H   H585      1.0  0.03148  0.27957  0.69763  1.0000
  C   C401      1.0  0.10998  0.32928  0.94510  1.0000
  H   H586      1.0  0.05090  0.28006  0.65582  1.0000
  H   H587      1.0  0.05380  0.27474  0.67566  1.0000
  H   H588      1.0  0.04391  0.26365  0.66945  1.0000
  H   H589      1.0  0.02115  0.31032  0.67504  1.0000
  H   H590      1.0  0.03713  0.30728  0.65860  1.0000
  H   H591      1.0  0.04069  0.30231  0.67823  1.0000
  C   C402      1.0  0.00975  0.10385  0.79583  1.0000
  H   H592      1.0  0.02143  0.26813  0.69203  1.0000
  H   H593      1.0  0.11226  0.41635  0.83566  1.0000
  H   H594      1.0  0.02278  0.00966  0.76223  1.0000
  C   C403      1.0  0.21571  0.12481  0.81895  1.0000
  H   H595      1.0  0.01004  0.23157  0.87367  1.0000
  H   H596      1.0  0.02681  0.27991  0.90089  1.0000
  H   H597      1.0  0.12033  0.21860  0.92791  1.0000
  H   H598      1.0  0.02465  0.31036  0.87507  1.0000
  H   H599      1.0  0.99608  0.36039  0.76297  1.0000
  C   C404      1.0  0.22436  0.18260  0.95582  1.0000
  N   N36       1.0  0.21770  0.38168  0.87480  1.0000
  H   H600      1.0  0.22638  0.05532  0.68777  1.0000
  H   H601      1.0  0.22894  0.00263  0.84725  1.0000
  C   C405      1.0  0.01915  0.28665  0.66364  1.0000
  Fe  Fe83      1.0  0.99995  0.46971  0.59294  1.0000
  C   C406      1.0  0.12967  0.21118  0.93425  1.0000
  H   H602      1.0  0.01329  0.13357  0.78854  1.0000
  H   H603      1.0  0.21252  0.36010  0.89024  1.0000
  H   H604      1.0  0.23338  0.18232  0.91028  1.0000
  Fe  Fe84      1.0  0.01114  0.21474  0.84768  1.0000
  H   H605      1.0  0.19504  0.02939  0.83156  1.0000
  S   S166      1.0  0.23658  0.41696  0.87936  1.0000
  N   N37       1.0  0.12185  0.28076  0.85984  1.0000
  C   C407      1.0  0.11625  0.26725  0.85892  1.0000
  C   C408      1.0  0.10991  0.29539  0.85652  1.0000
  C   C409      1.0  0.13677  0.28198  0.84813  1.0000
  C   C410      1.0  0.12445  0.27838  0.87582  1.0000
  H   H606      1.0  0.12490  0.25597  0.86155  1.0000
  H   H607      1.0  0.11426  0.26855  0.84700  1.0000
  H   H608      1.0  0.10496  0.26605  0.86755  1.0000
  H   H609      1.0  0.09847  0.29489  0.86506  1.0000
  H   H610      1.0  0.11370  0.30582  0.85725  1.0000
  H   H611      1.0  0.10773  0.29765  0.84450  1.0000
  H   H612      1.0  0.14136  0.29202  0.84851  1.0000
  H   H613      1.0  0.13517  0.28388  0.83594  1.0000
  H   H614      1.0  0.14608  0.27114  0.85022  1.0000
  H   H615      1.0  0.13391  0.26785  0.87847  1.0000
  H   H616      1.0  0.11358  0.27673  0.88495  1.0000
  H   H617      1.0  0.12792  0.28865  0.87729  1.0000
  N   N38       1.0  0.02526  0.25261  0.55990  1.0000
  C   C411      1.0  0.01220  0.26381  0.55327  1.0000
  C   C412      1.0  0.02917  0.25918  0.57120  1.0000
  C   C413      1.0  0.03921  0.24984  0.54705  1.0000
  C   C414      1.0  0.02043  0.23759  0.56805  1.0000
  H   H618      1.0  0.00906  0.25940  0.54448  1.0000
  H   H619      1.0  0.01514  0.27546  0.54735  1.0000
  H   H620      1.0  0.01883  0.26159  0.58093  1.0000
  H   H621      1.0  0.03868  0.25086  0.57680  1.0000
  H   H622      1.0  0.04309  0.26097  0.54060  1.0000
  H   H623      1.0  0.03665  0.24485  0.53833  1.0000
  H   H624      1.0  0.04931  0.24146  0.55166  1.0000
  H   H625      1.0  0.00992  0.23928  0.57780  1.0000
  C   C415      1.0  0.22662  0.20508  0.87391  1.0000
  H   H626      1.0  0.03279  0.00962  0.77680  1.0000
  H   H627      1.0  0.01170  0.24405  0.89411  1.0000
  C   C416      1.0  0.08408  0.15768  0.74128  1.0000
  H   H628      1.0  0.09180  0.17843  0.71423  1.0000
  H   H629      1.0  0.01638  0.17973  0.87391  1.0000
  H   H630      1.0  0.05035  0.21772  0.77311  1.0000
  H   H631      1.0  0.19089  0.07260  0.67059  1.0000
  H   H632      1.0  0.05636  0.02867  0.75517  1.0000
  C   C417      1.0  0.17985  0.08131  0.76630  1.0000
  H   H633      1.0  0.17604  0.07607  0.75859  1.0000
  H   H634      1.0  0.01372  0.29538  0.87885  1.0000
  H   H635      1.0  0.07129  0.15933  0.74184  1.0000
  H   H636      1.0  0.11434  0.14187  0.73548  1.0000
  H   H637      1.0  0.04431  0.04774  0.75701  1.0000
  H   H638      1.0  0.18454  0.08325  0.79372  1.0000
  H   H639      1.0  0.23082  0.38328  0.89054  1.0000
  C   C418      1.0  0.00776  0.43643  0.62701  1.0000
  C   C419      1.0  0.11061  0.15182  0.72595  1.0000
  H   H640      1.0  0.00266  0.34730  0.74961  1.0000
  H   H641      1.0  0.04905  0.20740  0.75936  1.0000
  H   H642      1.0  0.22262  0.13388  0.81220  1.0000
  N   N39       1.0  0.09375  0.15413  0.72610  1.0000
  H   H643      1.0  0.23451  0.09763  0.70551  1.0000
  H   H644      1.0  0.17658  0.05933  0.79309  1.0000
  C   C420      1.0  0.19464  0.14311  0.83170  1.0000
  H   H645      1.0  0.21960  0.11940  0.83024  1.0000
  H   H646      1.0  0.18182  0.14849  0.83401  1.0000
  H   H647      1.0  0.01313  0.16226  0.88844  1.0000
  H   H648      1.0  0.13843  0.38623  0.81376  1.0000
  C   C421      1.0  0.13389  0.38172  0.82648  1.0000
  H   H649      1.0  0.05979  0.21910  0.89211  1.0000
  H   H650      1.0  0.00970  0.12003  0.81655  1.0000
  S   S167      1.0  0.20576  0.10993  0.75945  1.0000
  C   C422      1.0  0.08946  0.16739  0.71317  1.0000
  H   H651      1.0  0.11824  0.14925  0.71460  1.0000
  H   H652      1.0  0.10432  0.38230  0.82589  1.0000
  H   H653      1.0  0.20741  0.40301  0.88316  1.0000
  S   S168      1.0  0.22120  0.11929  0.67988  1.0000
  H   H654      1.0  0.07673  0.16973  0.71312  1.0000
  H   H655      1.0  0.11076  0.39874  0.81170  1.0000
  H   H656      1.0  0.09590  0.40185  0.82913  1.0000
  N   N40       1.0  0.12947  0.19434  0.93745  1.0000
  H   H657      1.0  0.01386  0.33778  0.78811  1.0000
  C   C423      1.0  0.00072  0.18719  0.68650  1.0000
  H   H658      1.0  0.20839  0.00556  0.84766  1.0000
  H   H659      1.0  0.17284  0.41019  0.88803  1.0000
  C   C424      1.0  0.02980  0.31287  0.72987  1.0000
  H   H660      1.0  0.09637  0.16511  0.70146  1.0000
  C   C425      1.0  0.10704  0.39396  0.82452  1.0000
  C   C426      1.0  0.13170  0.18970  0.92245  1.0000
  H   H661      1.0  0.19590  0.37386  0.88382  1.0000
  C   C427      1.0  0.99791  0.27386  0.82283  1.0000
  C   C428      1.0  0.09082  0.13966  0.72400  1.0000
  H   H662      1.0  0.09371  0.12943  0.73368  1.0000
  C   C429      1.0  0.00153  0.08476  0.76747  1.0000
  H   H663      1.0  0.22678  0.30972  0.90394  1.0000
  C   C430      1.0  0.19100  0.47847  0.91794  1.0000
  N   N41       1.0  0.03027  0.22759  0.76247  1.0000
  C   C431      1.0  0.22149  0.08096  0.82441  1.0000
  S   S169      1.0  0.00143  0.19542  0.84552  1.0000
  H   H664      1.0  0.03992  0.27357  0.86000  1.0000
  C   C432      1.0  0.23083  0.08604  0.84477  1.0000
  H   H665      1.0  0.04832  0.10108  0.79453  1.0000
  H   H666      1.0  0.07825  0.14107  0.72384  1.0000
  C   C433      1.0  0.20704  0.37282  0.88736  1.0000
  H   H667      1.0  0.21471  0.16096  0.75959  1.0000
  H   H668      1.0  0.11106  0.37431  0.85174  1.0000
  H   H669      1.0  0.13166  0.36990  0.82774  1.0000
  H   H670      1.0  0.02408  0.29068  0.65088  1.0000
  H   H671      1.0  0.02613  0.12351  0.77370  1.0000
  N   N42       1.0  0.13733  0.99738  0.77690  1.0000
  H   H672      1.0  0.19913  0.40108  0.86814  1.0000
  C   C434      1.0  0.99982  0.17720  0.78886  1.0000
  H   H673      1.0  0.22909  0.08689  0.85683  1.0000
  S   S170      1.0  0.00817  0.19842  0.79960  1.0000
  H   H674      1.0  0.09811  0.13653  0.71274  1.0000
  C   C435      1.0  0.12289  0.40796  0.83089  1.0000
  H   H675      1.0  0.13223  0.40700  0.83719  1.0000
  H   H676      1.0  0.12713  0.41318  0.81827  1.0000
  S   S171      1.0  0.03281  0.20802  0.85783  1.0000
  H   H677      1.0  0.19830  0.21449  0.86649  1.0000
  H   H678      1.0  0.01197  0.28794  0.69426  1.0000
  H   H679      1.0  0.11193  0.19528  0.95897  1.0000
  C   C436      1.0  0.05335  0.29216  0.86793  1.0000
  H   H680      1.0  0.23022  0.26493  0.86220  1.0000
  H   H681      1.0  0.04486  0.03203  0.77407  1.0000
  H   H682      1.0  0.03760  0.29507  0.89726  1.0000
  S   S172      1.0  0.01145  0.23862  0.60955  1.0000
  S   S173      1.0  0.01465  0.32389  0.63625  1.0000
  H   H683      1.0  0.02805  0.30118  0.73127  1.0000
  H   H684      1.0  0.04015  0.09593  0.78121  1.0000
  H   H685      1.0  0.14118  0.21359  0.92686  1.0000
  H   H686      1.0  0.03735  0.08580  0.80142  1.0000
  S   S174      1.0  0.00828  0.39510  0.65893  1.0000
  H   H687      1.0  0.21719  0.20093  0.88378  1.0000
  N   N43       1.0  0.03145  0.03055  0.75847  1.0000
  H   H688      1.0  0.99557  0.25706  0.63320  1.0000
  H   H689      1.0  0.22712  0.10330  0.77956  1.0000
  N   N44       1.0  0.22039  0.22035  0.86414  1.0000
  H   H690      1.0  0.06393  0.28320  0.87081  1.0000
  H   H691      1.0  0.21074  0.07382  0.66033  1.0000
  H   H692      1.0  0.04628  0.23234  0.74012  1.0000
  H   H693      1.0  0.13482  0.00796  0.85642  1.0000
  C   C437      1.0  0.23740  0.10312  0.68036  1.0000
  H   H694      1.0  0.02605  0.21621  0.74660  1.0000
  C   C438      1.0  0.09238  0.31143  0.95673  1.0000
  H   H695      1.0  0.22456  0.07183  0.69591  1.0000
  H   H696      1.0  0.12200  0.29948  0.94234  1.0000
  H   H697      1.0  0.00547  0.44869  0.62736  1.0000
  C   C439      1.0  0.00907  0.32071  0.77075  1.0000
  H   H698      1.0  0.01064  0.19160  0.91142  1.0000
  C   C440      1.0  0.99571  0.07667  0.78259  1.0000
  H   H699      1.0  0.23167  0.19011  0.94643  1.0000
  H   H700      1.0  0.09578  0.32758  0.97580  1.0000
  C   C441      1.0  0.99311  0.17467  0.81708  1.0000
  C   C442      1.0  0.21990  0.00781  0.84000  1.0000
  H   H701      1.0  0.00610  0.21488  0.65264  1.0000
  N   N45       1.0  0.23429  0.16821  0.96342  1.0000
  H   H702      1.0  0.99310  0.16055  0.78043  1.0000
  H   H703      1.0  0.10195  0.98705  0.74223  1.0000
  H   H704      1.0  0.14370  0.98745  0.86099  1.0000
  C   C443      1.0  0.09165  0.98710  0.75179  1.0000
  C   C444      1.0  0.00881  0.20341  0.66096  1.0000
  C   C445      1.0  0.13229  0.99615  0.86248  1.0000
  H   H705      1.0  0.99788  0.32834  0.79905  1.0000
  H   H706      1.0  0.12952  0.00477  0.83262  1.0000
  H   H707      1.0  0.23230  0.32465  0.88704  1.0000
  H   H708      1.0  0.24013  0.28140  0.90432  1.0000
  C   C446      1.0  0.21497  0.03292  0.84672  1.0000
  C   C447      1.0  0.99321  0.16436  0.79067  1.0000
  C   C448      1.0  0.22415  0.15848  0.97559  1.0000
  H   H709      1.0  0.99410  0.34929  0.79177  1.0000
  H   H710      1.0  0.21390  0.04584  0.84234  1.0000
  H   H711      1.0  0.23903  0.12030  0.78790  1.0000
  H   H712      1.0  0.99491  0.16436  0.91421  1.0000
  C   C449      1.0  0.99387  0.20003  0.88917  1.0000
  H   H713      1.0  0.01130  0.48076  0.48244  1.0000
  C   C450      1.0  0.23436  0.02751  0.82349  1.0000
  C   C451      1.0  0.10567  0.00417  0.85847  1.0000
  H   H714      1.0  0.99189  0.18623  0.69787  1.0000
  H   H715      1.0  0.09668  0.00181  0.85368  1.0000
  H   H716      1.0  0.23974  0.14504  0.85721  1.0000
  C   C452      1.0  0.23843  0.11466  0.87093  1.0000
  H   H717      1.0  0.23603  0.20587  0.87916  1.0000
  H   H718      1.0  0.23874  0.12173  0.89799  1.0000
  N   N46       1.0  0.99702  0.20277  0.67600  1.0000
  H   H719      1.0  0.11812  0.99108  0.83362  1.0000
  C   C453      1.0  0.12679  0.99312  0.83905  1.0000
  N   N47       1.0  0.12069  0.99250  0.85605  1.0000
  H   H720      1.0  0.00074  0.17753  0.68114  1.0000
  C   C454      1.0  0.06493  0.98727  0.77623  1.0000
  H   H721      1.0  0.99226  0.29097  0.61724  1.0000
  H   H722      1.0  0.24100  0.38578  0.87038  1.0000
  Fe  Fe85      1.0  0.00350  0.60155  0.37577  1.0000
  C   C455      1.0  0.12749  0.84467  0.31011  1.0000
  S   S175      1.0  0.01508  0.57653  0.37372  1.0000
  C   C456      1.0  0.02946  0.65654  0.44049  1.0000
  N   N48       1.0  0.22789  0.87426  0.25064  1.0000
  C   C457      1.0  0.05413  0.64378  0.44829  1.0000
  H   H723      1.0  0.99205  0.79282  0.15161  1.0000
  H   H724      1.0  0.19774  0.56594  0.01393  1.0000
  C   C458      1.0  0.12579  0.79713  0.97994  1.0000
  C   C459      1.0  0.18585  0.78592  0.98878  1.0000
  H   H725      1.0  0.00878  0.77913  0.25797  1.0000
  S   S176      1.0  0.01397  0.62266  0.37183  1.0000
  C   C460      1.0  0.09360  0.74467  0.98222  1.0000
  S   S177      1.0  0.01265  0.70399  0.43424  1.0000
  C   C461      1.0  0.20099  0.56644  0.00142  1.0000
  Fe  Fe86      1.0  0.02974  0.73999  0.40979  1.0000
  S   S178      1.0  0.04523  0.71677  0.41831  1.0000
  S   S179      1.0  0.03722  0.76179  0.39349  1.0000
  Fe  Fe87      1.0  0.02928  0.70654  0.41070  1.0000
  S   S180      1.0  0.03889  0.68747  0.39671  1.0000
  Fe  Fe88      1.0  0.02704  0.71642  0.44117  1.0000
  H   H726      1.0  0.23815  0.91534  0.36655  1.0000
  S   S181      1.0  0.01500  0.72967  0.40069  1.0000
  S   S182      1.0  0.01273  0.74043  0.43327  1.0000
  H   H727      1.0  0.15202  0.86256  0.27888  1.0000
  H   H728      1.0  0.15010  0.97734  0.16083  1.0000
  Fe  Fe89      1.0  0.21914  0.55418  0.05390  1.0000
  S   S183      1.0  0.19831  0.57100  0.04515  1.0000
  C   C462      1.0  0.09741  0.80212  0.98658  1.0000
  H   H729      1.0  0.04018  0.50404  0.45565  1.0000
  S   S184      1.0  0.21827  0.59868  0.03749  1.0000
  Fe  Fe90      1.0  0.20203  0.58716  0.05826  1.0000
  S   S185      1.0  0.18180  0.60352  0.07095  1.0000
  Fe  Fe91      1.0  0.21636  0.58120  0.02522  1.0000
  S   S186      1.0  0.21768  0.58855  0.99901  1.0000
  H   H730      1.0  0.03125  0.79144  0.22829  1.0000
  Fe  Fe92      1.0  0.18918  0.90723  0.14439  1.0000
  Fe  Fe93      1.0  0.22224  0.91154  0.12999  1.0000
  S   S187      1.0  0.17477  0.89496  0.16623  1.0000
  Fe  Fe94      1.0  0.12451  0.93706  0.23073  1.0000
  S   S188      1.0  0.13364  0.93979  0.25025  1.0000
  S   S189      1.0  0.13545  0.94602  0.20544  1.0000
  Fe  Fe95      1.0  0.09647  0.92455  0.25256  1.0000
  S   S190      1.0  0.10290  0.92664  0.27395  1.0000
  S   S191      1.0  0.07442  0.91619  0.25476  1.0000
  Fe  Fe96      1.0  0.10835  0.94986  0.25995  1.0000
  H   H731      1.0  0.07340  0.73614  0.98258  1.0000
  Fe  Fe97      1.0  0.12754  0.91645  0.26255  1.0000
  S   S192      1.0  0.14092  0.89701  0.27842  1.0000
  S   S193      1.0  0.09952  0.94885  0.23952  1.0000
  S   S194      1.0  0.12081  0.91259  0.24213  1.0000
  S   S195      1.0  0.23698  0.88840  0.30866  1.0000
  C   C463      1.0  0.22137  0.50099  0.05457  1.0000
  S   S196      1.0  0.18579  0.84996  0.34233  1.0000
  H   H732      1.0  0.19529  0.89565  0.06232  1.0000
  Fe  Fe98      1.0  0.05552  0.82125  0.21852  1.0000
  S   S197      1.0  0.03229  0.82271  0.23551  1.0000
  S   S198      1.0  0.06484  0.79932  0.20888  1.0000
  Fe  Fe99      1.0  0.05995  0.85203  0.22261  1.0000
  S   S199      1.0  0.03674  0.85613  0.23987  1.0000
  S   S200      1.0  0.07876  0.86614  0.21620  1.0000
  Fe  Fe100     1.0  0.04380  0.83037  0.25014  1.0000
  S   S201      1.0  0.04156  0.81890  0.27571  1.0000
  Fe  Fe101     1.0  0.02740  0.84809  0.22346  1.0000
  S   S202      1.0  0.06757  0.82675  0.23413  1.0000
  S   S203      1.0  0.05009  0.84619  0.20517  1.0000
  Fe  Fe102     1.0  0.00369  0.76252  0.14459  1.0000
  S   S204      1.0  0.02300  0.77598  0.13531  1.0000
  N   N49       1.0  0.22988  0.84504  0.07446  1.0000
  Fe  Fe103     1.0  0.02019  0.73949  0.16964  1.0000
  S   S205      1.0  0.04047  0.75137  0.16276  1.0000
  S   S206      1.0  0.01859  0.71903  0.19022  1.0000
  Fe  Fe104     1.0  0.02227  0.77386  0.16074  1.0000
  S   S207      1.0  0.01809  0.79534  0.17042  1.0000
  Fe  Fe105     1.0  0.03934  0.75214  0.13811  1.0000
  S   S208      1.0  0.06246  0.74274  0.12290  1.0000
  S   S209      1.0  0.00207  0.76180  0.16984  1.0000
  S   S210      1.0  0.02000  0.73874  0.14520  1.0000
  Fe  Fe106     1.0  0.10637  0.81038  0.31520  1.0000
  S   S211      1.0  0.11807  0.80844  0.33473  1.0000
  S   S212      1.0  0.09144  0.83255  0.30394  1.0000
  Fe  Fe107     1.0  0.12419  0.77837  0.30864  1.0000
  S   S213      1.0  0.13801  0.77398  0.32711  1.0000
  S   S214      1.0  0.12884  0.76128  0.29293  1.0000
  Fe  Fe108     1.0  0.11459  0.78348  0.34190  1.0000
  S   S215      1.0  0.10816  0.76886  0.36648  1.0000
  Fe  Fe109     1.0  0.14038  0.79920  0.31845  1.0000
  S   S216      1.0  0.16292  0.80861  0.31014  1.0000
  S   S217      1.0  0.10072  0.78644  0.32382  1.0000
  S   S218      1.0  0.12870  0.80252  0.29857  1.0000
  Fe  Fe110     1.0  0.06843  0.68500  0.27584  1.0000
  S   S219      1.0  0.09139  0.69085  0.27484  1.0000
  S   S220      1.0  0.06409  0.66171  0.29144  1.0000
  Fe  Fe111     1.0  0.05699  0.71649  0.25542  1.0000
  S   S221      1.0  0.07871  0.72471  0.25326  1.0000
  S   S222      1.0  0.03955  0.73544  0.24348  1.0000
  Fe  Fe112     1.0  0.09170  0.70078  0.24900  1.0000
  S   S223      1.0  0.11268  0.70255  0.22827  1.0000
  Fe  Fe113     1.0  0.07635  0.71418  0.27893  1.0000
  S   S224      1.0  0.07502  0.72715  0.29743  1.0000
  S   S225      1.0  0.06991  0.69308  0.24965  1.0000
  S   S226      1.0  0.05345  0.70773  0.28150  1.0000
  Fe  Fe114     1.0  0.09984  0.75635  0.03763  1.0000
  S   S227      1.0  0.09996  0.73721  0.02623  1.0000
  S   S228      1.0  0.07850  0.77144  0.05001  1.0000
  Fe  Fe115     1.0  0.13560  0.75143  0.02921  1.0000
  S   S229      1.0  0.13879  0.73226  0.01687  1.0000
  S   S230      1.0  0.15680  0.75704  0.03264  1.0000
  Fe  Fe116     1.0  0.11826  0.74772  0.00677  1.0000
  N   N50       1.0  0.02559  0.49749  0.47855  1.0000
  Fe  Fe117     1.0  0.12052  0.72367  0.03742  1.0000
  S   S231      1.0  0.12529  0.69912  0.05220  1.0000
  S   S232      1.0  0.11672  0.76780  0.01748  1.0000
  S   S233      1.0  0.11865  0.74204  0.05036  1.0000
  S   S234      1.0  0.22476  0.52755  0.06085  1.0000
  S   S235      1.0  0.15784  0.84623  0.05685  1.0000
  S   S236      1.0  0.17688  0.81407  0.07748  1.0000
  Fe  Fe118     1.0  0.15946  0.82030  0.06233  1.0000
  S   S237      1.0  0.13783  0.81027  0.07066  1.0000
  Fe  Fe119     1.0  0.17655  0.83987  0.07076  1.0000
  S   S238      1.0  0.17310  0.84961  0.09211  1.0000
  C   C464      1.0  0.21513  0.86874  0.26342  1.0000
  Fe  Fe120     1.0  0.15601  0.66815  0.15443  1.0000
  S   S239      1.0  0.16254  0.69168  0.14525  1.0000
  S   S240      1.0  0.13715  0.66165  0.17599  1.0000
  Fe  Fe121     1.0  0.18119  0.65357  0.12880  1.0000
  S   S241      1.0  0.18950  0.67593  0.11758  1.0000
  S   S242      1.0  0.19630  0.63159  0.12089  1.0000
  Fe  Fe122     1.0  0.18755  0.67798  0.14203  1.0000
  Fe  Fe123     1.0  0.16385  0.68750  0.12155  1.0000
  S   S243      1.0  0.15612  0.70787  0.10273  1.0000
  S   S244      1.0  0.18102  0.65473  0.15323  1.0000
  S   S245      1.0  0.15545  0.66486  0.13079  1.0000
  S   S246      1.0  0.19673  0.83777  0.04982  1.0000
  H   H733      1.0  0.15378  0.83939  0.02236  1.0000
  C   C465      1.0  0.13523  0.69996  0.06598  1.0000
  C   C466      1.0  0.13309  0.69045  0.08117  1.0000
  C   C467      1.0  0.14019  0.69215  0.09241  1.0000
  C   C468      1.0  0.14929  0.70348  0.08846  1.0000
  C   C469      1.0  0.15189  0.71250  0.07312  1.0000
  C   C470      1.0  0.14507  0.71059  0.06188  1.0000
  H   H734      1.0  0.12544  0.68223  0.08441  1.0000
  H   H735      1.0  0.13796  0.68530  0.10431  1.0000
  H   H736      1.0  0.15904  0.72117  0.06994  1.0000
  H   H737      1.0  0.14722  0.71763  0.05005  1.0000
  C   C471      1.0  0.15097  0.77075  0.04455  1.0000
  C   C472      1.0  0.13528  0.77889  0.04784  1.0000
  C   C473      1.0  0.13101  0.79069  0.05645  1.0000
  C   C474      1.0  0.14248  0.79436  0.06163  1.0000
  C   C475      1.0  0.15804  0.78584  0.05879  1.0000
  C   C476      1.0  0.16227  0.77400  0.05030  1.0000
  H   H738      1.0  0.12649  0.77641  0.04342  1.0000
  H   H739      1.0  0.11900  0.79738  0.05852  1.0000
  H   H740      1.0  0.16687  0.78843  0.06306  1.0000
  H   H741      1.0  0.17433  0.76748  0.04808  1.0000
  C   C477      1.0  0.13040  0.67300  0.19055  1.0000
  C   C478      1.0  0.13589  0.68651  0.18868  1.0000
  C   C479      1.0  0.13031  0.69539  0.20038  1.0000
  C   C480      1.0  0.11918  0.69088  0.21403  1.0000
  C   C481      1.0  0.11354  0.67744  0.21588  1.0000
  C   C482      1.0  0.11918  0.66851  0.20417  1.0000
  H   H742      1.0  0.14439  0.69011  0.17820  1.0000
  H   H743      1.0  0.13457  0.70586  0.19883  1.0000
  H   H744      1.0  0.10500  0.67382  0.22639  1.0000
  H   H745      1.0  0.11486  0.65806  0.20571  1.0000
  C   C483      1.0  0.08986  0.73722  0.29493  1.0000
  C   C484      1.0  0.08631  0.75013  0.30192  1.0000
  C   C485      1.0  0.09805  0.75803  0.30074  1.0000
  C   C486      1.0  0.11350  0.75281  0.29293  1.0000
  C   C487      1.0  0.11694  0.74020  0.28551  1.0000
  C   C488      1.0  0.10512  0.73247  0.28641  1.0000
  H   H746      1.0  0.07444  0.75403  0.30828  1.0000
  H   H747      1.0  0.09517  0.76804  0.30603  1.0000
  H   H748      1.0  0.12887  0.73619  0.27932  1.0000
  H   H749      1.0  0.10792  0.72257  0.28089  1.0000
  C   C489      1.0  0.20222  0.96924  0.08047  1.0000
  H   H750      1.0  0.17083  0.97229  0.15272  1.0000
  S   S247      1.0  0.10011  0.97071  0.27146  1.0000
  C   C490      1.0  0.06508  0.75037  0.10254  1.0000
  C   C491      1.0  0.07523  0.74100  0.09228  1.0000
  C   C492      1.0  0.07899  0.74729  0.07608  1.0000
  C   C493      1.0  0.07265  0.76302  0.07006  1.0000
  C   C494      1.0  0.06208  0.77227  0.08024  1.0000
  C   C495      1.0  0.05826  0.76595  0.09649  1.0000
  H   H751      1.0  0.08025  0.72884  0.09687  1.0000
  H   H752      1.0  0.08676  0.73994  0.06826  1.0000
  H   H753      1.0  0.05709  0.78443  0.07560  1.0000
  H   H754      1.0  0.05044  0.77325  0.10434  1.0000
  C   C496      1.0  0.02414  0.72326  0.20537  1.0000
  C   C497      1.0  0.02510  0.73862  0.20439  1.0000
  C   C498      1.0  0.03017  0.74208  0.21601  1.0000
  C   C499      1.0  0.03402  0.73031  0.22885  1.0000
  C   C500      1.0  0.03321  0.71487  0.22986  1.0000
  C   C501      1.0  0.02822  0.71134  0.21810  1.0000
  H   H755      1.0  0.21899  0.64876  0.12310  1.0000
  H   H756      1.0  0.03136  0.75386  0.21487  1.0000
  H   H757      1.0  0.03616  0.70572  0.23981  1.0000
  H   H758      1.0  0.02753  0.69942  0.21887  1.0000
  C   C502      1.0  0.05615  0.82192  0.28316  1.0000
  C   C503      1.0  0.05773  0.81439  0.29852  1.0000
  C   C504      1.0  0.06906  0.81712  0.30474  1.0000
  C   C505      1.0  0.07875  0.82746  0.29561  1.0000
  C   C506      1.0  0.07746  0.83463  0.28009  1.0000
  C   C507      1.0  0.06613  0.83193  0.27389  1.0000
  H   H759      1.0  0.05004  0.80662  0.30572  1.0000
  H   H760      1.0  0.06995  0.81161  0.31677  1.0000
  H   H761      1.0  0.08521  0.84231  0.27285  1.0000
  H   H762      1.0  0.06494  0.83785  0.26204  1.0000
  C   C508      1.0  0.05261  0.79846  0.19726  1.0000
  C   C509      1.0  0.05528  0.78515  0.19107  1.0000
  C   C510      1.0  0.04486  0.78408  0.18261  1.0000
  C   C511      1.0  0.03186  0.79640  0.18023  1.0000
  C   C512      1.0  0.02936  0.80975  0.18627  1.0000
  C   C513      1.0  0.03963  0.81074  0.19484  1.0000
  H   H763      1.0  0.06525  0.77559  0.19301  1.0000
  H   H764      1.0  0.04683  0.77375  0.17802  1.0000
  H   H765      1.0  0.01935  0.81932  0.18444  1.0000
  H   H766      1.0  0.03744  0.82103  0.19959  1.0000
  C   C514      1.0  0.17865  0.83965  0.33275  1.0000
  C   C515      1.0  0.18551  0.83822  0.31721  1.0000
  C   C516      1.0  0.18060  0.82859  0.31053  1.0000
  C   C517      1.0  0.16842  0.82075  0.31908  1.0000
  C   C518      1.0  0.16117  0.82261  0.33442  1.0000
  C   C519      1.0  0.16641  0.83188  0.34126  1.0000
  H   H767      1.0  0.23356  0.49642  0.05535  1.0000
  H   H768      1.0  0.18624  0.82724  0.29863  1.0000
  H   H769      1.0  0.15182  0.81660  0.34115  1.0000
  H   H770      1.0  0.16103  0.83291  0.35329  1.0000
  H   H771      1.0  0.12333  0.83758  0.28489  1.0000
  H   H772      1.0  0.18847  0.73906  0.13247  1.0000
  H   H773      1.0  0.03324  0.65206  0.42944  1.0000
  C   C520      1.0  0.16893  0.84963  0.00140  1.0000
  H   H774      1.0  0.18264  0.67827  0.18904  1.0000
  H   H775      1.0  0.02334  0.64799  0.44980  1.0000
  H   H776      1.0  0.17652  0.96337  0.17903  1.0000
  H   H777      1.0  0.12618  0.85259  0.31804  1.0000
  C   C521      1.0  0.19040  0.78289  0.01460  1.0000
  Fe  Fe124     1.0  0.99947  0.72792  0.42485  1.0000
  C   C522      1.0  0.07571  0.90168  0.24468  1.0000
  C   C523      1.0  0.06197  0.89972  0.24189  1.0000
  C   C524      1.0  0.06265  0.88819  0.23391  1.0000
  C   C525      1.0  0.07716  0.87874  0.22849  1.0000
  C   C526      1.0  0.09085  0.88045  0.23161  1.0000
  C   C527      1.0  0.09012  0.89178  0.23982  1.0000
  H   H778      1.0  0.05078  0.90737  0.24558  1.0000
  H   H779      1.0  0.05206  0.88707  0.23137  1.0000
  H   H780      1.0  0.10208  0.87304  0.22756  1.0000
  H   H781      1.0  0.10070  0.89284  0.24234  1.0000
  C   C528      1.0  0.15938  0.89945  0.27865  1.0000
  C   C529      1.0  0.16618  0.89122  0.29150  1.0000
  C   C530      1.0  0.18069  0.89331  0.29220  1.0000
  C   C531      1.0  0.18851  0.90361  0.28004  1.0000
  C   C532      1.0  0.18188  0.91165  0.26702  1.0000
  C   C533      1.0  0.16727  0.90962  0.26635  1.0000
  H   H782      1.0  0.16012  0.88341  0.30110  1.0000
  H   H783      1.0  0.18575  0.88699  0.30226  1.0000
  H   H784      1.0  0.18799  0.91951  0.25751  1.0000
  H   H785      1.0  0.16221  0.91579  0.25626  1.0000
  H   H786      1.0  0.05535  0.66539  0.42101  1.0000
  H   H787      1.0  0.23125  0.83554  0.18088  1.0000
  C   C534      1.0  0.18032  0.87098  0.10346  1.0000
  C   C535      1.0  0.17983  0.86664  0.08995  1.0000
  C   C536      1.0  0.23263  0.79279  0.09078  1.0000
  H   H788      1.0  0.17621  0.86408  0.11497  1.0000
  C   C537      1.0  0.16427  0.90901  0.17740  1.0000
  C   C538      1.0  0.15805  0.90434  0.19349  1.0000
  C   C539      1.0  0.14953  0.91567  0.20234  1.0000
  C   C540      1.0  0.14697  0.93163  0.19503  1.0000
  C   C541      1.0  0.15322  0.93626  0.17895  1.0000
  C   C542      1.0  0.16193  0.92498  0.17017  1.0000
  H   H789      1.0  0.15998  0.89199  0.19911  1.0000
  H   H790      1.0  0.14503  0.91204  0.21478  1.0000
  H   H791      1.0  0.15119  0.94855  0.17322  1.0000
  H   H792      1.0  0.16661  0.92865  0.15774  1.0000
  H   H793      1.0  0.06975  0.78426  0.28055  1.0000
  H   H794      1.0  0.18100  0.96655  0.05606  1.0000
  C   C543      1.0  0.18691  0.97239  0.06139  1.0000
  H   H795      1.0  0.09331  0.73994  0.99460  1.0000
  N   N51       1.0  0.07195  0.77824  0.25854  1.0000
  C   C544      1.0  0.18612  0.61162  0.08444  1.0000
  C   C545      1.0  0.17463  0.62328  0.09121  1.0000
  C   C546      1.0  0.17784  0.63006  0.10186  1.0000
  C   C547      1.0  0.19236  0.62472  0.10629  1.0000
  C   C548      1.0  0.20381  0.61305  0.09957  1.0000
  C   C549      1.0  0.20079  0.60668  0.08851  1.0000
  H   H796      1.0  0.16321  0.62700  0.08823  1.0000
  H   H797      1.0  0.16898  0.63916  0.10686  1.0000
  C   C550      1.0  0.19651  0.97626  0.12382  1.0000
  H   H798      1.0  0.20975  0.59777  0.08331  1.0000
  H   H799      1.0  0.22385  0.86360  0.23406  1.0000
  C   C551      1.0  0.20646  0.94853  0.06674  1.0000
  N   N52       1.0  0.22401  0.80753  0.33660  1.0000
  H   H800      1.0  0.20202  0.69881  0.19488  1.0000
  C   C552      1.0  0.21417  0.51649  0.05612  1.0000
  C   C553      1.0  0.19847  0.52244  0.05491  1.0000
  C   C554      1.0  0.18982  0.51269  0.05289  1.0000
  H   H801      1.0  0.17781  0.98194  0.06628  1.0000
  H   H802      1.0  0.17340  0.96295  0.09191  1.0000
  H   H803      1.0  0.19281  0.53434  0.05617  1.0000
  H   H804      1.0  0.17752  0.51719  0.05252  1.0000
  C   C555      1.0  0.05699  0.76368  0.38650  1.0000
  C   C556      1.0  0.06911  0.75326  0.39328  1.0000
  C   C557      1.0  0.08469  0.75536  0.38748  1.0000
  C   C558      1.0  0.08828  0.76764  0.37464  1.0000
  C   C559      1.0  0.07615  0.77806  0.36789  1.0000
  C   C560      1.0  0.06056  0.77613  0.37388  1.0000
  H   H805      1.0  0.06643  0.74377  0.40314  1.0000
  H   H806      1.0  0.09400  0.74735  0.39286  1.0000
  H   H807      1.0  0.07876  0.78760  0.35806  1.0000
  H   H808      1.0  0.05120  0.78430  0.36866  1.0000
  H   H809      1.0  0.21509  0.60888  0.10291  1.0000
  H   H810      1.0  0.05539  0.79953  0.25219  1.0000
  Fe  Fe125     1.0  0.22313  0.88652  0.33355  1.0000
  H   H811      1.0  0.08257  0.79219  0.23689  1.0000
  H   H812      1.0  0.02713  0.67776  0.33562  1.0000
  H   H813      1.0  0.01467  0.52219  0.40214  1.0000
  H   H814      1.0  0.06448  0.64520  0.45171  1.0000
  S   S248      1.0  0.18545  0.48491  0.05025  1.0000
  H   H815      1.0  0.07790  0.79750  0.26354  1.0000
  H   H816      1.0  0.18794  0.94535  0.09561  1.0000
  C   C561      1.0  0.01579  0.65691  0.32355  1.0000
  C   C562      1.0  0.01710  0.67003  0.31105  1.0000
  C   C563      1.0  0.03184  0.67167  0.30111  1.0000
  C   C564      1.0  0.04533  0.66005  0.30348  1.0000
  C   C565      1.0  0.04398  0.64688  0.31590  1.0000
  C   C566      1.0  0.02930  0.64536  0.32598  1.0000
  H   H817      1.0  0.00669  0.67897  0.30906  1.0000
  H   H818      1.0  0.03273  0.68179  0.29148  1.0000
  H   H819      1.0  0.05435  0.63781  0.31775  1.0000
  H   H820      1.0  0.02842  0.63515  0.33550  1.0000
  C   C567      1.0  0.00698  0.65311  0.40647  1.0000
  C   C568      1.0  0.17284  0.85251  0.98492  1.0000
  C   C569      1.0  0.01150  0.67692  0.41018  1.0000
  C   C570      1.0  0.02611  0.67491  0.39969  1.0000
  C   C571      1.0  0.03095  0.66220  0.39222  1.0000
  C   C572      1.0  0.02123  0.65149  0.39535  1.0000
  H   H821      1.0  0.02193  0.74790  0.19466  1.0000
  H   H822      1.0  0.00743  0.68689  0.41563  1.0000
  H   H823      1.0  0.04231  0.66046  0.38423  1.0000
  H   H824      1.0  0.02504  0.64164  0.38963  1.0000
  H   H825      1.0  0.01699  0.52155  0.46773  1.0000
  S   S249      1.0  0.18442  0.96519  0.12158  1.0000
  H   H826      1.0  0.99884  0.83810  0.24676  1.0000
  C   C573      1.0  0.01456  0.54627  0.38979  1.0000
  H   H827      1.0  0.01469  0.54410  0.37859  1.0000
  H   H828      1.0  0.20339  0.78006  0.01026  1.0000
  C   C574      1.0  0.03721  0.66569  0.45923  1.0000
  N   N53       1.0  0.04295  0.65898  0.44502  1.0000
  H   H829      1.0  0.22617  0.49674  0.00513  1.0000
  H   H830      1.0  0.16057  0.78609  0.01273  1.0000
  H   H831      1.0  0.11917  0.87510  0.29638  1.0000
  H   H832      1.0  0.22977  0.91725  0.15827  1.0000
  Fe  Fe126     1.0  0.99570  0.63542  0.35750  1.0000
  H   H833      1.0  0.23308  0.72447  0.14595  1.0000
  N   N54       1.0  0.13271  0.85217  0.29343  1.0000
  H   H834      1.0  0.02060  0.66773  0.43839  1.0000
  H   H835      1.0  0.18510  0.81481  0.00638  1.0000
  S   S250      1.0  0.00422  0.85793  0.21585  1.0000
  C   C575      1.0  0.16525  0.79696  0.00858  1.0000
  N   N55       1.0  0.20352  0.49985  0.00010  1.0000
  H   H836      1.0  0.16415  0.68682  0.20035  1.0000
  C   C576      1.0  0.19121  0.49075  0.00372  1.0000
  N   N56       1.0  0.12962  0.83427  0.10818  1.0000
  C   C577      1.0  0.12900  0.84297  0.12002  1.0000
  C   C578      1.0  0.14355  0.82110  0.10797  1.0000
  C   C579      1.0  0.13079  0.84498  0.09252  1.0000
  C   C580      1.0  0.11522  0.82803  0.11213  1.0000
  H   H837      1.0  0.11867  0.85304  0.12048  1.0000
  H   H838      1.0  0.13979  0.84780  0.11721  1.0000
  H   H839      1.0  0.12819  0.83525  0.13199  1.0000
  H   H840      1.0  0.14451  0.81440  0.09901  1.0000
  H   H841      1.0  0.15462  0.82540  0.10511  1.0000
  H   H842      1.0  0.14304  0.81270  0.11956  1.0000
  H   H843      1.0  0.13133  0.83879  0.08328  1.0000
  H   H844      1.0  0.14154  0.84991  0.08915  1.0000
  H   H845      1.0  0.12048  0.85507  0.09220  1.0000
  H   H846      1.0  0.11549  0.82141  0.10330  1.0000
  H   H847      1.0  0.10446  0.83764  0.11230  1.0000
  H   H848      1.0  0.11392  0.81986  0.12387  1.0000
  N   N57       1.0  0.10685  0.91417  0.19146  1.0000
  C   C581      1.0  0.09836  0.90164  0.19375  1.0000
  C   C582      1.0  0.09769  0.92942  0.18437  1.0000
  C   C583      1.0  0.12248  0.91062  0.18093  1.0000
  C   C584      1.0  0.10884  0.91505  0.20681  1.0000
  H   H849      1.0  0.10501  0.88992  0.19891  1.0000
  H   H850      1.0  0.09642  0.90075  0.18246  1.0000
  H   H851      1.0  0.08659  0.90378  0.20184  1.0000
  H   H852      1.0  0.08581  0.93240  0.19203  1.0000
  H   H853      1.0  0.10374  0.93913  0.18265  1.0000
  H   H854      1.0  0.09603  0.92927  0.17271  1.0000
  H   H855      1.0  0.12908  0.91999  0.17872  1.0000
  H   H856      1.0  0.12150  0.90957  0.16932  1.0000
  H   H857      1.0  0.12989  0.89937  0.18609  1.0000
  H   H858      1.0  0.09728  0.91773  0.21507  1.0000
  H   H859      1.0  0.11513  0.92445  0.20552  1.0000
  H   H860      1.0  0.11578  0.90378  0.21250  1.0000
  H   H861      1.0  0.12442  0.87253  0.27657  1.0000
  S   S251      1.0  0.12052  0.75451  0.98047  1.0000
  H   H862      1.0  0.17882  0.69970  0.16631  1.0000
  C   C585      1.0  0.05753  0.67942  0.32521  1.0000
  H   H863      1.0  0.19945  0.71376  0.17743  1.0000
  C   C586      1.0  0.17179  0.71379  0.19919  1.0000
  H   H864      1.0  0.21073  0.87637  0.27213  1.0000
  C   C587      1.0  0.19681  0.51434  0.00627  1.0000
  S   S252      1.0  0.23628  0.78161  0.13806  1.0000
  H   H865      1.0  0.23932  0.84129  0.14463  1.0000
  H   H866      1.0  0.03131  0.65764  0.46940  1.0000
  C   C588      1.0  0.18812  0.80833  0.99678  1.0000
  C   C589      1.0  0.21072  0.73359  0.13922  1.0000
  C   C590      1.0  0.20974  0.70203  0.14318  1.0000
  H   H867      1.0  0.17657  0.94747  0.08163  1.0000
  H   H868      1.0  0.18179  0.68236  0.20761  1.0000
  H   H869      1.0  0.17635  0.71015  0.21017  1.0000
  N   N58       1.0  0.14213  0.94425  0.29649  1.0000
  C   C591      1.0  0.13099  0.93853  0.29138  1.0000
  C   C592      1.0  0.14870  0.93191  0.30893  1.0000
  C   C593      1.0  0.13375  0.95857  0.30261  1.0000
  C   C594      1.0  0.15508  0.94801  0.28298  1.0000
  H   H870      1.0  0.12578  0.94758  0.28204  1.0000
  H   H871      1.0  0.12102  0.93559  0.30124  1.0000
  H   H872      1.0  0.13686  0.92779  0.28660  1.0000
  H   H873      1.0  0.15722  0.93578  0.31306  1.0000
  H   H874      1.0  0.13928  0.92870  0.31932  1.0000
  H   H875      1.0  0.15511  0.92098  0.30460  1.0000
  H   H876      1.0  0.12859  0.96805  0.29346  1.0000
  H   H877      1.0  0.14178  0.96333  0.30649  1.0000
  H   H878      1.0  0.16376  0.95231  0.28643  1.0000
  H   H879      1.0  0.15058  0.95727  0.27335  1.0000
  H   H880      1.0  0.16158  0.93751  0.27802  1.0000
  N   N59       1.0  0.07918  0.71505  0.19311  1.0000
  C   C595      1.0  0.08966  0.72576  0.19099  1.0000
  C   C596      1.0  0.07380  0.70877  0.21007  1.0000
  C   C597      1.0  0.08785  0.70194  0.18521  1.0000
  C   C598      1.0  0.06541  0.72374  0.18620  1.0000
  H   H881      1.0  0.09410  0.73065  0.17832  1.0000
  H   H882      1.0  0.10005  0.71958  0.19632  1.0000
  H   H883      1.0  0.08342  0.73582  0.19677  1.0000
  H   H884      1.0  0.06570  0.70076  0.21222  1.0000
  H   H885      1.0  0.08393  0.70204  0.21558  1.0000
  H   H886      1.0  0.06738  0.71837  0.21644  1.0000
  H   H887      1.0  0.09846  0.69528  0.18995  1.0000
  H   H888      1.0  0.09190  0.70622  0.17233  1.0000
  H   H889      1.0  0.06902  0.72846  0.17334  1.0000
  H   H890      1.0  0.05869  0.73383  0.19176  1.0000
  N   N60       1.0  0.10286  0.73449  0.34563  1.0000
  C   C599      1.0  0.11722  0.74040  0.33686  1.0000
  C   C600      1.0  0.10125  0.72241  0.33843  1.0000
  C   C601      1.0  0.08893  0.74763  0.34510  1.0000
  C   C602      1.0  0.10408  0.72760  0.36216  1.0000
  H   H891      1.0  0.11897  0.74926  0.34226  1.0000
  H   H892      1.0  0.11654  0.74619  0.32450  1.0000
  H   H893      1.0  0.12796  0.73079  0.33660  1.0000
  H   H894      1.0  0.11141  0.71217  0.33889  1.0000
  H   H895      1.0  0.09028  0.71804  0.34451  1.0000
  H   H896      1.0  0.10076  0.72718  0.32581  1.0000
  H   H897      1.0  0.07803  0.74412  0.35296  1.0000
  H   H898      1.0  0.08676  0.75224  0.33304  1.0000
  H   H899      1.0  0.09056  0.75763  0.34880  1.0000
  H   H900      1.0  0.09320  0.72359  0.36938  1.0000
  H   H901      1.0  0.10586  0.73637  0.36766  1.0000
  H   H902      1.0  0.11424  0.71742  0.36306  1.0000
  H   H903      1.0  0.12591  0.80126  0.99038  1.0000
  S   S253      1.0  0.01632  0.52069  0.43397  1.0000
  N   N61       1.0  0.05457  0.87741  0.29049  1.0000
  C   C603      1.0  0.05605  0.88233  0.30417  1.0000
  C   C604      1.0  0.07031  0.87391  0.28016  1.0000
  C   C605      1.0  0.04414  0.89021  0.28164  1.0000
  C   C606      1.0  0.04784  0.86322  0.29599  1.0000
  H   H904      1.0  0.04441  0.88500  0.31231  1.0000
  H   H905      1.0  0.06103  0.89307  0.30039  1.0000
  H   H906      1.0  0.06396  0.87292  0.31101  1.0000
  H   H907      1.0  0.06967  0.87042  0.26952  1.0000
  H   H908      1.0  0.07581  0.88431  0.27602  1.0000
  H   H909      1.0  0.07843  0.86417  0.28641  1.0000
  H   H910      1.0  0.04268  0.88675  0.27134  1.0000
  H   H911      1.0  0.04902  0.90103  0.27706  1.0000
  H   H912      1.0  0.03221  0.89337  0.28911  1.0000
  H   H913      1.0  0.04690  0.85895  0.28595  1.0000
  H   H914      1.0  0.03585  0.86549  0.30361  1.0000
  H   H915      1.0  0.05529  0.85340  0.30297  1.0000
  H   H916      1.0  0.18453  0.87244  0.06464  1.0000
  H   H917      1.0  0.05863  0.63845  0.43775  1.0000
  C   C607      1.0  0.04515  0.68383  0.35135  1.0000
  H   H918      1.0  0.11598  0.84141  0.31227  1.0000
  H   H919      1.0  0.08035  0.69347  0.18687  1.0000
  C   C608      1.0  0.19113  0.88875  0.07381  1.0000
  C   C609      1.0  0.16663  0.97295  0.18287  1.0000
  C   C610      1.0  0.23346  0.86374  0.23943  1.0000
  H   H920      1.0  0.23535  0.71976  0.08008  1.0000
  C   C611      1.0  0.17695  0.68685  0.19679  1.0000
  S   S254      1.0  0.20669  0.90618  0.28096  1.0000
  S   S255      1.0  0.20940  0.89406  0.12898  1.0000
  Fe  Fe127     1.0  0.23900  0.86242  0.31366  1.0000
  N   N62       1.0  0.16056  0.61257  0.15699  1.0000
  C   C612      1.0  0.17735  0.60927  0.15758  1.0000
  C   C613      1.0  0.15892  0.61880  0.14051  1.0000
  C   C614      1.0  0.15136  0.62434  0.16644  1.0000
  C   C615      1.0  0.15463  0.59793  0.16335  1.0000
  H   H921      1.0  0.17914  0.60413  0.16976  1.0000
  H   H922      1.0  0.18204  0.62018  0.15328  1.0000
  H   H923      1.0  0.14643  0.62143  0.13952  1.0000
  H   H924      1.0  0.16325  0.62986  0.13543  1.0000
  H   H925      1.0  0.16591  0.61035  0.13292  1.0000
  H   H926      1.0  0.13863  0.62729  0.16622  1.0000
  H   H927      1.0  0.15554  0.63553  0.16189  1.0000
  H   H928      1.0  0.15233  0.62019  0.17896  1.0000
  H   H929      1.0  0.14200  0.60002  0.16301  1.0000
  H   H930      1.0  0.15564  0.59292  0.17580  1.0000
  H   H931      1.0  0.16136  0.58882  0.15645  1.0000
  N   N63       1.0  0.16831  0.66118  0.05149  1.0000
  C   C616      1.0  0.18002  0.64745  0.04659  1.0000
  C   C617      1.0  0.15264  0.65720  0.05757  1.0000
  C   C618      1.0  0.16765  0.67464  0.03786  1.0000
  C   C619      1.0  0.17289  0.66546  0.06394  1.0000
  H   H932      1.0  0.19201  0.64998  0.04189  1.0000
  H   H933      1.0  0.17687  0.64375  0.03733  1.0000
  H   H934      1.0  0.18084  0.63711  0.05663  1.0000
  H   H935      1.0  0.14351  0.66724  0.06148  1.0000
  H   H936      1.0  0.14873  0.65412  0.04841  1.0000
  H   H937      1.0  0.15269  0.64701  0.06776  1.0000
  H   H938      1.0  0.15889  0.68518  0.04120  1.0000
  H   H939      1.0  0.16409  0.67191  0.02828  1.0000
  H   H940      1.0  0.17925  0.67802  0.03295  1.0000
  H   H941      1.0  0.16443  0.67590  0.06778  1.0000
  H   H942      1.0  0.18474  0.66835  0.05981  1.0000
  H   H943      1.0  0.17327  0.65568  0.07450  1.0000
  H   H944      1.0  0.20803  0.96106  0.08988  1.0000
  H   H945      1.0  0.14040  0.82930  0.00804  1.0000
  H   H946      1.0  0.21248  0.93975  0.07570  1.0000
  H   H947      1.0  0.18735  0.54986  0.00271  1.0000
  S   S256      1.0  0.21566  0.92873  0.10858  1.0000
  C   C620      1.0  0.00242  0.79878  0.22171  1.0000
  H   H948      1.0  0.04760  0.71074  0.31661  1.0000
  H   H949      1.0  0.06121  0.67217  0.43499  1.0000
  H   H950      1.0  0.21417  0.86052  0.06005  1.0000
  Fe  Fe128     1.0  0.23387  0.75776  0.13753  1.0000
  C   C621      1.0  0.22678  0.85449  0.05906  1.0000
  C   C622      1.0  0.21073  0.57644  0.99153  1.0000
  H   H951      1.0  0.23386  0.86369  0.05414  1.0000
  H   H952      1.0  0.05772  0.68353  0.31241  1.0000
  C   C623      1.0  0.01456  0.56409  0.40531  1.0000
  Fe  Fe129     1.0  0.19513  0.81249  0.05533  1.0000
  S   S257      1.0  0.03032  0.70497  0.46601  1.0000
  H   H953      1.0  0.16038  0.70894  0.17710  1.0000
  Fe  Fe130     1.0  0.99943  0.50496  0.43845  1.0000
  C   C624      1.0  0.12080  0.86648  0.28906  1.0000
  C   C625      1.0  0.05100  0.66995  0.43202  1.0000
  H   H954      1.0  0.23351  0.63524  0.13310  1.0000
  H   H955      1.0  0.05948  0.70627  0.33072  1.0000
  H   H956      1.0  0.19564  0.97799  0.05174  1.0000
  H   H957      1.0  0.13611  0.83375  0.31375  1.0000
  H   H958      1.0  0.17365  0.72588  0.19336  1.0000
  C   C626      1.0  0.22265  0.70584  0.14578  1.0000
  C   C627      1.0  0.22848  0.79364  0.06521  1.0000
  C   C628      1.0  0.22609  0.85539  0.08565  1.0000
  H   H959      1.0  0.99539  0.73579  0.47120  1.0000
  H   H960      1.0  0.21599  0.95662  0.12728  1.0000
  H   H961      1.0  0.05578  0.66713  0.32864  1.0000
  H   H962      1.0  0.03865  0.71402  0.33611  1.0000
  C   C629      1.0  0.21999  0.83322  0.08059  1.0000
  C   C630      1.0  0.23367  0.79861  0.34825  1.0000
  N   N64       1.0  0.04501  0.68975  0.33446  1.0000
  C   C631      1.0  0.18253  0.95394  0.08621  1.0000
  C   C632      1.0  0.04778  0.70590  0.32930  1.0000
  H   H963      1.0  0.03185  0.73762  0.46210  1.0000
  H   H964      1.0  0.03146  0.77092  0.23670  1.0000
  C   C633      1.0  0.01255  0.51112  0.47554  1.0000
  S   S258      1.0  0.23675  0.56332  0.03302  1.0000
  C   C634      1.0  0.22320  0.72161  0.14369  1.0000
  H   H965      1.0  0.03015  0.77902  0.21658  1.0000
  H   H966      1.0  0.14713  0.86423  0.29900  1.0000
  H   H967      1.0  0.20580  0.52148  0.00381  1.0000
  H   H968      1.0  0.00653  0.80949  0.22111  1.0000
  H   H969      1.0  0.03583  0.69133  0.35874  1.0000
  S   S259      1.0  0.21052  0.75331  0.13779  1.0000
  C   C635      1.0  0.00403  0.78911  0.24899  1.0000
  H   H970      1.0  0.23473  0.82750  0.33042  1.0000
  S   S260      1.0  0.22659  0.90072  0.34888  1.0000
  H   H971      1.0  0.22153  0.73167  0.10301  1.0000
  H   H972      1.0  0.05663  0.68358  0.35376  1.0000
  H   H973      1.0  0.20324  0.69343  0.17692  1.0000
  S   S261      1.0  0.99719  0.65547  0.33609  1.0000
  H   H974      1.0  0.16210  0.80284  0.01866  1.0000
  H   H975      1.0  0.10918  0.86364  0.29062  1.0000
  H   H976      1.0  0.02901  0.69418  0.31931  1.0000
  H   H977      1.0  0.22235  0.82539  0.07229  1.0000
  H   H978      1.0  0.99546  0.81192  0.14918  1.0000
  C   C636      1.0  0.14796  0.85635  0.29120  1.0000
  H   H979      1.0  0.21568  0.83161  0.32591  1.0000
  C   C637      1.0  0.22097  0.97813  0.12854  1.0000
  H   H980      1.0  0.21085  0.79094  0.08678  1.0000
  H   H981      1.0  0.01471  0.57571  0.40618  1.0000
  H   H982      1.0  0.13264  0.97074  0.25475  1.0000
  H   H983      1.0  0.22846  0.84861  0.09733  1.0000
  N   N65       1.0  0.11820  0.75023  0.09318  1.0000
  C   C638      1.0  0.13415  0.74988  0.08303  1.0000
  C   C639      1.0  0.10663  0.76276  0.08546  1.0000
  C   C640      1.0  0.11796  0.75340  0.10839  1.0000
  C   C641      1.0  0.11408  0.73486  0.09599  1.0000
  H   H984      1.0  0.14316  0.74060  0.08855  1.0000
  H   H985      1.0  0.13764  0.76129  0.08065  1.0000
  H   H986      1.0  0.13486  0.74739  0.07148  1.0000
  H   H987      1.0  0.09445  0.76327  0.09277  1.0000
  H   H988      1.0  0.10936  0.77452  0.08320  1.0000
  H   H989      1.0  0.10646  0.76082  0.07393  1.0000
  H   H990      1.0  0.10606  0.75376  0.11632  1.0000
  H   H991      1.0  0.12108  0.76488  0.10671  1.0000
  H   H992      1.0  0.12653  0.74410  0.11452  1.0000
  H   H993      1.0  0.10227  0.73461  0.10393  1.0000
  H   H994      1.0  0.12271  0.72514  0.10158  1.0000
  H   H995      1.0  0.11386  0.73210  0.08484  1.0000
  C   C642      1.0  0.02772  0.71673  0.47954  1.0000
  C   C643      1.0  0.21284  0.49139  0.05212  1.0000
  H   H996      1.0  0.22141  0.85042  0.15641  1.0000
  C   C644      1.0  0.23090  0.73847  0.09987  1.0000
  N   N66       1.0  0.19454  0.96103  0.07370  1.0000
  H   H997      1.0  0.99429  0.72689  0.17341  1.0000
  H   H998      1.0  0.20076  0.80995  0.33328  1.0000
  H   H999      1.0  0.09694  0.80655  0.99704  1.0000
  H   H1000     1.0  0.09762  0.78929  0.99059  1.0000
  C   C645      1.0  0.02935  0.73234  0.47453  1.0000
  H   H1001     1.0  0.21138  0.97476  0.07140  1.0000
  H   H1002     1.0  0.19352  0.97863  0.08600  1.0000
  C   C646      1.0  0.02617  0.78147  0.22857  1.0000
  C   C647      1.0  0.23483  0.86517  0.16931  1.0000
  S   S262      1.0  0.21645  0.79282  0.05350  1.0000
  H   H1003     1.0  0.04290  0.68152  0.42921  1.0000
  H   H1004     1.0  0.21259  0.48696  0.02058  1.0000
  H   H1005     1.0  0.23124  0.89477  0.23235  1.0000
  Fe  Fe131     1.0  0.19464  0.93914  0.12533  1.0000
  H   H1006     1.0  0.99405  0.72055  0.46287  1.0000
  H   H1007     1.0  0.17561  0.71978  0.16759  1.0000
  H   H1008     1.0  0.18277  0.81635  0.98701  1.0000
  H   H1009     1.0  0.22264  0.86436  0.17596  1.0000
  H   H1010     1.0  0.18693  0.52192  0.00078  1.0000
  S   S263      1.0  0.20006  0.90893  0.08563  1.0000
  C   C648      1.0  0.19516  0.55729  0.99505  1.0000
  H   H1011     1.0  0.23322  0.86236  0.14112  1.0000
  C   C649      1.0  0.05579  0.78685  0.25721  1.0000
  S   S264      1.0  0.22672  0.86021  0.33905  1.0000
  C   C650      1.0  0.19184  0.89293  0.08735  1.0000
  C   C651      1.0  0.23903  0.66377  0.10001  1.0000
  C   C652      1.0  0.19684  0.70217  0.18432  1.0000
  S   S265      1.0  0.22149  0.56949  0.06867  1.0000
  H   H1012     1.0  0.23266  0.97258  0.13061  1.0000
  S   S266      1.0  0.17929  0.92390  0.12440  1.0000
  C   C653      1.0  0.08247  0.77968  0.24273  1.0000
  S   S267      1.0  0.17943  0.85560  0.01160  1.0000
  H   H1013     1.0  0.15727  0.84571  0.29391  1.0000
  C   C654      1.0  0.18633  0.88408  0.10218  1.0000
  H   H1014     1.0  0.18673  0.88729  0.11268  1.0000
  H   H1015     1.0  0.12385  0.95619  0.31279  1.0000
  C   C655      1.0  0.19692  0.49708  0.05175  1.0000
  C   C656      1.0  0.13459  0.84113  0.28340  1.0000
  C   C657      1.0  0.17332  0.70804  0.17430  1.0000
  H   H1016     1.0  0.05710  0.71607  0.18782  1.0000
  C   C658      1.0  0.23964  0.90843  0.16177  1.0000
  H   H1017     1.0  0.18793  0.78829  0.02491  1.0000
  H   H1018     1.0  0.21534  0.74485  0.07655  1.0000
  C   C659      1.0  0.21666  0.49026  0.00758  1.0000
  H   H1019     1.0  0.22830  0.80185  0.35988  1.0000
  H   H1020     1.0  0.04302  0.67169  0.35556  1.0000
  C   C660      1.0  0.21155  0.96910  0.12663  1.0000
  C   C661      1.0  0.01462  0.56140  0.39082  1.0000
  H   H1021     1.0  0.18478  0.60098  0.14998  1.0000
  H   H1022     1.0  0.13847  0.84643  0.27074  1.0000
  H   H1023     1.0  0.22222  0.82565  0.09206  1.0000
  H   H1024     1.0  0.06679  0.75643  0.25879  1.0000
  Fe  Fe132     1.0  0.17788  0.84165  0.03645  1.0000
  S   S268      1.0  0.21744  0.86427  0.30512  1.0000
  Fe  Fe133     1.0  0.20470  0.86412  0.33012  1.0000
  C   C662      1.0  0.22278  0.79240  0.08142  1.0000
  H   H1025     1.0  0.19481  0.84422  0.31044  1.0000
  H   H1026     1.0  0.08969  0.77846  0.27012  1.0000
  H   H1027     1.0  0.04751  0.78594  0.26893  1.0000
  H   H1028     1.0  0.06477  0.75986  0.27788  1.0000
  H   H1029     1.0  0.23212  0.69659  0.14970  1.0000
  Fe  Fe134     1.0  0.99456  0.62847  0.39240  1.0000
  H   H1030     1.0  0.12690  0.78417  0.98339  1.0000
  C   C663      1.0  0.03529  0.49383  0.46341  1.0000
  C   C664      1.0  0.01452  0.53386  0.40312  1.0000
  S   S269      1.0  0.17776  0.81621  0.04061  1.0000
  H   H1031     1.0  0.09482  0.77345  0.24331  1.0000
  S   S270      1.0  0.19976  0.89038  0.32714  1.0000
  H   H1032     1.0  0.01558  0.55358  0.42958  1.0000
  C   C665      1.0  0.07188  0.76151  0.26559  1.0000
  H   H1033     1.0  0.08401  0.75442  0.26592  1.0000
  H   H1034     1.0  0.02820  0.49097  0.45674  1.0000
  S   S271      1.0  0.20256  0.92352  0.14686  1.0000
  H   H1035     1.0  0.05129  0.78242  0.24940  1.0000
  C   C666      1.0  0.07760  0.78488  0.26861  1.0000
  H   H1036     1.0  0.07861  0.77467  0.23486  1.0000
  H   H1037     1.0  0.23490  0.78572  0.35003  1.0000
  H   H1038     1.0  0.00471  0.50849  0.46953  1.0000
  C   C667      1.0  0.18509  0.87562  0.07510  1.0000
  Fe  Fe135     1.0  0.20088  0.91238  0.10903  1.0000
  C   C668      1.0  0.01506  0.53640  0.41746  1.0000
  C   C669      1.0  0.01509  0.55154  0.41853  1.0000
  Fe  Fe136     1.0  0.21408  0.89013  0.30266  1.0000
  H   H1039     1.0  0.18166  0.77472  0.99248  1.0000
  H   H1040     1.0  0.20722  0.83887  0.08243  1.0000
  C   C670      1.0  0.00226  0.66573  0.41400  1.0000
  H   H1041     1.0  0.21569  0.95339  0.05716  1.0000
  H   H1042     1.0  0.18775  0.71118  0.13565  1.0000
  N   N67       1.0  0.17972  0.70272  0.18867  1.0000
  H   H1043     1.0  0.02850  0.67702  0.45721  1.0000
  C   C671      1.0  0.14947  0.83576  0.00153  1.0000
  H   H1044     1.0  0.15885  0.80469  0.99947  1.0000
  H   H1045     1.0  0.99139  0.66693  0.42278  1.0000
  C   C672      1.0  0.16113  0.98183  0.15692  1.0000
  H   H1046     1.0  0.21928  0.85656  0.26988  1.0000
  C   C673      1.0  0.19764  0.71403  0.13792  1.0000
  H   H1047     1.0  0.00832  0.79954  0.24887  1.0000
  S   S272      1.0  0.20818  0.68231  0.14810  1.0000
  H   H1048     1.0  0.20844  0.79137  0.34477  1.0000
  H   H1049     1.0  0.21906  0.76246  0.07874  1.0000
  H   H1050     1.0  0.06941  0.67905  0.32674  1.0000
  H   H1051     1.0  0.01976  0.69741  0.33878  1.0000
  H   H1052     1.0  0.00520  0.76884  0.22215  1.0000
  N   N68       1.0  0.18242  0.79353  0.00219  1.0000
  N   N69       1.0  0.00881  0.78522  0.23331  1.0000
  H   H1053     1.0  0.00789  0.76078  0.24193  1.0000
  H   H1054     1.0  0.14358  0.83022  0.28637  1.0000
  H   H1055     1.0  0.20491  0.86882  0.25882  1.0000
  H   H1056     1.0  0.21718  0.82847  0.34583  1.0000
  H   H1057     1.0  0.20100  0.94187  0.06183  1.0000
  H   H1058     1.0  0.18649  0.48751  0.01663  1.0000
  H   H1059     1.0  0.15885  0.71445  0.20274  1.0000
  H   H1060     1.0  0.19870  0.78321  0.98359  1.0000
  H   H1061     1.0  0.23771  0.83556  0.30092  1.0000
  H   H1062     1.0  0.04846  0.63519  0.45803  1.0000
  C   C674      1.0  0.19804  0.72979  0.13614  1.0000
  C   C675      1.0  0.15709  0.84140  0.00967  1.0000
  C   C676      1.0  0.00260  0.77153  0.23398  1.0000
  C   C677      1.0  0.02954  0.68980  0.33194  1.0000
  C   C678      1.0  0.22474  0.75136  0.07454  1.0000
  H   H1063     1.0  0.00611  0.79632  0.20969  1.0000
  H   H1064     1.0  0.18631  0.77162  0.01891  1.0000
  H   H1065     1.0  0.19220  0.51163  0.01923  1.0000
  H   H1066     1.0  0.23238  0.79019  0.32236  1.0000
  H   H1067     1.0  0.20161  0.80860  0.35309  1.0000
  C   C679      1.0  0.23100  0.64696  0.12513  1.0000
  H   H1068     1.0  0.22723  0.66607  0.09733  1.0000
  H   H1069     1.0  0.22558  0.74947  0.10436  1.0000
  H   H1070     1.0  0.23903  0.67319  0.10573  1.0000
  H   H1071     1.0  0.21799  0.89877  0.25034  1.0000
  H   H1072     1.0  0.23587  0.82514  0.27909  1.0000
  C   C680      1.0  0.15389  0.83796  0.98511  1.0000
  C   C681      1.0  0.23145  0.80291  0.32135  1.0000
  H   H1073     1.0  0.22827  0.79166  0.10334  1.0000
  C   C682      1.0  0.22290  0.82450  0.33459  1.0000
  C   C683      1.0  0.20805  0.80418  0.34221  1.0000
  C   C684      1.0  0.23376  0.85139  0.15049  1.0000
  H   H1074     1.0  0.20112  0.80617  0.99242  1.0000
  H   H1075     1.0  0.18114  0.49759  0.99819  1.0000
  H   H1076     1.0  0.21345  0.86141  0.08760  1.0000
  H   H1077     1.0  0.21176  0.89106  0.23739  1.0000
  C   C685      1.0  0.22195  0.89043  0.24231  1.0000
  H   H1078     1.0  0.22929  0.75479  0.06162  1.0000
  H   H1079     1.0  0.23392  0.87644  0.16039  1.0000
  S   S273      1.0  0.99522  0.63918  0.41183  1.0000
  H   H1080     1.0  0.23800  0.85145  0.24530  1.0000
  H   H1081     1.0  0.22451  0.80959  0.31226  1.0000
  H   H1082     1.0  0.23307  0.86469  0.08130  1.0000
  H   H1083     1.0  0.16921  0.97611  0.19276  1.0000
  H   H1084     1.0  0.23715  0.88178  0.26611  1.0000
  Fe  Fe137     1.0  0.23740  0.57998  0.04686  1.0000
  H   H1085     1.0  0.23060  0.65606  0.13146  1.0000
  H   H1086     1.0  0.04696  0.66821  0.46274  1.0000
  C   C686      1.0  0.20935  0.50402  0.98288  1.0000
  H   H1087     1.0  0.08627  0.80793  0.98248  1.0000
  H   H1088     1.0  0.23312  0.91164  0.18563  1.0000
  N   N70       1.0  0.23745  0.74191  0.08273  1.0000
  H   H1089     1.0  0.23110  0.63715  0.09979  1.0000
  H   H1090     1.0  0.22963  0.84700  0.05033  1.0000
  H   H1091     1.0  0.15587  0.96797  0.18763  1.0000
  H   H1092     1.0  0.24013  0.73150  0.10649  1.0000
  C   C687      1.0  0.12780  0.98134  0.25922  1.0000
  C   C688      1.0  0.24106  0.87413  0.25738  1.0000
  H   H1093     1.0  0.21281  0.62651  0.82779  1.0000
  C   C689      1.0  0.18745  0.65067  0.82775  1.0000
  H   H1094     1.0  0.03316  0.53028  0.60914  1.0000
  H   H1095     1.0  0.22470  0.77379  0.77771  1.0000
  H   H1096     1.0  0.03948  0.53620  0.67178  1.0000
  Fe  Fe138     1.0  0.01782  0.58059  0.62871  1.0000
  S   S274      1.0  0.01110  0.58562  0.65290  1.0000
  S   S275      1.0  0.02776  0.55605  0.62424  1.0000
  Fe  Fe139     1.0  0.01234  0.61538  0.61280  1.0000
  S   S276      1.0  0.00564  0.62342  0.63553  1.0000
  S   S277      1.0  0.01068  0.63189  0.58949  1.0000
  Fe  Fe140     1.0  0.02576  0.60390  0.64235  1.0000
  S   S278      1.0  0.04544  0.60408  0.65323  1.0000
  H   H1097     1.0  0.10952  0.97332  0.85949  1.0000
  H   H1098     1.0  0.12044  0.77898  0.65898  1.0000
  S   S279      1.0  0.03373  0.59771  0.61857  1.0000
  H   H1099     1.0  0.15726  0.75812  0.95845  1.0000
  Fe  Fe141     1.0  0.02158  0.73944  0.57429  1.0000
  S   S280      1.0  0.01530  0.71604  0.58621  1.0000
  S   S281      1.0  0.02277  0.75414  0.59047  1.0000
  Fe  Fe142     1.0  0.02180  0.73509  0.54165  1.0000
  S   S282      1.0  0.01564  0.71154  0.55142  1.0000
  H   H1100     1.0  0.04441  0.57181  0.64069  1.0000
  C   C690      1.0  0.21520  0.84122  0.73729  1.0000
  Fe  Fe143     1.0  0.03314  0.70728  0.56616  1.0000
  S   S283      1.0  0.05031  0.68409  0.57016  1.0000
  H   H1101     1.0  0.19963  0.82138  0.76609  1.0000
  S   S284      1.0  0.04077  0.73018  0.55522  1.0000
  H   H1102     1.0  0.04768  0.71584  0.52511  1.0000
  C   C691      1.0  0.21527  0.48759  0.90536  1.0000
  C   C692      1.0  0.18374  0.70427  0.83287  1.0000
  H   H1103     1.0  0.05610  0.70900  0.49895  1.0000
  C   C693      1.0  0.06956  0.97549  0.76758  1.0000
  Fe  Fe144     1.0  0.17181  0.85225  0.69873  1.0000
  C   C694      1.0  0.11421  0.66428  0.73837  1.0000
  C   C695      1.0  0.13593  0.59474  0.94559  1.0000
  S   S285      1.0  0.16481  0.58324  0.90729  1.0000
  Fe  Fe145     1.0  0.10778  0.75580  0.89833  1.0000
  S   S286      1.0  0.10913  0.73587  0.91927  1.0000
  S   S287      1.0  0.12666  0.76967  0.88903  1.0000
  Fe  Fe146     1.0  0.07976  0.74843  0.89180  1.0000
  S   S288      1.0  0.07865  0.72780  0.91227  1.0000
  S   S289      1.0  0.06381  0.75680  0.87465  1.0000
  Fe  Fe147     1.0  0.08285  0.74358  0.92520  1.0000
  S   S290      1.0  0.07014  0.74416  0.95015  1.0000
  Fe  Fe148     1.0  0.10493  0.72210  0.90440  1.0000
  S   S291      1.0  0.12101  0.69881  0.90200  1.0000
  S   S292      1.0  0.08175  0.76485  0.90540  1.0000
  S   S293      1.0  0.10571  0.74142  0.88284  1.0000
  Fe  Fe149     1.0  0.13884  0.83064  0.92343  1.0000
  S   S294      1.0  0.15337  0.81257  0.93909  1.0000
  S   S295      1.0  0.11637  0.82458  0.92355  1.0000
  H   H1104     1.0  0.07207  0.69262  0.49540  1.0000
  H   H1105     1.0  0.02052  0.71361  0.51915  1.0000
  C   C696      1.0  0.02314  0.71884  0.50679  1.0000
  H   H1106     1.0  0.04310  0.69130  0.52263  1.0000
  Fe  Fe150     1.0  0.15301  0.83264  0.94917  1.0000
  H   H1107     1.0  0.08667  0.67765  0.51671  1.0000
  S   S296      1.0  0.15965  0.83587  0.90397  1.0000
  S   S297      1.0  0.13709  0.85042  0.93462  1.0000
  Fe  Fe151     1.0  0.14474  0.63709  0.83211  1.0000
  S   S298      1.0  0.14061  0.65421  0.84725  1.0000
  S   S299      1.0  0.16460  0.61585  0.83571  1.0000
  Fe  Fe152     1.0  0.11963  0.65662  0.81402  1.0000
  S   S300      1.0  0.11368  0.67524  0.82792  1.0000
  S   S301      1.0  0.10309  0.66449  0.79715  1.0000
  Fe  Fe153     1.0  0.13942  0.67263  0.82520  1.0000
  Fe  Fe154     1.0  0.11511  0.65568  0.84896  1.0000
  S   S302      1.0  0.09580  0.66027  0.86989  1.0000
  S   S303      1.0  0.14569  0.65553  0.80942  1.0000
  S   S304      1.0  0.11907  0.63698  0.83561  1.0000
  H   H1108     1.0  0.17830  0.76437  0.92518  1.0000
  S   S305      1.0  0.14050  0.95908  0.81848  1.0000
  H   H1109     1.0  0.17218  0.56114  0.86811  1.0000
  C   C697      1.0  0.99843  0.55140  0.62615  1.0000
  S   S306      1.0  0.15911  0.92230  0.82052  1.0000
  Fe  Fe155     1.0  0.15500  0.94395  0.80161  1.0000
  S   S307      1.0  0.14663  0.94869  0.77930  1.0000
  Fe  Fe156     1.0  0.14678  0.93817  0.83734  1.0000
  S   S308      1.0  0.12850  0.92997  0.85824  1.0000
  S   S309      1.0  0.17756  0.95062  0.79984  1.0000
  S   S310      1.0  0.16840  0.94501  0.83849  1.0000
  S   S311      1.0  0.07113  0.91634  0.77734  1.0000
  Fe  Fe157     1.0  0.07893  0.92566  0.73220  1.0000
  S   S312      1.0  0.08375  0.90089  0.74608  1.0000
  S   S313      1.0  0.08235  0.93185  0.70594  1.0000
  Fe  Fe158     1.0  0.06048  0.90869  0.76183  1.0000
  S   S314      1.0  0.04184  0.89422  0.77194  1.0000
  Fe  Fe159     1.0  0.09398  0.91091  0.76012  1.0000
  S   S315      1.0  0.11609  0.89867  0.76923  1.0000
  S   S316      1.0  0.05491  0.93292  0.74700  1.0000
  S   S317      1.0  0.09116  0.93513  0.74477  1.0000
  Fe  Fe160     1.0  0.15953  0.87882  0.67332  1.0000
  S   S318      1.0  0.14821  0.86138  0.69252  1.0000
  S   S319      1.0  0.14861  0.90438  0.66632  1.0000
  Fe  Fe161     1.0  0.15705  0.84541  0.67533  1.0000
  S   S320      1.0  0.13702  0.83383  0.67692  1.0000
  S   S321      1.0  0.18231  0.87127  0.68108  1.0000
  S   S322      1.0  0.16690  0.86380  0.65550  1.0000
  H   H1110     1.0  0.05908  0.74345  0.72767  1.0000
  H   H1111     1.0  0.21463  0.78430  0.79296  1.0000
  Fe  Fe162     1.0  0.22705  0.73811  0.83530  1.0000
  S   S323      1.0  0.99240  0.72084  0.81667  1.0000
  C   C698      1.0  0.03542  0.50128  0.48697  1.0000
  S   S324      1.0  0.02169  0.87050  0.72251  1.0000
  H   H1112     1.0  0.12583  0.97832  0.78953  1.0000
  H   H1113     1.0  0.09987  0.82869  0.96445  1.0000
  S   S325      1.0  0.01082  0.80233  0.71808  1.0000
  H   H1114     1.0  0.00157  0.76861  0.81669  1.0000
  S   S326      1.0  0.01264  0.82923  0.74296  1.0000
  Fe  Fe163     1.0  0.00993  0.73409  0.81665  1.0000
  H   H1115     1.0  0.21464  0.49332  0.97787  1.0000
  S   S327      1.0  0.01878  0.74964  0.79363  1.0000
  Fe  Fe164     1.0  0.01484  0.71557  0.84916  1.0000
  Fe  Fe165     1.0  0.99169  0.60453  0.64397  1.0000
  S   S328      1.0  0.02996  0.70789  0.86709  1.0000
  Fe  Fe166     1.0  0.00903  0.69962  0.82679  1.0000
  S   S329      1.0  0.01731  0.67726  0.81810  1.0000
  S   S330      1.0  0.05808  0.96133  0.77223  1.0000
  S   S331      1.0  0.02733  0.71258  0.82485  1.0000
  H   H1116     1.0  0.11351  0.97560  0.87700  1.0000
  Fe  Fe167     1.0  0.08483  0.77124  0.62531  1.0000
  S   S332      1.0  0.06554  0.77116  0.64704  1.0000
  S   S333      1.0  0.08521  0.76021  0.60550  1.0000
  Fe  Fe168     1.0  0.10221  0.79016  0.63592  1.0000
  S   S334      1.0  0.08396  0.79169  0.65821  1.0000
  S   S335      1.0  0.12412  0.80019  0.63008  1.0000
  Fe  Fe169     1.0  0.08485  0.76637  0.65988  1.0000
  S   S336      1.0  0.08445  0.75058  0.68394  1.0000
  Fe  Fe170     1.0  0.06649  0.79639  0.64330  1.0000
  S   S337      1.0  0.04438  0.81504  0.64609  1.0000
  S   S338      1.0  0.10438  0.76424  0.63850  1.0000
  S   S339      1.0  0.08454  0.79701  0.62063  1.0000
  Fe  Fe171     1.0  0.04646  0.67420  0.73338  1.0000
  S   S340      1.0  0.07248  0.67008  0.73026  1.0000
  S   S341      1.0  0.03186  0.69444  0.74425  1.0000
  Fe  Fe172     1.0  0.04870  0.64887  0.71621  1.0000
  S   S342      1.0  0.07516  0.64223  0.71202  1.0000
  S   S343      1.0  0.03141  0.64145  0.70725  1.0000
  Fe  Fe173     1.0  0.07186  0.64461  0.73699  1.0000
  S   S344      1.0  0.08798  0.62932  0.75315  1.0000
  Fe  Fe174     1.0  0.07369  0.66822  0.70590  1.0000
  S   S345      1.0  0.08937  0.67957  0.68442  1.0000
  S   S346      1.0  0.04543  0.64872  0.74186  1.0000
  S   S347      1.0  0.04766  0.67481  0.70831  1.0000
  C   C699      1.0  0.11144  0.79902  0.96042  1.0000
  C   C700      1.0  0.08548  0.73104  0.68373  1.0000
  C   C701      1.0  0.07917  0.72113  0.69747  1.0000
  C   C702      1.0  0.07994  0.70546  0.69756  1.0000
  C   C703      1.0  0.08754  0.69946  0.68408  1.0000
  C   C704      1.0  0.09396  0.70934  0.67035  1.0000
  C   C705      1.0  0.09272  0.72519  0.67010  1.0000
  H   H1117     1.0  0.07344  0.72563  0.70799  1.0000
  H   H1118     1.0  0.07467  0.69808  0.70810  1.0000
  H   H1119     1.0  0.09978  0.70480  0.65985  1.0000
  H   H1120     1.0  0.09757  0.73280  0.65942  1.0000
  C   C706      1.0  0.02340  0.68189  0.79762  1.0000
  C   C707      1.0  0.02174  0.69759  0.78954  1.0000
  C   C708      1.0  0.02450  0.70138  0.77312  1.0000
  C   C709      1.0  0.02962  0.68946  0.76469  1.0000
  C   C710      1.0  0.03225  0.67373  0.77273  1.0000
  C   C711      1.0  0.02894  0.66993  0.78921  1.0000
  H   H1121     1.0  0.01798  0.70690  0.79591  1.0000
  H   H1122     1.0  0.02259  0.71355  0.76699  1.0000
  H   H1123     1.0  0.03633  0.66446  0.76633  1.0000
  H   H1124     1.0  0.03042  0.65775  0.79541  1.0000
  C   C712      1.0  0.01992  0.80618  0.69804  1.0000
  C   C713      1.0  0.03231  0.79472  0.69212  1.0000
  C   C714      1.0  0.03986  0.79752  0.67620  1.0000
  C   C715      1.0  0.03486  0.81166  0.66604  1.0000
  C   C716      1.0  0.02229  0.82305  0.67189  1.0000
  C   C717      1.0  0.01489  0.82035  0.68792  1.0000
  H   H1125     1.0  0.03624  0.78377  0.69987  1.0000
  H   H1126     1.0  0.04953  0.78865  0.67183  1.0000
  H   H1127     1.0  0.01836  0.83399  0.66407  1.0000
  H   H1128     1.0  0.12864  0.98205  0.76858  1.0000
  H   H1129     1.0  0.16462  0.60004  0.93049  1.0000
  H   H1130     1.0  0.03822  0.75398  0.75675  1.0000
  C   C718      1.0  0.00948  0.77905  0.77676  1.0000
  C   C719      1.0  0.00924  0.76948  0.79180  1.0000
  H   H1131     1.0  0.08992  0.69567  0.51866  1.0000
  H   H1132     1.0  0.02321  0.81690  0.77309  1.0000
  H   H1133     1.0  0.02225  0.77262  0.73797  1.0000
  H   H1134     1.0  0.01511  0.77409  0.76652  1.0000
  S   S348      1.0  0.22937  0.88551  0.76085  1.0000
  H   H1135     1.0  0.22699  0.48586  0.89798  1.0000
  C   C720      1.0  0.13360  0.82552  0.66297  1.0000
  C   C721      1.0  0.14533  0.82147  0.65011  1.0000
  C   C722      1.0  0.14221  0.81396  0.63994  1.0000
  C   C723      1.0  0.12733  0.81059  0.64244  1.0000
  C   C724      1.0  0.11549  0.81510  0.65502  1.0000
  C   C725      1.0  0.11867  0.82234  0.66533  1.0000
  H   H1136     1.0  0.15688  0.82383  0.64817  1.0000
  H   H1137     1.0  0.15142  0.81060  0.63017  1.0000
  H   H1138     1.0  0.10389  0.81299  0.65682  1.0000
  H   H1139     1.0  0.10950  0.82546  0.67522  1.0000
  C   C726      1.0  0.03574  0.88860  0.75788  1.0000
  C   C727      1.0  0.04416  0.89029  0.74227  1.0000
  C   C728      1.0  0.03963  0.88484  0.73146  1.0000
  C   C729      1.0  0.02675  0.87761  0.73623  1.0000
  C   C730      1.0  0.01807  0.87626  0.75175  1.0000
  C   C731      1.0  0.02252  0.88186  0.76252  1.0000
  H   H1140     1.0  0.05426  0.89565  0.73855  1.0000
  H   H1141     1.0  0.04628  0.88607  0.71943  1.0000
  H   H1142     1.0  0.00793  0.87098  0.75544  1.0000
  H   H1143     1.0  0.01575  0.88099  0.77448  1.0000
  C   C732      1.0  0.10104  0.92405  0.69557  1.0000
  C   C733      1.0  0.10636  0.93181  0.68014  1.0000
  C   C734      1.0  0.12112  0.92579  0.67142  1.0000
  C   C735      1.0  0.13047  0.91175  0.67791  1.0000
  C   C736      1.0  0.12509  0.90377  0.69326  1.0000
  C   C737      1.0  0.11042  0.91002  0.70218  1.0000
  H   H1144     1.0  0.09912  0.94262  0.67498  1.0000
  H   H1145     1.0  0.12523  0.93197  0.65954  1.0000
  H   H1146     1.0  0.13228  0.89291  0.69827  1.0000
  H   H1147     1.0  0.10622  0.90391  0.71404  1.0000
  C   C738      1.0  0.20088  0.54281  0.87027  1.0000
  C   C739      1.0  0.12649  0.91168  0.77086  1.0000
  C   C740      1.0  0.12625  0.92631  0.76047  1.0000
  C   C741      1.0  0.13307  0.93732  0.76284  1.0000
  C   C742      1.0  0.14012  0.93381  0.77567  1.0000
  C   C743      1.0  0.14101  0.91894  0.78572  1.0000
  C   C744      1.0  0.13426  0.90784  0.78325  1.0000
  H   H1148     1.0  0.12071  0.92927  0.75065  1.0000
  H   H1149     1.0  0.13248  0.94876  0.75496  1.0000
  H   H1150     1.0  0.14662  0.91610  0.79554  1.0000
  H   H1151     1.0  0.13459  0.89648  0.79127  1.0000
  C   C745      1.0  0.09862  0.65370  0.78604  1.0000
  C   C746      1.0  0.10752  0.63881  0.78401  1.0000
  C   C747      1.0  0.10392  0.63119  0.77423  1.0000
  C   C748      1.0  0.09142  0.63837  0.76650  1.0000
  C   C749      1.0  0.08227  0.65302  0.76897  1.0000
  C   C750      1.0  0.08595  0.66068  0.77856  1.0000
  H   H1152     1.0  0.11728  0.63330  0.78977  1.0000
  H   H1153     1.0  0.11097  0.61979  0.77250  1.0000
  H   H1154     1.0  0.07233  0.65849  0.76349  1.0000
  H   H1155     1.0  0.07891  0.67213  0.78016  1.0000
  C   C751      1.0  0.00221  0.79500  0.77489  1.0000
  H   H1156     1.0  0.17296  0.49399  0.93105  1.0000
  H   H1157     1.0  0.02842  0.50409  0.49846  1.0000
  N   N71       1.0  0.06593  0.69617  0.51906  1.0000
  H   H1158     1.0  0.11997  0.68413  0.71008  1.0000
  H   H1159     1.0  0.12047  0.67066  0.69852  1.0000
  H   H1160     1.0  0.13650  0.79954  0.97092  1.0000
  H   H1161     1.0  0.18818  0.59281  0.85047  1.0000
  H   H1162     1.0  0.12214  0.80042  0.95097  1.0000
  C   C752      1.0  0.11593  0.67351  0.71038  1.0000
  C   C753      1.0  0.15436  0.89220  0.89313  1.0000
  C   C754      1.0  0.02451  0.71005  0.49570  1.0000
  C   C755      1.0  0.15188  0.91745  0.87468  1.0000
  C   C756      1.0  0.13793  0.91572  0.87227  1.0000
  C   C757      1.0  0.13191  0.90236  0.88069  1.0000
  C   C758      1.0  0.14020  0.89051  0.89104  1.0000
  C   C759      1.0  0.06758  0.70227  0.50192  1.0000
  H   H1163     1.0  0.06993  0.93231  0.81262  1.0000
  H   H1164     1.0  0.12107  0.90097  0.87892  1.0000
  H   H1165     1.0  0.13580  0.88000  0.89718  1.0000
  C   C760      1.0  0.08302  0.74812  0.95924  1.0000
  H   H1166     1.0  0.12932  0.60716  0.94484  1.0000
  C   C761      1.0  0.09455  0.75638  0.95006  1.0000
  H   H1167     1.0  0.17193  0.71293  0.81350  1.0000
  H   H1168     1.0  0.09491  0.76104  0.93768  1.0000
  C   C762      1.0  0.05488  0.74300  0.87221  1.0000
  C   C763      1.0  0.05801  0.72733  0.88026  1.0000
  C   C764      1.0  0.05028  0.71664  0.87859  1.0000
  C   C765      1.0  0.03960  0.72152  0.86867  1.0000
  C   C766      1.0  0.03676  0.73710  0.86031  1.0000
  C   C767      1.0  0.04435  0.74784  0.86215  1.0000
  H   H1169     1.0  0.06630  0.72342  0.88783  1.0000
  H   H1170     1.0  0.05255  0.70455  0.88500  1.0000
  H   H1171     1.0  0.02855  0.74091  0.85262  1.0000
  H   H1172     1.0  0.04195  0.75995  0.85583  1.0000
  C   C768      1.0  0.11330  0.68700  0.89500  1.0000
  C   C769      1.0  0.12349  0.67426  0.88908  1.0000
  C   C770      1.0  0.11790  0.66553  0.88208  1.0000
  C   C771      1.0  0.10215  0.66951  0.88093  1.0000
  C   C772      1.0  0.09173  0.68168  0.88766  1.0000
  C   C773      1.0  0.09734  0.69057  0.89452  1.0000
  H   H1173     1.0  0.13577  0.67129  0.88965  1.0000
  H   H1174     1.0  0.12575  0.65555  0.87780  1.0000
  H   H1175     1.0  0.07945  0.68456  0.88711  1.0000
  H   H1176     1.0  0.08936  0.70023  0.89929  1.0000
  C   C774      1.0  0.12316  0.78552  0.89802  1.0000
  C   C775      1.0  0.13380  0.79547  0.89310  1.0000
  C   C776      1.0  0.13196  0.80733  0.90106  1.0000
  C   C777      1.0  0.11907  0.80967  0.91357  1.0000
  C   C778      1.0  0.10815  0.80003  0.91820  1.0000
  C   C779      1.0  0.11029  0.78786  0.91054  1.0000
  H   H1177     1.0  0.14345  0.79401  0.88308  1.0000
  H   H1178     1.0  0.14029  0.81490  0.89728  1.0000
  H   H1179     1.0  0.09809  0.80188  0.92779  1.0000
  H   H1180     1.0  0.10198  0.78031  0.91433  1.0000
  H   H1181     1.0  0.10112  0.66709  0.74086  1.0000
  C   C780      1.0  0.16511  0.59227  0.88733  1.0000
  C   C781      1.0  0.16452  0.60655  0.85557  1.0000
  C   C782      1.0  0.15140  0.61026  0.86745  1.0000
  C   C783      1.0  0.15165  0.60302  0.88326  1.0000
  H   H1182     1.0  0.14096  0.61859  0.86448  1.0000
  H   H1183     1.0  0.14135  0.60582  0.89235  1.0000
  N   N72       1.0  0.12105  0.66012  0.72285  1.0000
  H   H1184     1.0  0.00606  0.75045  0.93382  1.0000
  N   N73       1.0  0.23895  0.61835  0.94999  1.0000
  C   C784      1.0  0.17331  0.68428  0.85387  1.0000
  C   C785      1.0  0.22290  0.86846  0.64915  1.0000
  C   C786      1.0  0.20929  0.56768  0.96903  1.0000
  H   H1185     1.0  0.20331  0.90976  0.76934  1.0000
  H   H1186     1.0  0.21286  0.56798  0.95656  1.0000
  S   S349      1.0  0.14606  0.82828  0.97565  1.0000
  H   H1187     1.0  0.03395  0.84077  0.75769  1.0000
  H   H1188     1.0  0.10267  0.64871  0.72422  1.0000
  H   H1189     1.0  0.16918  0.53828  0.90042  1.0000
  C   C787      1.0  0.19386  0.50346  0.92077  1.0000
  C   C788      1.0  0.08303  0.97535  0.75544  1.0000
  C   C789      1.0  0.03963  0.76174  0.91154  1.0000
  H   H1190     1.0  0.10493  0.94025  0.82067  1.0000
  H   H1191     1.0  0.18898  0.51385  0.92557  1.0000
  H   H1192     1.0  0.07255  0.53434  0.65071  1.0000
  N   N74       1.0  0.09119  0.94113  0.80435  1.0000
  Fe  Fe175     1.0  0.22080  0.56746  0.91586  1.0000
  C   C790      1.0  0.04052  0.75403  0.59523  1.0000
  C   C791      1.0  0.03978  0.75838  0.60919  1.0000
  C   C792      1.0  0.05348  0.75965  0.61281  1.0000
  C   C793      1.0  0.06802  0.75698  0.60228  1.0000
  C   C794      1.0  0.06882  0.75227  0.58850  1.0000
  C   C795      1.0  0.05516  0.75071  0.58501  1.0000
  H   H1193     1.0  0.02852  0.76079  0.61723  1.0000
  H   H1194     1.0  0.05276  0.76293  0.62361  1.0000
  H   H1195     1.0  0.08003  0.75011  0.58032  1.0000
  H   H1196     1.0  0.05588  0.74742  0.57420  1.0000
  C   C796      1.0  0.04148  0.61460  0.66815  1.0000
  C   C797      1.0  0.02622  0.62249  0.67388  1.0000
  C   C798      1.0  0.02337  0.63056  0.68593  1.0000
  C   C799      1.0  0.03573  0.63092  0.69228  1.0000
  C   C800      1.0  0.05103  0.62308  0.68651  1.0000
  C   C801      1.0  0.05389  0.61497  0.67446  1.0000
  H   H1197     1.0  0.01657  0.62223  0.66916  1.0000
  H   H1198     1.0  0.01149  0.63653  0.69040  1.0000
  H   H1199     1.0  0.06058  0.62305  0.69152  1.0000
  H   H1200     1.0  0.06572  0.60881  0.67013  1.0000
  C   C802      1.0  0.02330  0.64505  0.58318  1.0000
  C   C803      1.0  0.03449  0.64412  0.59159  1.0000
  C   C804      1.0  0.04322  0.65587  0.58724  1.0000
  C   C805      1.0  0.04047  0.66868  0.57476  1.0000
  C   C806      1.0  0.02954  0.66935  0.56620  1.0000
  C   C807      1.0  0.02113  0.65746  0.57027  1.0000
  H   H1201     1.0  0.03622  0.63451  0.60157  1.0000
  H   H1202     1.0  0.05174  0.65527  0.59384  1.0000
  H   H1203     1.0  0.02757  0.67897  0.55636  1.0000
  H   H1204     1.0  0.01256  0.65814  0.56369  1.0000
  H   H1205     1.0  0.04539  0.49124  0.48945  1.0000
  H   H1206     1.0  0.18193  0.85896  0.97847  1.0000
  H   H1207     1.0  0.04128  0.72494  0.73351  1.0000
  C   C808      1.0  0.01025  0.52644  0.61048  1.0000
  C   C809      1.0  0.02058  0.53406  0.61318  1.0000
  C   C810      1.0  0.01468  0.54666  0.62089  1.0000
  S   S350      1.0  0.99763  0.70079  0.85179  1.0000
  H   H1208     1.0  0.03010  0.75292  0.48165  1.0000
  H   H1209     1.0  0.05074  0.76368  0.72877  1.0000
  H   H1210     1.0  0.23958  0.89225  0.57882  1.0000
  H   H1211     1.0  0.20319  0.79141  0.75473  1.0000
  C   C811      1.0  0.19567  0.85846  0.86146  1.0000
  H   H1212     1.0  0.11414  0.94594  0.80027  1.0000
  C   C812      1.0  0.21422  0.78300  0.78121  1.0000
  N   N75       1.0  0.06011  0.66834  0.83277  1.0000
  C   C813      1.0  0.04611  0.67251  0.84514  1.0000
  C   C814      1.0  0.07448  0.66478  0.83897  1.0000
  C   C815      1.0  0.06072  0.68165  0.81901  1.0000
  C   C816      1.0  0.05914  0.65442  0.82790  1.0000
  H   H1213     1.0  0.03502  0.67524  0.84093  1.0000
  H   H1214     1.0  0.04643  0.68305  0.84900  1.0000
  H   H1215     1.0  0.04529  0.66277  0.85575  1.0000
  H   H1216     1.0  0.07440  0.65484  0.84944  1.0000
  H   H1217     1.0  0.08526  0.66149  0.82998  1.0000
  H   H1218     1.0  0.07564  0.67504  0.84270  1.0000
  H   H1219     1.0  0.07123  0.67896  0.80952  1.0000
  H   H1220     1.0  0.06127  0.69244  0.82222  1.0000
  H   H1221     1.0  0.05016  0.68441  0.81389  1.0000
  H   H1222     1.0  0.06951  0.65110  0.81846  1.0000
  H   H1223     1.0  0.04839  0.65673  0.82318  1.0000
  H   H1224     1.0  0.05872  0.64409  0.83793  1.0000
  N   N76       1.0  0.10109  0.71702  0.84523  1.0000
  C   C817      1.0  0.11468  0.70762  0.85215  1.0000
  C   C818      1.0  0.08816  0.70844  0.85080  1.0000
  C   C819      1.0  0.10595  0.71980  0.82790  1.0000
  C   C820      1.0  0.09552  0.73225  0.85010  1.0000
  H   H1225     1.0  0.11860  0.69567  0.84950  1.0000
  H   H1226     1.0  0.11173  0.70608  0.86514  1.0000
  H   H1227     1.0  0.12500  0.71327  0.84747  1.0000
  H   H1228     1.0  0.07777  0.71506  0.84565  1.0000
  H   H1229     1.0  0.09195  0.69664  0.84789  1.0000
  H   H1230     1.0  0.08402  0.70655  0.86378  1.0000
  H   H1231     1.0  0.11563  0.72634  0.82334  1.0000
  H   H1232     1.0  0.09596  0.72666  0.82224  1.0000
  H   H1233     1.0  0.11052  0.70856  0.82384  1.0000
  H   H1234     1.0  0.09149  0.73056  0.86310  1.0000
  H   H1235     1.0  0.08530  0.73970  0.84504  1.0000
  H   H1236     1.0  0.10496  0.73903  0.84637  1.0000
  N   N77       1.0  0.15396  0.89497  0.72779  1.0000
  C   C821      1.0  0.15424  0.88131  0.74124  1.0000
  C   C822      1.0  0.13747  0.90253  0.72676  1.0000
  C   C823      1.0  0.16248  0.88964  0.71309  1.0000
  C   C824      1.0  0.16162  0.90636  0.73008  1.0000
  H   H1237     1.0  0.14785  0.88488  0.75254  1.0000
  H   H1238     1.0  0.16651  0.87523  0.74227  1.0000
  H   H1239     1.0  0.14858  0.87244  0.73989  1.0000
  H   H1240     1.0  0.13678  0.91250  0.71637  1.0000
  H   H1241     1.0  0.13113  0.89401  0.72588  1.0000
  H   H1242     1.0  0.13084  0.90725  0.73735  1.0000
  H   H1243     1.0  0.15702  0.88096  0.71112  1.0000
  H   H1244     1.0  0.17497  0.88374  0.71345  1.0000
  H   H1245     1.0  0.16247  0.89958  0.70262  1.0000
  H   H1246     1.0  0.16147  0.91689  0.72022  1.0000
  H   H1247     1.0  0.17413  0.90103  0.73077  1.0000
  H   H1248     1.0  0.15554  0.91047  0.74118  1.0000
  N   N78       1.0  0.03402  0.74877  0.73665  1.0000
  C   C825      1.0  0.04862  0.75319  0.72625  1.0000
  C   C826      1.0  0.03559  0.74432  0.75321  1.0000
  C   C827      1.0  0.03130  0.73531  0.73235  1.0000
  C   C828      1.0  0.02058  0.76227  0.73478  1.0000
  H   H1249     1.0  0.23496  0.64110  0.95512  1.0000
  H   H1250     1.0  0.00869  0.67342  0.60514  1.0000
  S   S351      1.0  0.23683  0.71205  0.84128  1.0000
  H   H1251     1.0  0.23370  0.77110  0.83209  1.0000
  S   S352      1.0  0.99884  0.73859  0.84095  1.0000
  H   H1252     1.0  0.04516  0.73373  0.75530  1.0000
  S   S353      1.0  0.00465  0.49388  0.58026  1.0000
  H   H1253     1.0  0.15452  0.61462  0.94188  1.0000
  H   H1254     1.0  0.12923  0.96744  0.86248  1.0000
  H   H1255     1.0  0.00934  0.75942  0.74241  1.0000
  H   H1256     1.0  0.01907  0.76612  0.72241  1.0000
  H   H1257     1.0  0.20356  0.77842  0.78276  1.0000
  N   N79       1.0  0.04088  0.80792  0.60355  1.0000
  C   C829      1.0  0.02735  0.81367  0.59583  1.0000
  C   C830      1.0  0.05402  0.79846  0.59392  1.0000
  C   C831      1.0  0.03613  0.79813  0.61931  1.0000
  C   C832      1.0  0.04598  0.82143  0.60519  1.0000
  H   H1258     1.0  0.03051  0.82109  0.58389  1.0000
  H   H1259     1.0  0.01721  0.82082  0.60282  1.0000
  H   H1260     1.0  0.02324  0.80371  0.59446  1.0000
  H   H1261     1.0  0.06415  0.79313  0.59980  1.0000
  H   H1262     1.0  0.05035  0.78864  0.59175  1.0000
  H   H1263     1.0  0.02675  0.80507  0.62716  1.0000
  H   H1264     1.0  0.04622  0.79314  0.62524  1.0000
  H   H1265     1.0  0.03645  0.82865  0.61267  1.0000
  H   H1266     1.0  0.04959  0.82919  0.59359  1.0000
  H   H1267     1.0  0.06764  0.53361  0.67149  1.0000
  C   C833      1.0  0.99434  0.89489  0.70050  1.0000
  H   H1268     1.0  0.15192  0.76161  0.91208  1.0000
  H   H1269     1.0  0.21770  0.77493  0.90325  1.0000
  H   H1270     1.0  0.03902  0.77153  0.91702  1.0000
  Fe  Fe176     1.0  0.16336  0.96456  0.81786  1.0000
  H   H1271     1.0  0.13954  0.59261  0.93341  1.0000
  S   S354      1.0  0.21512  0.71239  0.87690  1.0000
  H   H1272     1.0  0.04801  0.75613  0.71361  1.0000
  H   H1273     1.0  0.15721  0.77644  0.94418  1.0000
  H   H1274     1.0  0.20196  0.87693  0.83262  1.0000
  C   C834      1.0  0.03604  0.74391  0.93689  1.0000
  H   H1275     1.0  0.09974  0.92575  0.78814  1.0000
  H   H1276     1.0  0.05935  0.67517  0.51888  1.0000
  C   C835      1.0  0.17354  0.75350  0.92937  1.0000
  C   C836      1.0  0.19933  0.55790  0.97884  1.0000
  H   H1277     1.0  0.22439  0.78715  0.74964  1.0000
  H   H1278     1.0  0.05150  0.83175  0.76518  1.0000
  Fe  Fe177     1.0  0.99837  0.72268  0.57032  1.0000
  H   H1279     1.0  0.02049  0.73149  0.74004  1.0000
  C   C837      1.0  0.18479  0.49218  0.92390  1.0000
  C   C838      1.0  0.16149  0.69507  0.83112  1.0000
  C   C839      1.0  0.01393  0.84260  0.78531  1.0000
  H   H1280     1.0  0.20183  0.83319  0.70366  1.0000
  H   H1281     1.0  0.02453  0.74160  0.76145  1.0000
  H   H1282     1.0  0.19336  0.85605  0.87457  1.0000
  C   C840      1.0  0.10543  0.75254  0.97286  1.0000
  H   H1283     1.0  0.17885  0.64493  0.82596  1.0000
  H   H1284     1.0  0.16567  0.86450  0.85742  1.0000
  H   H1285     1.0  0.17013  0.80031  0.90236  1.0000
  N   N80       1.0  0.15647  0.72601  0.87714  1.0000
  C   C841      1.0  0.14767  0.72722  0.89327  1.0000
  C   C842      1.0  0.17294  0.71788  0.87749  1.0000
  C   C843      1.0  0.15599  0.74197  0.86707  1.0000
  C   C844      1.0  0.14931  0.71698  0.87078  1.0000
  H   H1286     1.0  0.13537  0.73379  0.89329  1.0000
  H   H1287     1.0  0.15301  0.73374  0.89845  1.0000
  H   H1288     1.0  0.14725  0.71542  0.90113  1.0000
  H   H1289     1.0  0.17996  0.71712  0.86548  1.0000
  H   H1290     1.0  0.17867  0.72416  0.88249  1.0000
  H   H1291     1.0  0.17381  0.70565  0.88465  1.0000
  H   H1292     1.0  0.16301  0.74162  0.85492  1.0000
  H   H1293     1.0  0.16082  0.74928  0.87184  1.0000
  H   H1294     1.0  0.14371  0.74834  0.86633  1.0000
  H   H1295     1.0  0.15546  0.71627  0.85845  1.0000
  H   H1296     1.0  0.13669  0.72241  0.87092  1.0000
  H   H1297     1.0  0.14990  0.70473  0.87786  1.0000
  C   C845      1.0  0.05958  0.70940  0.52714  1.0000
  H   H1298     1.0  0.05854  0.70518  0.54005  1.0000
  H   H1299     1.0  0.99787  0.88202  0.70509  1.0000
  H   H1300     1.0  0.06723  0.71812  0.52298  1.0000
  N   N81       1.0  0.05778  0.66838  0.66015  1.0000
  C   C846      1.0  0.05210  0.68365  0.66496  1.0000
  C   C847      1.0  0.06588  0.65671  0.67194  1.0000
  C   C848      1.0  0.06890  0.67026  0.64470  1.0000
  C   C849      1.0  0.04426  0.66288  0.65905  1.0000
  H   H1301     1.0  0.06192  0.68775  0.66669  1.0000
  H   H1302     1.0  0.04315  0.68281  0.67624  1.0000
  H   H1303     1.0  0.04653  0.69294  0.65600  1.0000
  H   H1304     1.0  0.05774  0.65485  0.68368  1.0000
  H   H1305     1.0  0.07051  0.64511  0.66858  1.0000
  H   H1306     1.0  0.07601  0.66053  0.67331  1.0000
  H   H1307     1.0  0.07345  0.65896  0.64071  1.0000
  H   H1308     1.0  0.07922  0.67439  0.64523  1.0000
  H   H1309     1.0  0.06320  0.67901  0.63549  1.0000
  H   H1310     1.0  0.04809  0.65123  0.65573  1.0000
  H   H1311     1.0  0.03791  0.67130  0.65016  1.0000
  H   H1312     1.0  0.03561  0.66146  0.67055  1.0000
  C   C850      1.0  0.11067  0.82222  0.96896  1.0000
  S   S355      1.0  0.14829  0.69494  0.82009  1.0000
  S   S356      1.0  0.17522  0.83787  0.93240  1.0000
  C   C851      1.0  0.02885  0.81659  0.78266  1.0000
  H   H1313     1.0  0.08746  0.91792  0.81594  1.0000
  H   H1314     1.0  0.18673  0.86723  0.83372  1.0000
  C   C852      1.0  0.12429  0.75495  0.69436  1.0000
  H   H1315     1.0  0.17526  0.65128  0.85831  1.0000
  H   H1316     1.0  0.17989  0.79369  0.97927  1.0000
  H   H1317     1.0  0.10491  0.79192  0.68063  1.0000
  C   C853      1.0  0.18188  0.63969  0.85567  1.0000
  H   H1318     1.0  0.17971  0.74568  0.93866  1.0000
  H   H1319     1.0  0.08267  0.94053  0.78471  1.0000
  H   H1320     1.0  0.17687  0.54653  0.85660  1.0000
  S   S357      1.0  0.99704  0.59780  0.62076  1.0000
  C   C854      1.0  0.20562  0.64952  0.84341  1.0000
  H   H1321     1.0  0.02453  0.72899  0.92190  1.0000
  H   H1322     1.0  0.00515  0.89965  0.69759  1.0000
  H   H1323     1.0  0.24041  0.63646  0.92878  1.0000
  H   H1324     1.0  0.02993  0.73825  0.71997  1.0000
  N   N82       1.0  0.14976  0.59159  0.95254  1.0000
  H   H1325     1.0  0.22957  0.88846  0.61508  1.0000
  H   H1326     1.0  0.03836  0.84342  0.79622  1.0000
  H   H1327     1.0  0.03035  0.82659  0.80740  1.0000
  C   C855      1.0  0.05562  0.56339  0.64226  1.0000
  C   C856      1.0  0.04892  0.56249  0.67012  1.0000
  H   H1328     1.0  0.18668  0.63255  0.86611  1.0000
  H   H1329     1.0  0.02795  0.74214  0.90298  1.0000
  Fe  Fe178     1.0  0.00458  0.85440  0.73177  1.0000
  N   N83       1.0  0.21409  0.79804  0.76949  1.0000
  C   C857      1.0  0.03951  0.83931  0.76768  1.0000
  H   H1330     1.0  0.01487  0.51688  0.60436  1.0000
  H   H1331     1.0  0.12090  0.82485  0.95929  1.0000
  H   H1332     1.0  0.99827  0.90554  0.72352  1.0000
  C   C858      1.0  0.99502  0.80158  0.78806  1.0000
  H   H1333     1.0  0.10109  0.80538  0.95511  1.0000
  C   C859      1.0  0.23288  0.89943  0.60720  1.0000
  C   C860      1.0  0.17218  0.70504  0.82486  1.0000
  H   H1334     1.0  0.22903  0.80559  0.77939  1.0000
  H   H1335     1.0  0.04440  0.53716  0.65090  1.0000
  Fe  Fe179     1.0  0.21209  0.71006  0.85393  1.0000
  H   H1336     1.0  0.00882  0.76368  0.91492  1.0000
  H   H1337     1.0  0.03554  0.75331  0.94287  1.0000
  H   H1338     1.0  0.16135  0.88500  0.85788  1.0000
  H   H1339     1.0  0.15694  0.98079  0.76681  1.0000
  C   C861      1.0  0.18461  0.69351  0.84717  1.0000
  H   H1340     1.0  0.01191  0.48602  0.49990  1.0000
  S   S358      1.0  0.18634  0.75228  0.88258  1.0000
  C   C862      1.0  0.99399  0.53122  0.61577  1.0000
  S   S359      1.0  0.21060  0.56131  0.89894  1.0000
  H   H1341     1.0  0.02911  0.73551  0.94535  1.0000
  C   C863      1.0  0.01353  0.75862  0.92580  1.0000
  H   H1342     1.0  0.21533  0.65101  0.83281  1.0000
  C   C864      1.0  0.16908  0.87334  0.86147  1.0000
  H   H1343     1.0  0.07822  0.54790  0.65817  1.0000
  H   H1344     1.0  0.23587  0.62489  0.97192  1.0000
  H   H1345     1.0  0.05223  0.75591  0.90844  1.0000
  H   H1346     1.0  0.12764  0.58701  0.95261  1.0000
  C   C865      1.0  0.21008  0.90423  0.80575  1.0000
  H   H1347     1.0  0.11439  0.76517  0.94959  1.0000
  H   H1348     1.0  0.08084  0.96041  0.81603  1.0000
  H   H1349     1.0  0.17675  0.97652  0.83957  1.0000
  H   H1350     1.0  0.16683  0.78093  0.88949  1.0000
  S   S360      1.0  0.19189  0.54663  0.97083  1.0000
  C   C866      1.0  0.20002  0.80988  0.77467  1.0000
  C   C867      1.0  0.03174  0.73759  0.91440  1.0000
  H   H1351     1.0  0.99940  0.66502  0.62486  1.0000
  C   C868      1.0  0.03735  0.83158  0.79578  1.0000
  H   H1352     1.0  0.04857  0.73748  0.93461  1.0000
  C   C869      1.0  0.18959  0.88641  0.85983  1.0000
  C   C870      1.0  0.24016  0.77577  0.82056  1.0000
  N   N84       1.0  0.10616  0.87794  0.67344  1.0000
  C   C871      1.0  0.12214  0.87871  0.66376  1.0000
  C   C872      1.0  0.09625  0.89400  0.67251  1.0000
  C   C873      1.0  0.10710  0.87065  0.68999  1.0000
  C   C874      1.0  0.09922  0.86836  0.66752  1.0000
  H   H1353     1.0  0.12985  0.86679  0.66386  1.0000
  H   H1354     1.0  0.12794  0.88539  0.66818  1.0000
  H   H1355     1.0  0.12190  0.88457  0.65129  1.0000
  H   H1356     1.0  0.10132  0.90152  0.67675  1.0000
  H   H1357     1.0  0.09522  0.89988  0.66021  1.0000
  H   H1358     1.0  0.08416  0.89394  0.67986  1.0000
  H   H1359     1.0  0.11227  0.87758  0.69484  1.0000
  H   H1360     1.0  0.11460  0.85855  0.69112  1.0000
  H   H1361     1.0  0.09526  0.86982  0.69762  1.0000
  H   H1362     1.0  0.10651  0.85618  0.66811  1.0000
  H   H1363     1.0  0.09845  0.87344  0.65502  1.0000
  H   H1364     1.0  0.08715  0.86747  0.67454  1.0000
  H   H1365     1.0  0.11776  0.65442  0.74808  1.0000
  H   H1366     1.0  0.10288  0.67683  0.71220  1.0000
  H   H1367     1.0  0.14681  0.77079  0.67762  1.0000
  C   C875      1.0  0.17797  0.59570  0.85961  1.0000
  C   C876      1.0  0.20908  0.50128  0.91134  1.0000
  H   H1368     1.0  0.16881  0.84847  0.96409  1.0000
  H   H1369     1.0  0.10133  0.94586  0.77952  1.0000
  H   H1370     1.0  0.07581  0.71045  0.49726  1.0000
  H   H1371     1.0  0.03566  0.76692  0.90025  1.0000
  H   H1372     1.0  0.11348  0.76128  0.66837  1.0000
  H   H1373     1.0  0.08961  0.96594  0.79544  1.0000
  H   H1374     1.0  0.04943  0.82402  0.79434  1.0000
  S   S361      1.0  0.16630  0.87710  0.90430  1.0000
  H   H1375     1.0  0.19241  0.71147  0.82764  1.0000
  H   H1376     1.0  0.19968  0.66146  0.84554  1.0000
  H   H1377     1.0  0.16636  0.87017  0.87455  1.0000
  H   H1378     1.0  0.11469  0.74885  0.69570  1.0000
  H   H1379     1.0  0.21424  0.75554  0.89038  1.0000
  C   C877      1.0  0.19926  0.84583  0.73647  1.0000
  H   H1380     1.0  0.23895  0.69329  0.89650  1.0000
  H   H1381     1.0  0.18219  0.89806  0.85558  1.0000
  H   H1382     1.0  0.16178  0.54549  0.87436  1.0000
  H   H1383     1.0  0.99422  0.68329  0.58439  1.0000
  H   H1384     1.0  0.17556  0.51805  0.88517  1.0000
  C   C878      1.0  0.08149  0.93047  0.81573  1.0000
  H   H1385     1.0  0.19996  0.81196  0.78624  1.0000
  H   H1386     1.0  0.20503  0.54058  0.85817  1.0000
  C   C879      1.0  0.22069  0.89593  0.64864  1.0000
  H   H1387     1.0  0.14396  0.65322  0.70853  1.0000
  C   C880      1.0  0.17834  0.58874  0.87546  1.0000
  H   H1388     1.0  0.21338  0.90751  0.64927  1.0000
  H   H1389     1.0  0.21667  0.61464  0.96493  1.0000
  H   H1390     1.0  0.19601  0.51427  0.88526  1.0000
  H   H1391     1.0  0.00520  0.51452  0.48664  1.0000
  C   C881      1.0  0.19023  0.76700  0.88915  1.0000
  H   H1392     1.0  0.05848  0.80565  0.58224  1.0000
  H   H1393     1.0  0.99818  0.68178  0.78005  1.0000
  H   H1394     1.0  0.02153  0.81120  0.79387  1.0000
  H   H1395     1.0  0.12076  0.64259  0.71106  1.0000
  H   H1396     1.0  0.11795  0.67470  0.73913  1.0000
  H   H1397     1.0  0.06454  0.57045  0.64036  1.0000
  H   H1398     1.0  0.07113  0.96004  0.80136  1.0000
  H   H1399     1.0  0.08049  0.68304  0.53550  1.0000
  H   H1400     1.0  0.20098  0.88551  0.65193  1.0000
  H   H1401     1.0  0.15314  0.67790  0.85120  1.0000
  S   S362      1.0  0.17440  0.84850  0.72354  1.0000
  C   C882      1.0  0.21483  0.57703  0.97534  1.0000
  C   C883      1.0  0.99990  0.66621  0.61219  1.0000
  H   H1402     1.0  0.03162  0.78816  0.61865  1.0000
  H   H1403     1.0  0.05617  0.81745  0.61099  1.0000
  C   C884      1.0  0.10647  0.93819  0.80873  1.0000
  H   H1404     1.0  0.18949  0.53479  0.90105  1.0000
  H   H1405     1.0  0.17915  0.55429  0.89386  1.0000
  C   C885      1.0  0.11568  0.64626  0.72250  1.0000
  C   C886      1.0  0.22313  0.89159  0.80500  1.0000
  H   H1406     1.0  0.07912  0.93234  0.82788  1.0000
  C   C887      1.0  0.18057  0.54166  0.89403  1.0000
  H   H1407     1.0  0.11889  0.63603  0.73205  1.0000
  H   H1408     1.0  0.14289  0.66651  0.72047  1.0000
  Fe  Fe180     1.0  0.06761  0.94008  0.76106  1.0000
  C   C888      1.0  0.10563  0.75869  0.95685  1.0000
  H   H1409     1.0  0.15640  0.92785  0.86861  1.0000
  S   S363      1.0  0.22388  0.54319  0.93125  1.0000
  H   H1410     1.0  0.02307  0.69804  0.49968  1.0000
  C   C889      1.0  0.05505  0.68528  0.52477  1.0000
  C   C890      1.0  0.08147  0.68775  0.52260  1.0000
  C   C891      1.0  0.24085  0.62865  0.95913  1.0000
  H   H1411     1.0  0.03764  0.57119  0.66914  1.0000
  H   H1412     1.0  0.10603  0.78236  0.70054  1.0000
  C   C892      1.0  0.13841  0.65636  0.72017  1.0000
  H   H1413     1.0  0.14261  0.64623  0.72935  1.0000
  H   H1414     1.0  0.18228  0.88806  0.83268  1.0000
  H   H1415     1.0  0.11305  0.92583  0.80879  1.0000
  H   H1416     1.0  0.13946  0.76920  0.95233  1.0000
  S   S364      1.0  0.02560  0.74506  0.51530  1.0000
  C   C893      1.0  0.08232  0.74253  0.97542  1.0000
  C   C894      1.0  0.18935  0.87655  0.83778  1.0000
  H   H1417     1.0  0.17108  0.59990  0.94756  1.0000
  H   H1418     1.0  0.04416  0.73098  0.91181  1.0000
  C   C895      1.0  0.06869  0.54169  0.65969  1.0000
  Fe  Fe181     1.0  0.18917  0.85482  0.66480  1.0000
  C   C896      1.0  0.17794  0.77974  0.89237  1.0000
  C   C897      1.0  0.02546  0.73423  0.50181  1.0000
  H   H1419     1.0  0.20209  0.88733  0.85483  1.0000
  C   C898      1.0  0.04133  0.54426  0.66002  1.0000
  H   H1420     1.0  0.18896  0.80611  0.77588  1.0000
  H   H1421     1.0  0.00514  0.82911  0.69235  1.0000
  S   S365      1.0  0.23467  0.75197  0.81057  1.0000
  H   H1422     1.0  0.04100  0.85111  0.76763  1.0000
  N   N85       1.0  0.02992  0.83251  0.78285  1.0000
  N   N86       1.0  0.18592  0.87369  0.85513  1.0000
  C   C899      1.0  0.21376  0.79574  0.75407  1.0000
  N   N87       1.0  0.18544  0.53867  0.87798  1.0000
  C   C900      1.0  0.17355  0.54837  0.86884  1.0000
  H   H1423     1.0  0.19315  0.84854  0.85826  1.0000
  H   H1424     1.0  0.20034  0.55542  0.86942  1.0000
  S   S366      1.0  0.18010  0.83484  0.68318  1.0000
  C   C901      1.0  0.00175  0.77594  0.80503  1.0000
  H   H1425     1.0  0.05368  0.68044  0.53767  1.0000
  Fe  Fe182     1.0  0.15929  0.85405  0.91673  1.0000
  C   C902      1.0  0.18678  0.52183  0.87884  1.0000
  H   H1426     1.0  0.19075  0.85178  0.74512  1.0000
  C   C903      1.0  0.23935  0.86612  0.64646  1.0000
  H   H1427     1.0  0.00816  0.84403  0.77549  1.0000
  Fe  Fe183     1.0  0.19946  0.55193  0.94443  1.0000
  Fe  Fe184     1.0  0.18046  0.93035  0.82039  1.0000
  H   H1428     1.0  0.21008  0.53577  0.87699  1.0000
  C   C904      1.0  0.15996  0.90583  0.88517  1.0000
  H   H1429     1.0  0.19005  0.51917  0.86694  1.0000
  H   H1430     1.0  0.02982  0.55242  0.65874  1.0000
  Fe  Fe185     1.0  0.99965  0.82395  0.72796  1.0000
  C   C905      1.0  0.16046  0.60200  0.94271  1.0000
  C   C906      1.0  0.19439  0.84293  0.72436  1.0000
  H   H1431     1.0  0.11093  0.82723  0.97878  1.0000
  S   S367      1.0  0.18718  0.54461  0.93020  1.0000
  C   C907      1.0  0.22621  0.83318  0.72633  1.0000
  H   H1432     1.0  0.20846  0.85829  0.85692  1.0000
  C   C908      1.0  0.08284  0.95762  0.80434  1.0000
  H   H1433     1.0  0.04731  0.55507  0.68222  1.0000
  H   H1434     1.0  0.04064  0.80856  0.78088  1.0000
  H   H1435     1.0  0.13402  0.78948  0.67286  1.0000
  H   H1436     1.0  0.13484  0.78072  0.69299  1.0000
  C   C909      1.0  0.23711  0.89368  0.64575  1.0000
  C   C910      1.0  0.13503  0.77811  0.68164  1.0000
  H   H1437     1.0  0.20805  0.61819  0.84855  1.0000
  C   C911      1.0  0.22892  0.88533  0.79141  1.0000
  H   H1438     1.0  0.19501  0.61944  0.83630  1.0000
  C   C912      1.0  0.20299  0.62569  0.83836  1.0000
  C   C913      1.0  0.22185  0.89202  0.77849  1.0000
  Fe  Fe186     1.0  0.17407  0.81943  0.92086  1.0000
  H   H1439     1.0  0.13567  0.74702  0.69033  1.0000
  C   C914      1.0  0.16174  0.68510  0.84592  1.0000
  H   H1440     1.0  0.22248  0.58455  0.96766  1.0000
  N   N88       1.0  0.12222  0.77026  0.68311  1.0000
  H   H1441     1.0  0.17318  0.63381  0.85437  1.0000
  C   C915      1.0  0.09391  0.93819  0.78848  1.0000
  H   H1442     1.0  0.22874  0.88663  0.81491  1.0000
  C   C916      1.0  0.10685  0.78025  0.68879  1.0000
  H   H1443     1.0  0.12411  0.75641  0.70620  1.0000
  H   H1444     1.0  0.13424  0.76071  0.66257  1.0000
  Fe  Fe187     1.0  0.18725  0.56859  0.91459  1.0000
  H   H1445     1.0  0.17368  0.67628  0.86517  1.0000
  H   H1446     1.0  0.18883  0.58064  0.87848  1.0000
  H   H1447     1.0  0.05783  0.56941  0.66878  1.0000
  H   H1448     1.0  0.19659  0.65209  0.81666  1.0000
  H   H1449     1.0  0.21103  0.64294  0.85363  1.0000
  H   H1450     1.0  0.17080  0.90728  0.88689  1.0000
  C   C917      1.0  0.12263  0.76767  0.66760  1.0000
  H   H1451     1.0  0.09691  0.77478  0.68976  1.0000
  N   N89       1.0  0.19449  0.64141  0.84130  1.0000
  H   H1452     1.0  0.18105  0.66266  0.82946  1.0000
  C   C918      1.0  0.17983  0.79068  0.89964  1.0000
  Fe  Fe188     1.0  0.21142  0.53775  0.91571  1.0000
  S   S368      1.0  0.19725  0.57663  0.93025  1.0000
  C   C919      1.0  0.19410  0.78885  0.90375  1.0000
  S   S369      1.0  0.22018  0.51594  0.90565  1.0000
  H   H1453     1.0  0.19262  0.92011  0.79352  1.0000
  C   C920      1.0  0.14456  0.59458  0.96862  1.0000
  H   H1454     1.0  0.13554  0.76938  0.92626  1.0000
  H   H1455     1.0  0.00615  0.83747  0.79631  1.0000
  C   C921      1.0  0.20548  0.83539  0.71310  1.0000
  H   H1456     1.0  0.15310  0.73583  0.93176  1.0000
  C   C922      1.0  0.21362  0.88343  0.65026  1.0000
  H   H1457     1.0  0.17689  0.74762  0.91927  1.0000
  H   H1458     1.0  0.18754  0.88442  0.87285  1.0000
  S   S370      1.0  0.21420  0.85281  0.65035  1.0000
  S   S371      1.0  0.19608  0.80140  0.91440  1.0000
  C   C923      1.0  0.20472  0.76544  0.89273  1.0000
  S   S372      1.0  0.20036  0.69018  0.85633  1.0000
  Fe  Fe189     1.0  0.20668  0.73818  0.86805  1.0000
  S   S373      1.0  0.20205  0.73568  0.84587  1.0000
  H   H1459     1.0  0.21890  0.84370  0.74653  1.0000
  C   C924      1.0  0.20282  0.91056  0.79297  1.0000
  N   N90       1.0  0.15628  0.75713  0.93531  1.0000
  C   C925      1.0  0.15241  0.76559  0.94814  1.0000
  H   H1460     1.0  0.01418  0.85450  0.78619  1.0000
  N   N91       1.0  0.05364  0.55294  0.65805  1.0000
  S   S374      1.0  0.20271  0.91205  0.82269  1.0000
  C   C926      1.0  0.20884  0.90462  0.77929  1.0000
  H   H1461     1.0  0.01201  0.76843  0.93162  1.0000
  H   H1462     1.0  0.05910  0.55668  0.63277  1.0000
  C   C927      1.0  0.15057  0.74234  0.94126  1.0000
  H   H1463     1.0  0.15187  0.77877  0.91832  1.0000
  H   H1464     1.0  0.13763  0.74459  0.94607  1.0000
  H   H1465     1.0  0.15616  0.73447  0.95095  1.0000
  N   N92       1.0  0.03023  0.75045  0.92217  1.0000
  H   H1466     1.0  0.08666  0.96642  0.74861  1.0000
  C   C928      1.0  0.20663  0.77636  0.90007  1.0000
  C   C929      1.0  0.22131  0.83032  0.71422  1.0000
  C   C930      1.0  0.14859  0.76712  0.92244  1.0000
  C   C931      1.0  0.15813  0.57500  0.95325  1.0000
  H   H1467     1.0  0.22354  0.90540  0.60043  1.0000
  C   C932      1.0  0.11810  0.97655  0.86412  1.0000
  C   C933      1.0  0.16539  0.84661  0.97677  1.0000
  H   H1468     1.0  0.23893  0.87552  0.79088  1.0000
  S   S375      1.0  0.00313  0.74679  0.55968  1.0000
  H   H1469     1.0  0.23259  0.90723  0.61491  1.0000
  S   S376      1.0  0.99351  0.84902  0.71506  1.0000
  H   H1470     1.0  0.11112  0.78636  0.96392  1.0000
  C   C934      1.0  0.02836  0.74099  0.48564  1.0000
  S   S377      1.0  0.23086  0.74270  0.85689  1.0000
  H   H1471     1.0  0.19968  0.51116  0.97686  1.0000
  C   C935      1.0  0.99477  0.79205  0.80315  1.0000
  H   H1472     1.0  0.15350  0.97803  0.78766  1.0000
  H   H1473     1.0  0.00224  0.80215  0.76320  1.0000
  Fe  Fe190     1.0  0.23908  0.71642  0.86369  1.0000
  H   H1474     1.0  0.16876  0.57226  0.95825  1.0000
  H   H1475     1.0  0.00450  0.65425  0.60974  1.0000
  C   C936      1.0  0.22839  0.80363  0.76800  1.0000
  H   H1476     1.0  0.21350  0.80694  0.74503  1.0000
  H   H1477     1.0  0.13828  0.60701  0.96857  1.0000
  H   H1478     1.0  0.21540  0.63092  0.94826  1.0000
  C   C937      1.0  0.22203  0.61879  0.95229  1.0000
  H   H1479     1.0  0.99322  0.66937  0.80821  1.0000
  H   H1480     1.0  0.16209  0.57228  0.94134  1.0000
  H   H1481     1.0  0.13643  0.58694  0.97635  1.0000
  N   N93       1.0  0.11132  0.80513  0.97398  1.0000
  H   H1482     1.0  0.23930  0.79512  0.76396  1.0000
  S   S378      1.0  0.23770  0.58374  0.90687  1.0000
  S   S379      1.0  0.23837  0.83894  0.76885  1.0000
  H   H1483     1.0  0.22867  0.81492  0.75927  1.0000
  H   H1484     1.0  0.15053  0.56676  0.96071  1.0000
  H   H1485     1.0  0.15477  0.59215  0.97420  1.0000
  H   H1486     1.0  0.22977  0.82417  0.70567  1.0000
  H   H1487     1.0  0.22018  0.61109  0.94557  1.0000
  H   H1488     1.0  0.99379  0.56090  0.63234  1.0000
  H   H1489     1.0  0.13780  0.98406  0.83689  1.0000
  H   H1490     1.0  0.21846  0.51115  0.97970  1.0000
  H   H1491     1.0  0.04047  0.51163  0.47996  1.0000
  Fe  Fe191     1.0  0.42637  0.44433  0.05789  1.0000
  S   S380      1.0  0.44850  0.44040  0.03972  1.0000
  S   S381      1.0  0.41471  0.46833  0.06334  1.0000
  Fe  Fe192     1.0  0.42313  0.41021  0.06382  1.0000
  S   S382      1.0  0.44550  0.40360  0.04607  1.0000
  S   S383      1.0  0.40573  0.39485  0.07777  1.0000
  Fe  Fe193     1.0  0.45577  0.41757  0.05625  1.0000
  S   S384      1.0  0.48076  0.41560  0.05818  1.0000
  Fe  Fe194     1.0  0.43637  0.42698  0.03142  1.0000
  S   S385      1.0  0.43687  0.43287  0.00581  1.0000
  S   S386      1.0  0.43411  0.42243  0.07532  1.0000
  S   S387      1.0  0.41346  0.43262  0.04824  1.0000
  H   H1492     1.0  0.36159  0.99117  0.45576  1.0000
  H   H1493     1.0  0.44664  0.47057  0.04616  1.0000
  H   H1494     1.0  0.26632  0.10105  0.13104  1.0000
  N   N94       1.0  0.42300  0.35533  0.99983  1.0000
  H   H1495     1.0  0.42422  0.33491  0.99146  1.0000
  H   H1496     1.0  0.40111  0.36587  0.99251  1.0000
  C   C938      1.0  0.26751  0.07557  0.34543  1.0000
  Fe  Fe195     1.0  0.24616  0.10612  0.21678  1.0000
  C   C939      1.0  0.40428  0.40817  0.01018  1.0000
  C   C940      1.0  0.28266  0.39374  0.05951  1.0000
  S   S388      1.0  0.28369  0.20385  0.12075  1.0000
  H   H1497     1.0  0.46001  0.42738  0.08564  1.0000
  H   H1498     1.0  0.27777  0.16487  0.19589  1.0000
  S   S389      1.0  0.24166  0.23267  0.11761  1.0000
  H   H1499     1.0  0.29374  0.31472  0.01375  1.0000
  S   S390      1.0  0.26951  0.23279  0.08528  1.0000
  H   H1500     1.0  0.27819  0.07988  0.31429  1.0000
  H   H1501     1.0  0.31309  0.16570  0.18714  1.0000
  C   C941      1.0  0.36030  0.99457  0.24472  1.0000
  Fe  Fe196     1.0  0.35473  0.35572  0.04633  1.0000
  S   S391      1.0  0.34932  0.33357  0.04436  1.0000
  S   S392      1.0  0.37987  0.35863  0.04259  1.0000
  Fe  Fe197     1.0  0.32167  0.37493  0.04279  1.0000
  S   S393      1.0  0.31359  0.35461  0.04037  1.0000
  S   S394      1.0  0.30908  0.40035  0.03742  1.0000
  Fe  Fe198     1.0  0.32571  0.34079  0.06004  1.0000
  S   S395      1.0  0.31337  0.32368  0.07981  1.0000
  Fe  Fe199     1.0  0.33752  0.34882  0.02500  1.0000
  H   H1502     1.0  0.38975  0.99374  0.22767  1.0000
  S   S396      1.0  0.33205  0.36185  0.06383  1.0000
  S   S397      1.0  0.34458  0.37022  0.02567  1.0000
  Fe  Fe200     1.0  0.31072  0.04000  0.42098  1.0000
  S   S398      1.0  0.30078  0.02202  0.41626  1.0000
  S   S399      1.0  0.30967  0.04066  0.44610  1.0000
  Fe  Fe201     1.0  0.32217  0.05300  0.38640  1.0000
  S   S400      1.0  0.31389  0.03600  0.37856  1.0000
  S   S401      1.0  0.33386  0.07218  0.37034  1.0000
  Fe  Fe202     1.0  0.29183  0.04117  0.39690  1.0000
  C   C942      1.0  0.33304  0.23052  0.09969  1.0000
  C   C943      1.0  0.24796  0.07286  0.13138  1.0000
  S   S402      1.0  0.29942  0.05973  0.40343  1.0000
  S   S403      1.0  0.33390  0.03474  0.40435  1.0000
  Fe  Fe203     1.0  0.39605  0.02911  0.26911  1.0000
  S   S404      1.0  0.38194  0.01411  0.26538  1.0000
  S   S405      1.0  0.42203  0.02724  0.25773  1.0000
  Fe  Fe204     1.0  0.36766  0.04655  0.28918  1.0000
  S   S406      1.0  0.35100  0.03284  0.28782  1.0000
  S   S407      1.0  0.36209  0.06825  0.29895  1.0000
  Fe  Fe205     1.0  0.37109  0.01202  0.29098  1.0000
  Fe  Fe206     1.0  0.36282  0.03591  0.26219  1.0000
  S   S408      1.0  0.34892  0.03855  0.24395  1.0000
  S   S409      1.0  0.38658  0.02538  0.29513  1.0000
  S   S410      1.0  0.37807  0.05121  0.26318  1.0000
  S   S411      1.0  0.47003  0.03552  0.29284  1.0000
  H   H1503     1.0  0.31136  0.10417  0.40416  1.0000
  C   C944      1.0  0.27872  0.41736  0.03925  1.0000
  H   H1504     1.0  0.46725  0.45529  0.10474  1.0000
  C   C945      1.0  0.33821  0.03904  0.47443  1.0000
  C   C946      1.0  0.30494  0.29036  0.99934  1.0000
  H   H1505     1.0  0.39730  0.05536  0.28820  1.0000
  Fe  Fe207     1.0  0.26108  0.13041  0.19010  1.0000
  H   H1506     1.0  0.25134  0.09659  0.24727  1.0000
  H   H1507     1.0  0.24517  0.07842  0.19761  1.0000
  Fe  Fe208     1.0  0.28134  0.10477  0.21122  1.0000
  S   S412      1.0  0.26760  0.08662  0.21400  1.0000
  S   S413      1.0  0.30042  0.10250  0.22415  1.0000
  Fe  Fe209     1.0  0.26844  0.09611  0.18817  1.0000
  S   S414      1.0  0.27240  0.08024  0.17165  1.0000
  C   C947      1.0  0.44093  0.48130  0.05021  1.0000
  H   H1508     1.0  0.35121  0.07895  0.39556  1.0000
  S   S415      1.0  0.28393  0.11297  0.18491  1.0000
  S   S416      1.0  0.25962  0.12362  0.21617  1.0000
  H   H1509     1.0  0.26292  0.09644  0.30894  1.0000
  S   S417      1.0  0.28658  0.27110  0.06751  1.0000
  H   H1510     1.0  0.34485  0.10359  0.40533  1.0000
  C   C948      1.0  0.42259  0.42557  0.00214  1.0000
  C   C949      1.0  0.26214  0.16923  0.16347  1.0000
  C   C950      1.0  0.27637  0.16401  0.15345  1.0000
  C   C951      1.0  0.28297  0.17474  0.14045  1.0000
  C   C952      1.0  0.27530  0.19066  0.13727  1.0000
  C   C953      1.0  0.26104  0.19581  0.14723  1.0000
  H   H1511     1.0  0.25112  0.16999  0.09661  1.0000
  H   H1512     1.0  0.28226  0.15174  0.15573  1.0000
  H   H1513     1.0  0.42847  0.06093  0.26626  1.0000
  N   N95       1.0  0.33041  0.08651  0.41249  1.0000
  H   H1514     1.0  0.27746  0.07282  0.11453  1.0000
  S   S418      1.0  0.34346  0.34240  0.00153  1.0000
  H   H1515     1.0  0.24498  0.44814  0.10040  1.0000
  H   H1516     1.0  0.31530  0.07033  0.42488  1.0000
  H   H1517     1.0  0.30993  0.08838  0.43147  1.0000
  C   C954      1.0  0.32111  0.09451  0.40033  1.0000
  C   C955      1.0  0.42878  0.34588  0.98763  1.0000
  C   C956      1.0  0.40326  0.06340  0.29058  1.0000
  H   H1518     1.0  0.24530  0.04395  0.37430  1.0000
  C   C957      1.0  0.48534  0.99352  0.28076  1.0000
  H   H1519     1.0  0.31372  0.28327  0.00649  1.0000
  H   H1520     1.0  0.44190  0.34252  0.98471  1.0000
  C   C958      1.0  0.25816  0.06870  0.17739  1.0000
  C   C959      1.0  0.25895  0.05806  0.16842  1.0000
  H   H1521     1.0  0.34615  0.00669  0.46257  1.0000
  H   H1522     1.0  0.24215  0.10758  0.32976  1.0000
  C   C960      1.0  0.30121  0.36015  0.98907  1.0000
  H   H1523     1.0  0.26878  0.05630  0.15862  1.0000
  H   H1524     1.0  0.24365  0.10066  0.35004  1.0000
  H   H1525     1.0  0.41400  0.05614  0.29477  1.0000
  H   H1526     1.0  0.29301  0.29023  0.00708  1.0000
  C   C961      1.0  0.33515  0.05626  0.23892  1.0000
  C   C962      1.0  0.33407  0.06965  0.24431  1.0000
  C   C963      1.0  0.32332  0.08368  0.23974  1.0000
  C   C964      1.0  0.31341  0.08442  0.22993  1.0000
  C   C965      1.0  0.31433  0.07098  0.22471  1.0000
  C   C966      1.0  0.32522  0.05699  0.22912  1.0000
  H   H1527     1.0  0.34165  0.06924  0.25183  1.0000
  H   H1528     1.0  0.32269  0.09400  0.24384  1.0000
  H   H1529     1.0  0.30680  0.07140  0.21712  1.0000
  H   H1530     1.0  0.32598  0.04671  0.22488  1.0000
  C   C967      1.0  0.43573  0.02813  0.26790  1.0000
  C   C968      1.0  0.43128  0.02867  0.28382  1.0000
  C   C969      1.0  0.44201  0.03078  0.29129  1.0000
  C   C970      1.0  0.45735  0.03212  0.28301  1.0000
  C   C971      1.0  0.46200  0.03104  0.26722  1.0000
  C   C972      1.0  0.45120  0.02908  0.25970  1.0000
  H   H1531     1.0  0.41952  0.02770  0.29032  1.0000
  H   H1532     1.0  0.43839  0.03144  0.30356  1.0000
  H   H1533     1.0  0.47379  0.03207  0.26071  1.0000
  H   H1534     1.0  0.45476  0.02861  0.24738  1.0000
  H   H1535     1.0  0.24283  0.07002  0.12292  1.0000
  C   C973      1.0  0.26254  0.42056  0.04608  1.0000
  H   H1536     1.0  0.25476  0.09646  0.27349  1.0000
  C   C974      1.0  0.34174  0.07026  0.35070  1.0000
  C   C975      1.0  0.34482  0.05589  0.34620  1.0000
  C   C976      1.0  0.35129  0.05495  0.33033  1.0000
  C   C977      1.0  0.35437  0.06843  0.31900  1.0000
  C   C978      1.0  0.35133  0.08268  0.32359  1.0000
  C   C979      1.0  0.34515  0.08356  0.33936  1.0000
  H   H1537     1.0  0.34254  0.04548  0.35497  1.0000
  H   H1538     1.0  0.35406  0.04387  0.32684  1.0000
  H   H1539     1.0  0.35373  0.09311  0.31490  1.0000
  Fe  Fe210     1.0  0.26983  0.25733  0.08626  1.0000
  C   C980      1.0  0.30516  0.30993  0.07582  1.0000
  C   C981      1.0  0.30949  0.30599  0.06109  1.0000
  C   C982      1.0  0.30347  0.29430  0.05863  1.0000
  C   C983      1.0  0.29286  0.28662  0.07076  1.0000
  C   C984      1.0  0.28816  0.29089  0.08534  1.0000
  C   C985      1.0  0.29445  0.30233  0.08790  1.0000
  H   H1540     1.0  0.31774  0.31174  0.05171  1.0000
  H   H1541     1.0  0.30716  0.29111  0.04731  1.0000
  H   H1542     1.0  0.27986  0.28524  0.09475  1.0000
  H   H1543     1.0  0.29098  0.30537  0.09930  1.0000
  N   N96       1.0  0.33861  0.99134  0.45314  1.0000
  H   H1544     1.0  0.32789  0.22350  0.11122  1.0000
  H   H1545     1.0  0.42692  0.07840  0.28331  1.0000
  H   H1546     1.0  0.30722  0.32654  0.00121  1.0000
  H   H1547     1.0  0.37155  0.98476  0.21747  1.0000
  S   S419      1.0  0.27030  0.25090  0.11190  1.0000
  C   C986      1.0  0.35251  0.04084  0.46391  1.0000
  C   C987      1.0  0.35380  0.04204  0.44784  1.0000
  C   C988      1.0  0.34089  0.04161  0.44230  1.0000
  C   C989      1.0  0.32645  0.04029  0.45274  1.0000
  C   C990      1.0  0.32521  0.03889  0.46884  1.0000
  S   S420      1.0  0.25323  0.15654  0.18007  1.0000
  H   H1548     1.0  0.36486  0.04332  0.43965  1.0000
  H   H1549     1.0  0.34208  0.04252  0.42993  1.0000
  H   H1550     1.0  0.25951  0.19799  0.05080  1.0000
  C   C991      1.0  0.34338  0.07408  0.40664  1.0000
  H   H1551     1.0  0.36106  0.00457  0.23432  1.0000
  H   H1552     1.0  0.26938  0.11226  0.32338  1.0000
  H   H1553     1.0  0.36151  0.99869  0.25472  1.0000
  H   H1554     1.0  0.32663  0.07366  0.43656  1.0000
  S   S421      1.0  0.33666  0.99406  0.39623  1.0000
  H   H1555     1.0  0.25201  0.09225  0.14653  1.0000
  H   H1556     1.0  0.34079  0.23696  0.10189  1.0000
  S   S422      1.0  0.27032  0.04069  0.38905  1.0000
  H   H1557     1.0  0.41993  0.07700  0.25236  1.0000
  H   H1558     1.0  0.38567  0.07834  0.26919  1.0000
  H   H1559     1.0  0.31862  0.00789  0.46272  1.0000
  H   H1560     1.0  0.39873  0.39942  0.01894  1.0000
  H   H1561     1.0  0.28916  0.36475  0.99452  1.0000
  H   H1562     1.0  0.25509  0.20806  0.14501  1.0000
  H   H1563     1.0  0.47894  0.38256  0.07008  1.0000
  C   C992      1.0  0.39847  0.38489  0.06798  1.0000
  C   C993      1.0  0.40614  0.38270  0.05284  1.0000
  C   C994      1.0  0.40036  0.37447  0.04540  1.0000
  C   C995      1.0  0.38668  0.36861  0.05281  1.0000
  C   C996      1.0  0.37891  0.37086  0.06795  1.0000
  C   C997      1.0  0.38485  0.37890  0.07552  1.0000
  H   H1564     1.0  0.41669  0.38715  0.04697  1.0000
  H   H1565     1.0  0.40640  0.37292  0.03372  1.0000
  H   H1566     1.0  0.36850  0.36620  0.07392  1.0000
  H   H1567     1.0  0.37893  0.38043  0.08731  1.0000
  C   C998      1.0  0.33705  0.09800  0.41601  1.0000
  C   C999      1.0  0.25647  0.41055  0.05987  1.0000
  C   C1000     1.0  0.41463  0.41497  0.01387  1.0000
  C   C1001     1.0  0.40912  0.42335  0.98352  1.0000
  H   H1568     1.0  0.36402  0.37097  0.99264  1.0000
  H   H1569     1.0  0.34661  0.00112  0.28483  1.0000
  H   H1570     1.0  0.28958  0.98922  0.38291  1.0000
  H   H1571     1.0  0.41694  0.41154  0.02555  1.0000
  H   H1572     1.0  0.34287  0.09466  0.34274  1.0000
  C   C1002     1.0  0.42847  0.34609  0.01426  1.0000
  C   C1003     1.0  0.26657  0.39720  0.06662  1.0000
  H   H1573     1.0  0.30449  0.22582  0.10084  1.0000
  H   H1574     1.0  0.33669  0.02769  0.32839  1.0000
  H   H1575     1.0  0.24578  0.17844  0.13603  1.0000
  H   H1576     1.0  0.39478  0.09493  0.26126  1.0000
  H   H1577     1.0  0.26193  0.38944  0.07730  1.0000
  H   H1578     1.0  0.35308  0.99867  0.43040  1.0000
  H   H1579     1.0  0.30549  0.24616  0.11391  1.0000
  H   H1580     1.0  0.44138  0.45558  0.09965  1.0000
  C   C1004     1.0  0.32408  0.00685  0.32296  1.0000
  H   H1581     1.0  0.25484  0.43090  0.04083  1.0000
  C   C1005     1.0  0.41283  0.46781  0.01769  1.0000
  H   H1582     1.0  0.30610  0.28427  0.98982  1.0000
  H   H1583     1.0  0.38444  0.09108  0.28156  1.0000
  H   H1584     1.0  0.48498  0.45160  0.09000  1.0000
  H   H1585     1.0  0.40752  0.46195  0.01178  1.0000
  C   C1006     1.0  0.24760  0.20215  0.05692  1.0000
  H   H1586     1.0  0.25809  0.07782  0.31876  1.0000
  H   H1587     1.0  0.34597  0.01462  0.34376  1.0000
  H   H1588     1.0  0.33533  0.25760  0.07809  1.0000
  H   H1589     1.0  0.28539  0.09629  0.32824  1.0000
  C   C1007     1.0  0.27260  0.10125  0.33213  1.0000
  C   C1008     1.0  0.41573  0.08553  0.27987  1.0000
  H   H1590     1.0  0.34171  0.98752  0.35354  1.0000
  H   H1591     1.0  0.24360  0.18931  0.16803  1.0000
  H   H1592     1.0  0.26019  0.07205  0.39622  1.0000
  H   H1593     1.0  0.27094  0.08057  0.13982  1.0000
  H   H1594     1.0  0.30118  0.26058  0.09680  1.0000
  H   H1595     1.0  0.30105  0.24039  0.08348  1.0000
  C   C1009     1.0  0.24614  0.09704  0.33866  1.0000
  H   H1596     1.0  0.24782  0.04133  0.16519  1.0000
  C   C1010     1.0  0.34065  0.00118  0.43704  1.0000
  C   C1011     1.0  0.31021  0.99151  0.38886  1.0000
  C   C1012     1.0  0.26136  0.09032  0.13584  1.0000
  H   H1597     1.0  0.44229  0.36723  0.99079  1.0000
  H   H1598     1.0  0.48182  0.00265  0.28788  1.0000
  H   H1599     1.0  0.32859  0.09955  0.38906  1.0000
  H   H1600     1.0  0.30723  0.00403  0.35273  1.0000
  C   C1013     1.0  0.31066  0.13549  0.19568  1.0000
  C   C1014     1.0  0.24316  0.10051  0.27087  1.0000
  C   C1015     1.0  0.28880  0.40391  0.04591  1.0000
  H   H1601     1.0  0.34060  0.22210  0.09231  1.0000
  H   H1602     1.0  0.27395  0.09325  0.10488  1.0000
  H   H1603     1.0  0.31730  0.22388  0.08207  1.0000
  C   C1016     1.0  0.42528  0.48332  0.05860  1.0000
  H   H1604     1.0  0.28510  0.13468  0.21960  1.0000
  H   H1605     1.0  0.32759  0.10752  0.42054  1.0000
  H   H1606     1.0  0.28343  0.42524  0.02872  1.0000
  H   H1607     1.0  0.47017  0.46530  0.06174  1.0000
  H   H1608     1.0  0.40855  0.09129  0.28972  1.0000
  H   H1609     1.0  0.33321  0.99913  0.43017  1.0000
  H   H1610     1.0  0.28304  0.15383  0.22272  1.0000
  H   H1611     1.0  0.31868  0.25876  0.07053  1.0000
  H   H1612     1.0  0.25687  0.16528  0.12339  1.0000
  H   H1613     1.0  0.29211  0.15910  0.17916  1.0000
  H   H1614     1.0  0.34762  0.98692  0.47391  1.0000
  N   N97       1.0  0.32057  0.24148  0.09198  1.0000
  H   H1615     1.0  0.40040  0.34894  0.00854  1.0000
  C   C1017     1.0  0.34737  0.98857  0.28851  1.0000
  H   H1616     1.0  0.41117  0.06022  0.26075  1.0000
  H   H1617     1.0  0.25084  0.20418  0.09598  1.0000
  C   C1018     1.0  0.33694  0.98890  0.34306  1.0000
  H   H1618     1.0  0.31835  0.01917  0.31830  1.0000
  Fe  Fe211     1.0  0.26804  0.22693  0.11136  1.0000
  H   H1619     1.0  0.29892  0.17196  0.20372  1.0000
  C   C1019     1.0  0.25366  0.19454  0.10613  1.0000
  C   C1020     1.0  0.31093  0.25249  0.10212  1.0000
  H   H1620     1.0  0.28083  0.14561  0.19262  1.0000
  H   H1621     1.0  0.44155  0.34272  0.01202  1.0000
  H   H1622     1.0  0.26528  0.18700  0.10201  1.0000
  C   C1021     1.0  0.28698  0.15494  0.19182  1.0000
  H   H1623     1.0  0.30478  0.12600  0.19630  1.0000
  H   H1624     1.0  0.25514  0.20002  0.11501  1.0000
  H   H1625     1.0  0.29036  0.38335  0.06473  1.0000
  C   C1022     1.0  0.46605  0.43297  0.09106  1.0000
  H   H1626     1.0  0.39511  0.06859  0.30045  1.0000
  H   H1627     1.0  0.31963  0.13015  0.20301  1.0000
  H   H1628     1.0  0.31688  0.13894  0.18323  1.0000
  H   H1629     1.0  0.30436  0.00228  0.39286  1.0000
  N   N98       1.0  0.25520  0.08663  0.12410  1.0000
  H   H1630     1.0  0.31800  0.25992  0.10384  1.0000
  C   C1023     1.0  0.31641  0.01110  0.34941  1.0000
  H   H1631     1.0  0.31658  0.15744  0.20665  1.0000
  H   H1632     1.0  0.28325  0.31617  0.99061  1.0000
  N   N99       1.0  0.30732  0.30659  0.99279  1.0000
  H   H1633     1.0  0.42223  0.45867  0.02270  1.0000
  N   N100      1.0  0.35446  0.41014  0.03796  1.0000
  C   C1024     1.0  0.34733  0.39810  0.05037  1.0000
  C   C1025     1.0  0.36068  0.40446  0.02316  1.0000
  C   C1026     1.0  0.36746  0.41322  0.04278  1.0000
  C   C1027     1.0  0.34232  0.42477  0.03551  1.0000
  H   H1634     1.0  0.34328  0.40153  0.06195  1.0000
  H   H1635     1.0  0.35579  0.38660  0.05182  1.0000
  H   H1636     1.0  0.33698  0.39610  0.04748  1.0000
  H   H1637     1.0  0.36637  0.41315  0.01358  1.0000
  H   H1638     1.0  0.36971  0.39327  0.02464  1.0000
  H   H1639     1.0  0.35113  0.40224  0.01909  1.0000
  H   H1640     1.0  0.37322  0.42216  0.03363  1.0000
  H   H1641     1.0  0.37675  0.40239  0.04474  1.0000
  H   H1642     1.0  0.36329  0.41743  0.05396  1.0000
  H   H1643     1.0  0.33229  0.42274  0.03197  1.0000
  H   H1644     1.0  0.34722  0.43411  0.02613  1.0000
  H   H1645     1.0  0.33736  0.42936  0.04646  1.0000
  H   H1646     1.0  0.44125  0.46583  0.99800  1.0000
  H   H1647     1.0  0.31014  0.35731  0.00961  1.0000
  H   H1648     1.0  0.31544  0.99933  0.32541  1.0000
  H   H1649     1.0  0.33798  0.37631  0.98693  1.0000
  C   C1028     1.0  0.24321  0.10024  0.11848  1.0000
  H   H1650     1.0  0.41884  0.09492  0.26944  1.0000
  H   H1651     1.0  0.46113  0.43051  0.10396  1.0000
  C   C1029     1.0  0.36630  0.38137  0.98305  1.0000
  C   C1030     1.0  0.32782  0.25045  0.07666  1.0000
  H   H1652     1.0  0.27088  0.10452  0.34356  1.0000
  S   S423      1.0  0.36885  0.04221  0.47018  1.0000
  H   H1653     1.0  0.29400  0.17066  0.13277  1.0000
  C   C1031     1.0  0.49113  0.38340  0.06746  1.0000
  C   C1032     1.0  0.31044  0.23248  0.08950  1.0000
  C   C1033     1.0  0.29164  0.14393  0.21800  1.0000
  H   H1654     1.0  0.26550  0.07826  0.35718  1.0000
  H   H1655     1.0  0.42641  0.46936  0.98714  1.0000
  H   H1656     1.0  0.44516  0.47050  0.08219  1.0000
  H   H1657     1.0  0.33521  0.24255  0.06867  1.0000
  C   C1034     1.0  0.31308  0.35584  0.99766  1.0000
  Fe  Fe212     1.0  0.32321  0.01832  0.39831  1.0000
  H   H1658     1.0  0.33876  0.06521  0.40391  1.0000
  C   C1035     1.0  0.30731  0.16159  0.19963  1.0000
  H   H1659     1.0  0.30050  0.13878  0.22547  1.0000
  N   N101      1.0  0.29916  0.14899  0.20129  1.0000
  H   H1660     1.0  0.42437  0.35283  0.02373  1.0000
  H   H1661     1.0  0.44067  0.45285  0.08103  1.0000
  H   H1662     1.0  0.32003  0.98803  0.47372  1.0000
  H   H1663     1.0  0.42387  0.33512  0.01900  1.0000
  H   H1664     1.0  0.48272  0.99946  0.26897  1.0000
  H   H1665     1.0  0.25666  0.06223  0.13552  1.0000
  H   H1666     1.0  0.24807  0.11099  0.11319  1.0000
  C   C1036     1.0  0.34164  0.01515  0.33322  1.0000
  C   C1037     1.0  0.24712  0.04953  0.17217  1.0000
  H   H1667     1.0  0.35208  0.01102  0.32425  1.0000
  H   H1668     1.0  0.43636  0.47936  0.01969  1.0000
  H   H1669     1.0  0.33398  0.00306  0.31342  1.0000
  N   N102      1.0  0.26300  0.08991  0.33362  1.0000
  H   H1670     1.0  0.35075  0.06781  0.41544  1.0000
  H   H1671     1.0  0.31071  0.02361  0.34544  1.0000
  H   H1672     1.0  0.48358  0.44649  0.06470  1.0000
  H   H1673     1.0  0.39036  0.98735  0.24811  1.0000
  N   N103      1.0  0.40712  0.07565  0.27642  1.0000
  C   C1038     1.0  0.41710  0.06815  0.26338  1.0000
  C   C1039     1.0  0.39241  0.08549  0.27187  1.0000
  C   C1040     1.0  0.25458  0.18516  0.16031  1.0000
  C   C1041     1.0  0.32851  0.34909  0.99092  1.0000
  S   S424      1.0  0.36874  0.98786  0.30520  1.0000
  H   H1674     1.0  0.26050  0.06673  0.34686  1.0000
  N   N104      1.0  0.46405  0.45003  0.08426  1.0000
  H   H1675     1.0  0.47087  0.46989  0.08695  1.0000
  C   C1042     1.0  0.44710  0.45756  0.08692  1.0000
  H   H1676     1.0  0.33725  0.01387  0.43725  1.0000
  C   C1043     1.0  0.47215  0.45700  0.09184  1.0000
  C   C1044     1.0  0.32203  0.99541  0.46158  1.0000
  H   H1677     1.0  0.31575  0.08617  0.39762  1.0000
  H   H1678     1.0  0.42529  0.37721  0.00304  1.0000
  Fe  Fe213     1.0  0.24388  0.25719  0.11560  1.0000
  H   H1679     1.0  0.47869  0.42683  0.08893  1.0000
  C   C1045     1.0  0.40200  0.41200  0.99482  1.0000
  C   C1046     1.0  0.47095  0.45260  0.06719  1.0000
  C   C1047     1.0  0.32603  0.98490  0.38938  1.0000
  H   H1680     1.0  0.26393  0.08023  0.10163  1.0000
  C   C1048     1.0  0.25435  0.05657  0.38554  1.0000
  H   H1681     1.0  0.32983  0.98898  0.27637  1.0000
  C   C1049     1.0  0.32013  0.07944  0.42696  1.0000
  H   H1682     1.0  0.25383  0.21910  0.06553  1.0000
  H   H1683     1.0  0.32037  0.01020  0.36026  1.0000
  C   C1050     1.0  0.40560  0.35951  0.00330  1.0000
  H   H1684     1.0  0.34419  0.09227  0.42512  1.0000
  C   C1051     1.0  0.30561  0.31426  0.00578  1.0000
  H   H1685     1.0  0.40085  0.36740  0.01178  1.0000
  C   C1052     1.0  0.43145  0.47493  0.99359  1.0000
  C   C1053     1.0  0.34896  0.99416  0.46169  1.0000
  N   N105      1.0  0.32976  0.00550  0.33715  1.0000
  H   H1686     1.0  0.31412  0.03780  0.47704  1.0000
  C   C1054     1.0  0.24580  0.07033  0.19054  1.0000
  C   C1055     1.0  0.24369  0.05490  0.37775  1.0000
  C   C1056     1.0  0.26822  0.08309  0.11068  1.0000
  C   C1057     1.0  0.41953  0.43002  0.98709  1.0000
  H   H1687     1.0  0.24632  0.44363  0.07420  1.0000
  N   N106      1.0  0.41935  0.48094  0.00655  1.0000
  H   H1688     1.0  0.31381  0.99377  0.45535  1.0000
  H   H1689     1.0  0.46480  0.44789  0.06105  1.0000
  H   H1690     1.0  0.36228  0.39191  0.98833  1.0000
  C   C1058     1.0  0.26572  0.08579  0.31825  1.0000
  H   H1691     1.0  0.31453  0.30799  0.01303  1.0000
  C   C1059     1.0  0.25209  0.07070  0.39012  1.0000
  S   S425      1.0  0.24588  0.11416  0.19118  1.0000
  C   C1060     1.0  0.24519  0.17317  0.12655  1.0000
  H   H1692     1.0  0.28018  0.06988  0.34213  1.0000
  H   H1693     1.0  0.42492  0.37723  0.98342  1.0000
  C   C1061     1.0  0.42918  0.36986  0.99406  1.0000
  S   S426      1.0  0.39246  0.40113  0.98876  1.0000
  H   H1694     1.0  0.48246  0.05725  0.45928  1.0000
  C   C1062     1.0  0.24442  0.21404  0.06528  1.0000
  H   H1695     1.0  0.48920  0.05045  0.44120  1.0000
  S   S427      1.0  0.24354  0.26522  0.09002  1.0000
  Fe  Fe214     1.0  0.24317  0.24017  0.09159  1.0000
  H   H1696     1.0  0.40371  0.47179  0.02772  1.0000
  H   H1697     1.0  0.34823  0.99231  0.24761  1.0000
  H   H1698     1.0  0.45561  0.99594  0.29761  1.0000
  H   H1699     1.0  0.33258  0.29971  0.98937  1.0000
  H   H1700     1.0  0.45663  0.99291  0.27860  1.0000
  C   C1063     1.0  0.45979  0.98702  0.29019  1.0000
  C   C1064     1.0  0.29545  0.31553  0.98337  1.0000
  H   H1701     1.0  0.33642  0.39705  0.98070  1.0000
  C   C1065     1.0  0.32328  0.30620  0.98265  1.0000
  S   S428      1.0  0.34922  0.03860  0.51646  1.0000
  C   C1066     1.0  0.25807  0.30590  0.87308  1.0000
  C   C1067     1.0  0.25385  0.16338  0.91143  1.0000
  H   H1702     1.0  0.47267  0.43408  0.91732  1.0000
  C   C1068     1.0  0.32565  0.98813  0.52826  1.0000
  C   C1069     1.0  0.27707  0.17016  0.91383  1.0000
  H   H1703     1.0  0.30108  0.04374  0.57553  1.0000
  S   S429      1.0  0.47276  0.05046  0.49680  1.0000
  C   C1070     1.0  0.27547  0.15684  0.75172  1.0000
  Fe  Fe215     1.0  0.42478  0.41923  0.93450  1.0000
  S   S430      1.0  0.43088  0.40354  0.95677  1.0000
  H   H1704     1.0  0.25223  0.16598  0.94251  1.0000
  Fe  Fe216     1.0  0.40554  0.39735  0.93196  1.0000
  S   S431      1.0  0.41026  0.38007  0.95406  1.0000
  S   S432      1.0  0.38750  0.39662  0.91921  1.0000
  Fe  Fe217     1.0  0.40570  0.40136  0.96381  1.0000
  C   C1071     1.0  0.44504  0.00409  0.71391  1.0000
  Fe  Fe218     1.0  0.43522  0.38339  0.94534  1.0000
  S   S433      1.0  0.45457  0.36352  0.95378  1.0000
  S   S434      1.0  0.39909  0.41867  0.94252  1.0000
  S   S435      1.0  0.43101  0.39910  0.92212  1.0000
  S   S436      1.0  0.38473  0.04614  0.50521  1.0000
  C   C1072     1.0  0.36205  0.39671  0.95760  1.0000
  Fe  Fe219     1.0  0.32629  0.03151  0.65006  1.0000
  S   S437      1.0  0.30574  0.02485  0.66863  1.0000
  S   S438      1.0  0.34961  0.02138  0.65734  1.0000
  Fe  Fe220     1.0  0.30608  0.04778  0.62627  1.0000
  S   S439      1.0  0.28372  0.04244  0.64325  1.0000
  S   S440      1.0  0.30353  0.05987  0.60142  1.0000
  Fe  Fe221     1.0  0.29243  0.04935  0.66070  1.0000
  S   S441      1.0  0.27775  0.05947  0.68183  1.0000
  Fe  Fe222     1.0  0.29865  0.01850  0.64988  1.0000
  S   S442      1.0  0.28921  0.99640  0.65715  1.0000
  S   S443      1.0  0.31373  0.05671  0.64332  1.0000
  S   S444      1.0  0.32031  0.02318  0.63167  1.0000
  Fe  Fe223     1.0  0.38325  0.02356  0.73534  1.0000
  S   S445      1.0  0.39669  0.03536  0.71263  1.0000
  S   S446      1.0  0.38656  0.99733  0.74113  1.0000
  Fe  Fe224     1.0  0.36966  0.05378  0.74721  1.0000
  S   S447      1.0  0.38237  0.06826  0.72549  1.0000
  S   S448      1.0  0.35411  0.06106  0.76939  1.0000
  Fe  Fe225     1.0  0.37484  0.05438  0.71275  1.0000
  S   S449      1.0  0.36490  0.06594  0.69114  1.0000
  Fe  Fe226     1.0  0.40324  0.04788  0.72728  1.0000
  S   S450      1.0  0.42948  0.04675  0.72124  1.0000
  S   S451      1.0  0.36063  0.04143  0.73434  1.0000
  S   S452      1.0  0.39127  0.03461  0.75011  1.0000
  H   H1705     1.0  0.45395  0.99579  0.74978  1.0000
  H   H1706     1.0  0.38690  0.98621  0.69758  1.0000
  H   H1707     1.0  0.37329  0.06928  0.80473  1.0000
  H   H1708     1.0  0.32559  0.00779  0.59521  1.0000
  H   H1709     1.0  0.32541  0.31827  0.97744  1.0000
  C   C1073     1.0  0.38081  0.09518  0.78362  1.0000
  S   S453      1.0  0.46777  0.07000  0.75591  1.0000
  H   H1710     1.0  0.37925  0.37973  0.97862  1.0000
  H   H1711     1.0  0.25949  0.14409  0.72899  1.0000
  H   H1712     1.0  0.43745  0.00025  0.70860  1.0000
  H   H1713     1.0  0.28919  0.02947  0.58091  1.0000
  C   C1074     1.0  0.34423  0.37868  0.88172  1.0000
  H   H1714     1.0  0.28997  0.38893  0.93706  1.0000
  Fe  Fe227     1.0  0.30754  0.35743  0.90655  1.0000
  S   S454      1.0  0.28903  0.34693  0.92543  1.0000
  S   S455      1.0  0.30440  0.37501  0.88415  1.0000
  Fe  Fe228     1.0  0.33397  0.34067  0.92367  1.0000
  S   S456      1.0  0.31790  0.32795  0.94361  1.0000
  S   S457      1.0  0.35933  0.33779  0.92493  1.0000
  Fe  Fe229     1.0  0.30742  0.32442  0.92542  1.0000
  S   S458      1.0  0.30005  0.30131  0.93036  1.0000
  Fe  Fe230     1.0  0.30103  0.35127  0.94193  1.0000
  S   S459      1.0  0.28996  0.36116  0.96352  1.0000
  S   S460      1.0  0.32537  0.33467  0.90542  1.0000
  S   S461      1.0  0.31754  0.36415  0.92306  1.0000
  Fe  Fe231     1.0  0.28001  0.25402  0.88020  1.0000
  S   S462      1.0  0.26228  0.25862  0.86541  1.0000
  S   S463      1.0  0.29139  0.27471  0.87592  1.0000
  Fe  Fe232     1.0  0.27345  0.22172  0.89672  1.0000
  H   H1715     1.0  0.31734  0.02828  0.59470  1.0000
  Fe  Fe233     1.0  0.27191  0.23369  0.86252  1.0000
  S   S464      1.0  0.27452  0.22758  0.83916  1.0000
  C   C1075     1.0  0.27939  0.39195  0.93195  1.0000
  S   S465      1.0  0.29126  0.22987  0.87517  1.0000
  H   H1716     1.0  0.25236  0.16205  0.97660  1.0000
  Fe  Fe234     1.0  0.28847  0.13092  0.79249  1.0000
  S   S466      1.0  0.26872  0.11960  0.79442  1.0000
  S   S467      1.0  0.30903  0.12818  0.77168  1.0000
  Fe  Fe235     1.0  0.26999  0.14847  0.81891  1.0000
  H   H1717     1.0  0.27160  0.12193  0.74783  1.0000
  C   C1076     1.0  0.31551  0.01754  0.59241  1.0000
  Fe  Fe236     1.0  0.26568  0.11615  0.82042  1.0000
  Fe  Fe237     1.0  0.25351  0.14347  0.79560  1.0000
  H   H1718     1.0  0.38383  0.07092  0.55237  1.0000
  N   N107      1.0  0.40666  0.05684  0.54455  1.0000
  S   S468      1.0  0.28700  0.12506  0.81861  1.0000
  S   S469      1.0  0.27330  0.15528  0.79253  1.0000
  C   C1077     1.0  0.40030  0.04396  0.54336  1.0000
  Fe  Fe238     1.0  0.36508  0.04614  0.52679  1.0000
  H   H1719     1.0  0.40893  0.03250  0.54475  1.0000
  C   C1078     1.0  0.27276  0.41824  0.93651  1.0000
  H   H1720     1.0  0.43016  0.04748  0.53280  1.0000
  C   C1079     1.0  0.47437  0.36064  0.94316  1.0000
  H   H1721     1.0  0.30992  0.98750  0.67925  1.0000
  H   H1722     1.0  0.44592  0.47003  0.91569  1.0000
  H   H1723     1.0  0.26348  0.42751  0.94170  1.0000
  H   H1724     1.0  0.33031  0.03542  0.56688  1.0000
  H   H1725     1.0  0.35641  0.39825  0.94765  1.0000
  N   N108      1.0  0.24450  0.30109  0.88519  1.0000
  H   H1726     1.0  0.29960  0.13809  0.73632  1.0000
  H   H1727     1.0  0.26462  0.15910  0.76098  1.0000
  H   H1728     1.0  0.30177  0.00131  0.58152  1.0000
  H   H1729     1.0  0.32502  0.30047  0.97271  1.0000
  C   C1080     1.0  0.27306  0.20852  0.83915  1.0000
  C   C1081     1.0  0.27041  0.19736  0.85319  1.0000
  C   C1082     1.0  0.26875  0.18247  0.85295  1.0000
  C   C1083     1.0  0.26986  0.17853  0.83869  1.0000
  C   C1084     1.0  0.27246  0.18968  0.82463  1.0000
  C   C1085     1.0  0.27401  0.20465  0.82489  1.0000
  H   H1730     1.0  0.26983  0.20009  0.86424  1.0000
  C   C1086     1.0  0.39465  0.07168  0.54286  1.0000
  H   H1731     1.0  0.27331  0.18677  0.81359  1.0000
  H   H1732     1.0  0.27601  0.21325  0.81399  1.0000
  H   H1733     1.0  0.40024  0.05178  0.56980  1.0000
  C   C1087     1.0  0.29749  0.29419  0.91511  1.0000
  C   C1088     1.0  0.30093  0.30204  0.89936  1.0000
  C   C1089     1.0  0.29907  0.29587  0.88749  1.0000
  C   C1090     1.0  0.29367  0.28188  0.89126  1.0000
  C   C1091     1.0  0.29001  0.27415  0.90702  1.0000
  C   C1092     1.0  0.29195  0.28028  0.91888  1.0000
  H   H1734     1.0  0.30523  0.31273  0.89631  1.0000
  H   H1735     1.0  0.30198  0.30188  0.87532  1.0000
  H   H1736     1.0  0.28594  0.26333  0.91006  1.0000
  H   H1737     1.0  0.28931  0.27411  0.93103  1.0000
  H   H1738     1.0  0.24342  0.41660  0.93711  1.0000
  H   H1739     1.0  0.29692  0.32783  0.97824  1.0000
  C   C1093     1.0  0.47355  0.09347  0.70909  1.0000
  H   H1740     1.0  0.46305  0.39506  0.93388  1.0000
  H   H1741     1.0  0.33922  0.01515  0.56687  1.0000
  H   H1742     1.0  0.37531  0.05808  0.79042  1.0000
  H   H1743     1.0  0.32366  0.35111  0.95461  1.0000
  H   H1744     1.0  0.29641  0.31012  0.97339  1.0000
  C   C1094     1.0  0.25524  0.40532  0.88144  1.0000
  H   H1745     1.0  0.26166  0.13221  0.76330  1.0000
  C   C1095     1.0  0.28532  0.38641  0.88347  1.0000
  C   C1096     1.0  0.27269  0.38519  0.89652  1.0000
  C   C1097     1.0  0.25764  0.39473  0.89554  1.0000
  H   H1746     1.0  0.28558  0.15221  0.75765  1.0000
  C   C1098     1.0  0.26784  0.40635  0.86842  1.0000
  C   C1099     1.0  0.28282  0.39701  0.86946  1.0000
  H   H1747     1.0  0.27447  0.37689  0.90731  1.0000
  H   H1748     1.0  0.29911  0.03515  0.56071  1.0000
  H   H1749     1.0  0.29251  0.39798  0.85933  1.0000
  C   C1100     1.0  0.42090  0.05851  0.53195  1.0000
  C   C1101     1.0  0.30311  0.98826  0.62852  1.0000
  H   H1750     1.0  0.34417  0.34253  0.96993  1.0000
  H   H1751     1.0  0.29105  0.15422  0.72239  1.0000
  H   H1752     1.0  0.26184  0.16365  0.72706  1.0000
  S   S470      1.0  0.35962  0.06431  0.54128  1.0000
  C   C1102     1.0  0.31233  0.00526  0.57333  1.0000
  N   N109      1.0  0.46902  0.08880  0.69684  1.0000
  C   C1103     1.0  0.45843  0.02655  0.51610  1.0000
  H   H1753     1.0  0.46865  0.09719  0.67228  1.0000
  H   H1754     1.0  0.41818  0.06127  0.52010  1.0000
  H   H1755     1.0  0.26603  0.41447  0.85749  1.0000
  H   H1756     1.0  0.24835  0.39717  0.93358  1.0000
  H   H1757     1.0  0.39911  0.08178  0.54331  1.0000
  H   H1758     1.0  0.33467  0.38610  0.96766  1.0000
  C   C1104     1.0  0.30027  0.03262  0.57312  1.0000
  H   H1759     1.0  0.25645  0.07417  0.70591  1.0000
  H   H1760     1.0  0.25627  0.41261  0.91894  1.0000
  C   C1105     1.0  0.43325  0.02288  0.51444  1.0000
  H   H1761     1.0  0.42642  0.99387  0.75213  1.0000
  H   H1762     1.0  0.42611  0.06807  0.53247  1.0000
  C   C1106     1.0  0.24401  0.15917  0.95148  1.0000
  H   H1763     1.0  0.38931  0.10217  0.77541  1.0000
  C   C1107     1.0  0.44646  0.01798  0.52122  1.0000
  H   H1764     1.0  0.38929  0.04262  0.55243  1.0000
  C   C1108     1.0  0.34080  0.07944  0.76927  1.0000
  C   C1109     1.0  0.32975  0.08195  0.78315  1.0000
  C   C1110     1.0  0.31971  0.09676  0.78391  1.0000
  C   C1111     1.0  0.32085  0.10924  0.77083  1.0000
  C   C1112     1.0  0.33184  0.10672  0.75690  1.0000
  C   C1113     1.0  0.34171  0.09182  0.75606  1.0000
  H   H1765     1.0  0.32899  0.07242  0.79342  1.0000
  H   H1766     1.0  0.31128  0.09858  0.79469  1.0000
  H   H1767     1.0  0.33278  0.11635  0.74675  1.0000
  H   H1768     1.0  0.35020  0.09001  0.74531  1.0000
  C   C1114     1.0  0.43946  0.05211  0.73240  1.0000
  C   C1115     1.0  0.45585  0.04678  0.73008  1.0000
  C   C1116     1.0  0.46452  0.05173  0.73773  1.0000
  C   C1117     1.0  0.45693  0.06240  0.74744  1.0000
  C   C1118     1.0  0.44048  0.06759  0.74996  1.0000
  C   C1119     1.0  0.43171  0.06236  0.74255  1.0000
  H   H1769     1.0  0.46192  0.03885  0.72225  1.0000
  H   H1770     1.0  0.47710  0.04727  0.73611  1.0000
  H   H1771     1.0  0.43464  0.07592  0.75738  1.0000
  H   H1772     1.0  0.41910  0.06663  0.74424  1.0000
  H   H1773     1.0  0.32612  0.07502  0.54540  1.0000
  H   H1774     1.0  0.47972  0.99572  0.50398  1.0000
  C   C1120     1.0  0.26252  0.07649  0.68076  1.0000
  C   C1121     1.0  0.43214  0.03639  0.50239  1.0000
  H   H1775     1.0  0.26577  0.08216  0.65555  1.0000
  C   C1122     1.0  0.35560  0.03369  0.66548  1.0000
  C   C1123     1.0  0.35207  0.05000  0.66010  1.0000
  C   C1124     1.0  0.35562  0.05977  0.66765  1.0000
  C   C1125     1.0  0.36250  0.05331  0.68074  1.0000
  C   C1126     1.0  0.36651  0.03697  0.68582  1.0000
  C   C1127     1.0  0.36315  0.02717  0.67813  1.0000
  H   H1776     1.0  0.34638  0.05510  0.65027  1.0000
  H   H1777     1.0  0.35260  0.07240  0.66362  1.0000
  H   H1778     1.0  0.37191  0.03192  0.69585  1.0000
  H   H1779     1.0  0.36590  0.01455  0.68233  1.0000
  C   C1128     1.0  0.25027  0.11927  0.88961  1.0000
  Fe  Fe239     1.0  0.36986  0.03586  0.49603  1.0000
  H   H1780     1.0  0.41446  0.99029  0.68825  1.0000
  H   H1781     1.0  0.31117  0.00676  0.56106  1.0000
  C   C1129     1.0  0.36442  0.00054  0.72430  1.0000
  H   H1782     1.0  0.45802  0.41394  0.92144  1.0000
  H   H1783     1.0  0.38678  0.06738  0.76271  1.0000
  H   H1784     1.0  0.32703  0.99141  0.68260  1.0000
  H   H1785     1.0  0.36439  0.01294  0.72095  1.0000
  H   H1786     1.0  0.34827  0.00221  0.71000  1.0000
  H   H1787     1.0  0.27536  0.38084  0.93411  1.0000
  H   H1788     1.0  0.27169  0.12842  0.86360  1.0000
  C   C1130     1.0  0.47185  0.10038  0.68183  1.0000
  H   H1789     1.0  0.24531  0.31515  0.90039  1.0000
  C   C1131     1.0  0.26079  0.15227  0.73549  1.0000
  C   C1132     1.0  0.37386  0.99044  0.73447  1.0000
  C   C1133     1.0  0.47856  0.07313  0.69469  1.0000
  H   H1790     1.0  0.46486  0.11237  0.68296  1.0000
  N   N110      1.0  0.27448  0.14571  0.74298  1.0000
  C   C1134     1.0  0.24644  0.09881  0.66626  1.0000
  C   C1135     1.0  0.34426  0.06218  0.55809  1.0000
  C   C1136     1.0  0.31645  0.06837  0.57024  1.0000
  C   C1137     1.0  0.31959  0.06086  0.58513  1.0000
  C   C1138     1.0  0.33517  0.05392  0.58650  1.0000
  C   C1139     1.0  0.34751  0.05469  0.57299  1.0000
  H   H1791     1.0  0.30445  0.07384  0.56911  1.0000
  H   H1792     1.0  0.33769  0.04814  0.59796  1.0000
  H   H1793     1.0  0.35955  0.04959  0.57411  1.0000
  C   C1140     1.0  0.37966  0.38004  0.92177  1.0000
  C   C1141     1.0  0.38777  0.36472  0.92691  1.0000
  C   C1142     1.0  0.38134  0.35184  0.92806  1.0000
  C   C1143     1.0  0.36667  0.35420  0.92433  1.0000
  C   C1144     1.0  0.35845  0.36956  0.91954  1.0000
  C   C1145     1.0  0.36499  0.38239  0.91810  1.0000
  H   H1794     1.0  0.39918  0.36276  0.92960  1.0000
  H   H1795     1.0  0.38783  0.33999  0.93168  1.0000
  H   H1796     1.0  0.34723  0.37158  0.91658  1.0000
  H   H1797     1.0  0.35868  0.39421  0.91407  1.0000
  C   C1146     1.0  0.24438  0.08956  0.83376  1.0000
  H   H1798     1.0  0.37665  0.36656  0.95891  1.0000
  H   H1799     1.0  0.37392  0.37892  0.86549  1.0000
  H   H1800     1.0  0.33527  0.37341  0.89131  1.0000
  H   H1801     1.0  0.41981  0.04207  0.56167  1.0000
  H   H1802     1.0  0.46908  0.37187  0.92043  1.0000
  H   H1803     1.0  0.26723  0.30703  0.87851  1.0000
  C   C1147     1.0  0.45754  0.03984  0.50385  1.0000
  H   H1804     1.0  0.44347  0.05510  0.48759  1.0000
  H   H1805     1.0  0.39087  0.07449  0.53151  1.0000
  H   H1806     1.0  0.28312  0.39610  0.91901  1.0000
  H   H1807     1.0  0.24390  0.02294  0.83018  1.0000
  C   C1148     1.0  0.25007  0.28612  0.89569  1.0000
  C   C1149     1.0  0.24466  0.17261  0.97077  1.0000
  H   H1808     1.0  0.31595  0.99401  0.53613  1.0000
  H   H1809     1.0  0.36882  0.10143  0.78161  1.0000
  C   C1150     1.0  0.41558  0.46886  0.95539  1.0000
  C   C1151     1.0  0.41902  0.45659  0.94745  1.0000
  H   H1810     1.0  0.41307  0.44698  0.95229  1.0000
  N   N111      1.0  0.31429  0.04685  0.70522  1.0000
  C   C1152     1.0  0.32858  0.04188  0.71178  1.0000
  C   C1153     1.0  0.30674  0.03337  0.70874  1.0000
  C   C1154     1.0  0.31871  0.05245  0.68802  1.0000
  C   C1155     1.0  0.30314  0.05972  0.71220  1.0000
  H   H1811     1.0  0.33472  0.05172  0.70912  1.0000
  H   H1812     1.0  0.33719  0.03217  0.70671  1.0000
  H   H1813     1.0  0.32576  0.03765  0.72477  1.0000
  H   H1814     1.0  0.29602  0.03673  0.70376  1.0000
  H   H1815     1.0  0.31487  0.02347  0.70358  1.0000
  H   H1816     1.0  0.30316  0.02885  0.72163  1.0000
  H   H1817     1.0  0.32618  0.04276  0.68226  1.0000
  H   H1818     1.0  0.32521  0.06205  0.68487  1.0000
  H   H1819     1.0  0.30825  0.05718  0.68268  1.0000
  H   H1820     1.0  0.29955  0.05596  0.72520  1.0000
  H   H1821     1.0  0.29225  0.06371  0.70741  1.0000
  H   H1822     1.0  0.30849  0.07009  0.70960  1.0000
  Fe  Fe240     1.0  0.36075  0.01419  0.52717  1.0000
  H   H1823     1.0  0.32783  0.02654  0.55262  1.0000
  N   N112      1.0  0.26684  0.40388  0.93911  1.0000
  C   C1156     1.0  0.41075  0.05319  0.56005  1.0000
  S   S471      1.0  0.49037  0.98798  0.70459  1.0000
  H   H1824     1.0  0.47506  0.39999  0.91452  1.0000
  H   H1825     1.0  0.25301  0.40652  0.96205  1.0000
  C   C1157     1.0  0.37310  0.07022  0.79229  1.0000
  H   H1826     1.0  0.46833  0.02288  0.52167  1.0000
  H   H1827     1.0  0.40971  0.07745  0.77597  1.0000
  H   H1828     1.0  0.27011  0.10870  0.86465  1.0000
  C   C1158     1.0  0.46821  0.41589  0.94627  1.0000
  H   H1829     1.0  0.28926  0.16675  0.91481  1.0000
  C   C1159     1.0  0.32051  0.35223  0.96666  1.0000
  H   H1830     1.0  0.46423  0.40586  0.95537  1.0000
  S   S472      1.0  0.41855  0.01168  0.52131  1.0000
  H   H1831     1.0  0.44743  0.00756  0.53056  1.0000
  S   S473      1.0  0.34477  0.99763  0.54068  1.0000
  H   H1832     1.0  0.44837  0.08431  0.69300  1.0000
  C   C1160     1.0  0.32869  0.06898  0.55679  1.0000
  H   H1833     1.0  0.33763  0.38857  0.87400  1.0000
  S   S474      1.0  0.24445  0.14888  0.91150  1.0000
  H   H1834     1.0  0.40135  0.07019  0.79623  1.0000
  C   C1161     1.0  0.25315  0.40774  0.93182  1.0000
  S   S475      1.0  0.25494  0.22410  0.88374  1.0000
  H   H1835     1.0  0.28301  0.41577  0.94200  1.0000
  H   H1836     1.0  0.42721  0.99645  0.49430  1.0000
  N   N113      1.0  0.47772  0.41087  0.93166  1.0000
  H   H1837     1.0  0.27597  0.14698  0.91303  1.0000
  C   C1162     1.0  0.25313  0.19011  0.91216  1.0000
  H   H1838     1.0  0.41356  0.98692  0.50988  1.0000
  H   H1839     1.0  0.25818  0.28736  0.90231  1.0000
  C   C1163     1.0  0.38437  0.07943  0.76485  1.0000
  S   S476      1.0  0.26770  0.15958  0.83924  1.0000
  C   C1164     1.0  0.44431  0.04478  0.49705  1.0000
  C   C1165     1.0  0.42291  0.48171  0.94902  1.0000
  C   C1166     1.0  0.26892  0.18575  0.91339  1.0000
  N   N114      1.0  0.24837  0.12400  0.87316  1.0000
  S   S477      1.0  0.43514  0.44105  0.92345  1.0000
  C   C1167     1.0  0.33223  0.34756  0.97532  1.0000
  H   H1840     1.0  0.42205  0.04024  0.49701  1.0000
  H   H1841     1.0  0.37261  0.08560  0.76226  1.0000
  H   H1842     1.0  0.35815  0.40784  0.96188  1.0000
  H   H1843     1.0  0.39733  0.04623  0.53171  1.0000
  N   N115      1.0  0.38475  0.07896  0.78118  1.0000
  C   C1168     1.0  0.32850  0.02447  0.56514  1.0000
  Fe  Fe241     1.0  0.39375  0.02140  0.51710  1.0000
  H   H1844     1.0  0.47540  0.06922  0.68559  1.0000
  H   H1845     1.0  0.26393  0.29698  0.86573  1.0000
  H   H1846     1.0  0.32279  0.99557  0.57511  1.0000
  C   C1169     1.0  0.28913  0.14307  0.73087  1.0000
  C   C1170     1.0  0.48295  0.42449  0.92007  1.0000
  H   H1847     1.0  0.33708  0.03808  0.48684  1.0000
  H   H1848     1.0  0.37496  0.39511  0.95267  1.0000
  H   H1849     1.0  0.25132  0.14797  0.95678  1.0000
  H   H1850     1.0  0.42555  0.43831  0.97807  1.0000
  C   C1171     1.0  0.43379  0.48214  0.93460  1.0000
  H   H1851     1.0  0.25712  0.09097  0.80972  1.0000
  H   H1852     1.0  0.24664  0.20203  0.91235  1.0000
  C   C1172     1.0  0.26204  0.39762  0.95618  1.0000
  H   H1853     1.0  0.30859  0.99815  0.62560  1.0000
  H   H1854     1.0  0.44118  0.01707  0.71253  1.0000
  C   C1173     1.0  0.40066  0.07102  0.78395  1.0000
  H   H1855     1.0  0.48349  0.34821  0.96386  1.0000
  H   H1856     1.0  0.48620  0.09411  0.70580  1.0000
  H   H1857     1.0  0.26681  0.17389  0.86389  1.0000
  C   C1174     1.0  0.24656  0.08854  0.81817  1.0000
  S   S478      1.0  0.25815  0.09606  0.83927  1.0000
  C   C1175     1.0  0.47829  0.36608  0.92687  1.0000
  N   N116      1.0  0.35484  0.36688  0.87292  1.0000
  C   C1176     1.0  0.34553  0.36082  0.86577  1.0000
  C   C1177     1.0  0.36669  0.37426  0.86044  1.0000
  C   C1178     1.0  0.36291  0.35378  0.88377  1.0000
  H   H1858     1.0  0.33905  0.37043  0.85772  1.0000
  H   H1859     1.0  0.33647  0.35519  0.87490  1.0000
  H   H1860     1.0  0.35310  0.35188  0.85901  1.0000
  H   H1861     1.0  0.35083  0.38365  0.88716  1.0000
  H   H1862     1.0  0.36100  0.38424  0.85207  1.0000
  H   H1863     1.0  0.37490  0.36568  0.85355  1.0000
  H   H1864     1.0  0.37102  0.34459  0.87760  1.0000
  H   H1865     1.0  0.35433  0.34794  0.89334  1.0000
  C   C1179     1.0  0.46806  0.40467  0.92509  1.0000
  S   S479      1.0  0.27852  0.19952  0.91477  1.0000
  N   N117      1.0  0.31416  0.01996  0.57600  1.0000
  C   C1180     1.0  0.43009  0.45681  0.93323  1.0000
  S   S480      1.0  0.37485  0.02196  0.53913  1.0000
  H   H1866     1.0  0.25691  0.38711  0.95861  1.0000
  H   H1867     1.0  0.46677  0.99922  0.73074  1.0000
  H   H1868     1.0  0.40697  0.42658  0.97181  1.0000
  H   H1869     1.0  0.42515  0.35256  0.97645  1.0000
  S   S481      1.0  0.24864  0.13908  0.82182  1.0000
  H   H1870     1.0  0.36091  0.07609  0.79077  1.0000
  H   H1871     1.0  0.38095  0.09529  0.79583  1.0000
  H   H1872     1.0  0.41553  0.06271  0.56139  1.0000
  H   H1873     1.0  0.30459  0.01476  0.60086  1.0000
  H   H1874     1.0  0.48568  0.01958  0.70798  1.0000
  H   H1875     1.0  0.48794  0.38789  0.94372  1.0000
  H   H1876     1.0  0.47684  0.06410  0.70579  1.0000
  C   C1181     1.0  0.33385  0.98506  0.65392  1.0000
  H   H1877     1.0  0.40406  0.05885  0.78188  1.0000
  H   H1878     1.0  0.48450  0.10106  0.67790  1.0000
  C   C1182     1.0  0.45216  0.08822  0.70172  1.0000
  C   C1183     1.0  0.45426  0.00166  0.73721  1.0000
  H   H1879     1.0  0.32230  0.99054  0.65066  1.0000
  C   C1184     1.0  0.43741  0.46968  0.92677  1.0000
  H   H1880     1.0  0.49082  0.00417  0.52161  1.0000
  H   H1881     1.0  0.26292  0.12471  0.84996  1.0000
  S   S482      1.0  0.38061  0.01085  0.50627  1.0000
  H   H1882     1.0  0.39323  0.08565  0.75613  1.0000
  C   C1185     1.0  0.42295  0.98530  0.49916  1.0000
  H   H1883     1.0  0.36995  0.35789  0.88952  1.0000
  C   C1186     1.0  0.48792  0.98730  0.51058  1.0000
  C   C1187     1.0  0.26959  0.15902  0.91272  1.0000
  H   H1884     1.0  0.25557  0.10652  0.89281  1.0000
  C   C1188     1.0  0.25367  0.08099  0.69481  1.0000
  H   H1885     1.0  0.40710  0.46841  0.96650  1.0000
  C   C1189     1.0  0.42764  0.99972  0.73946  1.0000
  H   H1886     1.0  0.24267  0.22721  0.85619  1.0000
  S   S483      1.0  0.26395  0.24532  0.90288  1.0000
  C   C1190     1.0  0.24558  0.17893  0.91114  1.0000
  H   H1887     1.0  0.25446  0.31728  0.86504  1.0000
  C   C1191     1.0  0.36376  0.36873  0.96400  1.0000
  H   H1888     1.0  0.25676  0.27709  0.88879  1.0000
  H   H1889     1.0  0.27698  0.16837  0.74382  1.0000
  N   N118      1.0  0.35828  0.38316  0.97031  1.0000
  C   C1192     1.0  0.27254  0.13060  0.75395  1.0000
  C   C1193     1.0  0.25893  0.08547  0.66645  1.0000
  H   H1890     1.0  0.27655  0.42324  0.92373  1.0000
  N   N119      1.0  0.44410  0.99609  0.73063  1.0000
  C   C1194     1.0  0.30488  0.35799  0.97366  1.0000
  H   H1891     1.0  0.25801  0.12588  0.89155  1.0000
  H   H1892     1.0  0.47164  0.08497  0.72060  1.0000
  H   H1893     1.0  0.41964  0.99569  0.73480  1.0000
  C   C1195     1.0  0.48643  0.35262  0.95128  1.0000
  H   H1894     1.0  0.24961  0.15447  0.74445  1.0000
  H   H1895     1.0  0.33912  0.99465  0.65427  1.0000
  H   H1896     1.0  0.44788  0.98538  0.50981  1.0000
  H   H1897     1.0  0.44455  0.09989  0.70318  1.0000
  C   C1196     1.0  0.34108  0.38581  0.97662  1.0000
  H   H1898     1.0  0.46654  0.10521  0.71107  1.0000
  H   H1899     1.0  0.42323  0.01260  0.73867  1.0000
  H   H1900     1.0  0.25247  0.17998  0.96187  1.0000
  H   H1901     1.0  0.49134  0.07317  0.69096  1.0000
  C   C1197     1.0  0.35530  0.99448  0.71814  1.0000
  Fe  Fe242     1.0  0.24699  0.24851  0.88778  1.0000
  C   C1198     1.0  0.26399  0.12130  0.86243  1.0000
  H   H1902     1.0  0.24369  0.10573  0.65517  1.0000
  C   C1199     1.0  0.34113  0.98848  0.52778  1.0000
  H   H1903     1.0  0.24790  0.39373  0.90557  1.0000
  H   H1904     1.0  0.45047  0.01456  0.73649  1.0000
  H   H1905     1.0  0.44966  0.07981  0.71317  1.0000
  H   H1906     1.0  0.36145  0.35820  0.97334  1.0000
  H   H1907     1.0  0.27220  0.39398  0.96201  1.0000
  H   H1908     1.0  0.47500  0.42097  0.95140  1.0000
  H   H1909     1.0  0.24762  0.14823  0.87189  1.0000
  H   H1910     1.0  0.45732  0.00162  0.70689  1.0000
  H   H1911     1.0  0.24412  0.10193  0.87273  1.0000
  H   H1912     1.0  0.35774  0.36945  0.95457  1.0000
  H   H1913     1.0  0.45746  0.42504  0.94408  1.0000
  H   H1914     1.0  0.28884  0.13467  0.72408  1.0000
  H   H1915     1.0  0.28269  0.12527  0.75981  1.0000
  H   H1916     1.0  0.49035  0.42947  0.92457  1.0000
  H   H1917     1.0  0.48997  0.42117  0.90882  1.0000
  C   C1200     1.0  0.29317  0.98478  0.64327  1.0000
  Fe  Fe243     1.0  0.43596  0.57977  0.03631  1.0000
  S   S484      1.0  0.45825  0.56240  0.03952  1.0000
  H   H1918     1.0  0.24314  0.86750  0.22967  1.0000
  Fe  Fe244     1.0  0.42043  0.57137  0.07010  1.0000
  S   S485      1.0  0.44176  0.55310  0.07656  1.0000
  S   S486      1.0  0.39661  0.57678  0.08649  1.0000
  Fe  Fe245     1.0  0.45563  0.57112  0.06112  1.0000
  H   H1919     1.0  0.33566  0.63597  0.99738  1.0000
  Fe  Fe246     1.0  0.44325  0.54552  0.05448  1.0000
  H   H1920     1.0  0.28511  0.93780  0.30316  1.0000
  S   S487      1.0  0.43424  0.59002  0.05668  1.0000
  S   S488      1.0  0.42100  0.56224  0.04924  1.0000
  S   S489      1.0  0.36882  0.90659  0.45356  1.0000
  H   H1921     1.0  0.38054  0.88039  0.47689  1.0000
  Fe  Fe247     1.0  0.29440  0.62977  0.07797  1.0000
  S   S490      1.0  0.27912  0.65205  0.06787  1.0000
  S   S491      1.0  0.28297  0.60939  0.09088  1.0000
  Fe  Fe248     1.0  0.32352  0.64356  0.06716  1.0000
  S   S492      1.0  0.31009  0.66737  0.05681  1.0000
  S   S493      1.0  0.35006  0.63906  0.06012  1.0000
  Fe  Fe249     1.0  0.29115  0.66360  0.07874  1.0000
  S   S494      1.0  0.27275  0.68097  0.09183  1.0000
  Fe  Fe250     1.0  0.29925  0.65373  0.04710  1.0000
  H   H1922     1.0  0.37645  0.92279  0.32255  1.0000
  S   S495      1.0  0.30551  0.64090  0.09011  1.0000
  S   S496      1.0  0.31364  0.63026  0.05619  1.0000
  C   C1201     1.0  0.25950  0.82655  0.26626  1.0000
  Fe  Fe251     1.0  0.31325  0.90661  0.40367  1.0000
  S   S497      1.0  0.29210  0.91827  0.39281  1.0000
  S   S498      1.0  0.31037  0.90262  0.43006  1.0000
  Fe  Fe252     1.0  0.33590  0.90804  0.37172  1.0000
  S   S499      1.0  0.31685  0.92027  0.35859  1.0000
  S   S500      1.0  0.36053  0.90212  0.35758  1.0000
  Fe  Fe253     1.0  0.30759  0.93451  0.37703  1.0000
  S   S501      1.0  0.29859  0.96072  0.37157  1.0000
  Fe  Fe254     1.0  0.30330  0.90278  0.37530  1.0000
  S   S502      1.0  0.29416  0.88896  0.36361  1.0000
  S   S503      1.0  0.32790  0.92380  0.38885  1.0000
  S   S504      1.0  0.32315  0.88957  0.38759  1.0000
  Fe  Fe255     1.0  0.35642  0.90098  0.27853  1.0000
  S   S505      1.0  0.36568  0.89994  0.25308  1.0000
  S   S506      1.0  0.35949  0.87981  0.29795  1.0000
  Fe  Fe256     1.0  0.34155  0.93559  0.27184  1.0000
  S   S507      1.0  0.34916  0.93760  0.24584  1.0000
  S   S508      1.0  0.32771  0.95701  0.28120  1.0000
  Fe  Fe257     1.0  0.34170  0.91472  0.25041  1.0000
  S   S509      1.0  0.32396  0.91191  0.23854  1.0000
  Fe  Fe258     1.0  0.37230  0.92280  0.25105  1.0000
  S   S510      1.0  0.39446  0.93170  0.23830  1.0000
  S   S511      1.0  0.33214  0.91407  0.27614  1.0000
  S   S512      1.0  0.36504  0.92242  0.27680  1.0000
  H   H1923     1.0  0.27902  0.74244  0.18276  1.0000
  S   S513      1.0  0.31343  0.60859  0.98397  1.0000
  S   S514      1.0  0.45390  0.90104  0.26917  1.0000
  C   C1202     1.0  0.29157  0.92540  0.30633  1.0000
  H   H1924     1.0  0.26218  0.58832  0.09591  1.0000
  H   H1925     1.0  0.39776  0.97347  0.23556  1.0000
  H   H1926     1.0  0.30102  0.62826  0.03180  1.0000
  Fe  Fe259     1.0  0.47435  0.91258  0.26531  1.0000
  H   H1927     1.0  0.41978  0.91987  0.30998  1.0000
  C   C1203     1.0  0.30226  0.63145  0.01925  1.0000
  C   C1204     1.0  0.30753  0.62370  0.99435  1.0000
  H   H1928     1.0  0.39507  0.89164  0.31391  1.0000
  H   H1929     1.0  0.25452  0.84553  0.06794  1.0000
  Fe  Fe260     1.0  0.27260  0.83341  0.22867  1.0000
  S   S515      1.0  0.29689  0.82298  0.21646  1.0000
  H   H1930     1.0  0.27424  0.94949  0.42171  1.0000
  Fe  Fe261     1.0  0.27167  0.86504  0.20633  1.0000
  S   S516      1.0  0.29586  0.85739  0.19224  1.0000
  S   S517      1.0  0.25615  0.88898  0.20149  1.0000
  Fe  Fe262     1.0  0.28798  0.83528  0.19434  1.0000
  S   S518      1.0  0.29130  0.82669  0.17219  1.0000
  Fe  Fe263     1.0  0.30218  0.84617  0.21562  1.0000
  S   S519      1.0  0.32430  0.84892  0.22068  1.0000
  S   S520      1.0  0.26328  0.84395  0.20676  1.0000
  S   S521      1.0  0.27847  0.85555  0.22954  1.0000
  H   H1931     1.0  0.26788  0.64623  0.10236  1.0000
  C   C1205     1.0  0.28119  0.57370  0.98302  1.0000
  N   N120      1.0  0.35053  0.64004  0.01005  1.0000
  H   H1932     1.0  0.24573  0.80104  0.34443  1.0000
  C   C1206     1.0  0.34277  0.97461  0.45226  1.0000
  H   H1933     1.0  0.46962  0.58457  0.01022  1.0000
  H   H1934     1.0  0.39717  0.49757  0.00957  1.0000
  H   H1935     1.0  0.44000  0.94540  0.47590  1.0000
  H   H1936     1.0  0.30862  0.92290  0.19029  1.0000
  C   C1207     1.0  0.42657  0.48806  0.01486  1.0000
  H   H1937     1.0  0.38105  0.90573  0.30374  1.0000
  H   H1938     1.0  0.31535  0.93193  0.32593  1.0000
  Fe  Fe264     1.0  0.26904  0.74424  0.13212  1.0000
  S   S522      1.0  0.37021  0.94092  0.47121  1.0000
  S   S523      1.0  0.28861  0.72312  0.12840  1.0000
  Fe  Fe265     1.0  0.25636  0.77821  0.11748  1.0000
  N   N121      1.0  0.48224  0.60007  0.01315  1.0000
  H   H1939     1.0  0.28382  0.59892  0.99167  1.0000
  Fe  Fe266     1.0  0.25437  0.76839  0.15244  1.0000
  H   H1940     1.0  0.25159  0.63648  0.09064  1.0000
  C   C1208     1.0  0.30577  0.92014  0.18028  1.0000
  H   H1941     1.0  0.33109  0.65993  0.00751  1.0000
  S   S524      1.0  0.27473  0.76695  0.13173  1.0000
  H   H1942     1.0  0.35446  0.65378  0.98642  1.0000
  H   H1943     1.0  0.30801  0.60747  0.01670  1.0000
  N   N122      1.0  0.24290  0.64802  0.11016  1.0000
  H   H1944     1.0  0.31137  0.71998  0.17947  1.0000
  C   C1209     1.0  0.38926  0.91900  0.32252  1.0000
  N   N123      1.0  0.24267  0.85163  0.16180  1.0000
  C   C1210     1.0  0.35753  0.97927  0.29831  1.0000
  H   H1945     1.0  0.27748  0.74564  0.16290  1.0000
  H   H1946     1.0  0.32800  0.89335  0.17754  1.0000
  H   H1947     1.0  0.24994  0.82902  0.06422  1.0000
  C   C1211     1.0  0.25864  0.64553  0.11340  1.0000
  C   C1212     1.0  0.34372  0.58888  0.06532  1.0000
  N   N124      1.0  0.30104  0.74182  0.16571  1.0000
  H   H1948     1.0  0.41110  0.50302  0.99168  1.0000
  H   H1949     1.0  0.49089  0.87068  0.46053  1.0000
  H   H1950     1.0  0.34636  0.56484  0.09023  1.0000
  C   C1213     1.0  0.30004  0.64727  0.01154  1.0000
  N   N125      1.0  0.47694  0.98062  0.28835  1.0000
  S   S525      1.0  0.25749  0.82124  0.24992  1.0000
  C   C1214     1.0  0.39365  0.90237  0.30437  1.0000
  C   C1215     1.0  0.28143  0.81212  0.17300  1.0000
  C   C1216     1.0  0.27336  0.80447  0.18731  1.0000
  C   C1217     1.0  0.26552  0.79296  0.18760  1.0000
  C   C1218     1.0  0.26553  0.78913  0.17361  1.0000
  C   C1219     1.0  0.27341  0.79695  0.15927  1.0000
  C   C1220     1.0  0.28143  0.80832  0.15899  1.0000
  H   H1951     1.0  0.27329  0.80731  0.19817  1.0000
  H   H1952     1.0  0.44134  0.54068  0.02368  1.0000
  H   H1953     1.0  0.27344  0.79415  0.14840  1.0000
  H   H1954     1.0  0.28766  0.81421  0.14788  1.0000
  H   H1955     1.0  0.41783  0.49239  0.02495  1.0000
  H   H1956     1.0  0.25288  0.57951  0.07700  1.0000
  H   H1957     1.0  0.34115  0.96682  0.46418  1.0000
  H   H1958     1.0  0.29695  0.94342  0.45238  1.0000
  C   C1221     1.0  0.27457  0.83611  0.27855  1.0000
  C   C1222     1.0  0.27351  0.83032  0.26614  1.0000
  C   C1223     1.0  0.30612  0.61970  0.01067  1.0000
  H   H1959     1.0  0.28499  0.72620  0.17297  1.0000
  H   H1960     1.0  0.28536  0.83917  0.27833  1.0000
  H   H1961     1.0  0.28355  0.82877  0.25647  1.0000
  C   C1224     1.0  0.30485  0.63953  0.98664  1.0000
  S   S526      1.0  0.43498  0.59441  0.01209  1.0000
  C   C1225     1.0  0.31790  0.89270  0.18784  1.0000
  C   C1226     1.0  0.39619  0.92936  0.29454  1.0000
  H   H1962     1.0  0.29937  0.66354  0.98922  1.0000
  H   H1963     1.0  0.37940  0.96464  0.22595  1.0000
  H   H1964     1.0  0.32994  0.64800  0.02692  1.0000
  C   C1227     1.0  0.32539  0.59239  0.08982  1.0000
  C   C1228     1.0  0.41556  0.91041  0.30777  1.0000
  H   H1965     1.0  0.39275  0.92861  0.32527  1.0000
  C   C1229     1.0  0.31740  0.58455  0.07035  1.0000
  S   S527      1.0  0.26081  0.58622  0.04267  1.0000
  C   C1230     1.0  0.26360  0.88925  0.15540  1.0000
  C   C1231     1.0  0.26527  0.88576  0.17095  1.0000
  C   C1232     1.0  0.44930  0.49312  0.04725  1.0000
  H   H1966     1.0  0.28225  0.87433  0.34668  1.0000
  C   C1233     1.0  0.24765  0.83419  0.29123  1.0000
  H   H1967     1.0  0.27219  0.88305  0.14697  1.0000
  H   H1968     1.0  0.27501  0.87677  0.17440  1.0000
  H   H1969     1.0  0.32679  0.56161  0.09399  1.0000
  C   C1234     1.0  0.24536  0.89739  0.35304  1.0000
  C   C1235     1.0  0.32398  0.86610  0.22641  1.0000
  C   C1236     1.0  0.31016  0.87765  0.22852  1.0000
  C   C1237     1.0  0.31034  0.89155  0.23242  1.0000
  C   C1238     1.0  0.32426  0.89392  0.23444  1.0000
  C   C1239     1.0  0.33798  0.88218  0.23284  1.0000
  C   C1240     1.0  0.33785  0.86834  0.22871  1.0000
  H   H1970     1.0  0.29939  0.87597  0.22696  1.0000
  H   H1971     1.0  0.29964  0.90053  0.23389  1.0000
  H   H1972     1.0  0.34878  0.88392  0.23434  1.0000
  H   H1973     1.0  0.34858  0.85942  0.22712  1.0000
  C   C1241     1.0  0.41089  0.92333  0.24704  1.0000
  C   C1242     1.0  0.41162  0.90905  0.25805  1.0000
  C   C1243     1.0  0.42496  0.90235  0.26461  1.0000
  C   C1244     1.0  0.43749  0.91002  0.26050  1.0000
  C   C1245     1.0  0.43669  0.92443  0.24967  1.0000
  C   C1246     1.0  0.42346  0.93099  0.24285  1.0000
  H   H1974     1.0  0.40206  0.90299  0.26121  1.0000
  H   H1975     1.0  0.44632  0.93041  0.24639  1.0000
  H   H1976     1.0  0.42299  0.94202  0.23429  1.0000
  C   C1247     1.0  0.33906  0.96542  0.28807  1.0000
  C   C1248     1.0  0.34948  0.95605  0.29759  1.0000
  C   C1249     1.0  0.35848  0.96302  0.30294  1.0000
  H   H1977     1.0  0.25128  0.57845  0.99953  1.0000
  H   H1978     1.0  0.31982  0.93030  0.30587  1.0000
  H   H1979     1.0  0.46148  0.49138  0.04094  1.0000
  H   H1980     1.0  0.35027  0.94349  0.30116  1.0000
  H   H1981     1.0  0.36621  0.95583  0.31065  1.0000
  H   H1982     1.0  0.25611  0.87881  0.34045  1.0000
  H   H1983     1.0  0.34043  0.55898  0.07575  1.0000
  C   C1250     1.0  0.27512  0.89236  0.36009  1.0000
  C   C1251     1.0  0.26265  0.90396  0.36565  1.0000
  C   C1252     1.0  0.37043  0.97541  0.22839  1.0000
  H   H1984     1.0  0.36690  0.65502  0.99824  1.0000
  H   H1985     1.0  0.31627  0.90279  0.31383  1.0000
  C   C1253     1.0  0.27267  0.88338  0.35095  1.0000
  H   H1986     1.0  0.26440  0.91093  0.37271  1.0000
  H   H1987     1.0  0.27302  0.56500  0.02292  1.0000
  H   H1988     1.0  0.43252  0.54876  0.00699  1.0000
  H   H1989     1.0  0.34972  0.87529  0.47360  1.0000
  C   C1254     1.0  0.30932  0.97024  0.37793  1.0000
  H   H1990     1.0  0.31868  0.94888  0.43013  1.0000
  H   H1991     1.0  0.29862  0.89828  0.32764  1.0000
  H   H1992     1.0  0.29767  0.58186  0.99885  1.0000
  N   N126      1.0  0.37250  0.98037  0.24179  1.0000
  C   C1255     1.0  0.32523  0.96389  0.37808  1.0000
  C   C1256     1.0  0.24427  0.72702  0.07729  1.0000
  C   C1257     1.0  0.28493  0.58758  0.00046  1.0000
  H   H1993     1.0  0.34582  0.96607  0.38416  1.0000
  H   H1994     1.0  0.33131  0.95366  0.37326  1.0000
  C   C1258     1.0  0.35959  0.89577  0.34135  1.0000
  C   C1259     1.0  0.36768  0.88071  0.33920  1.0000
  C   C1260     1.0  0.36712  0.87561  0.32614  1.0000
  C   C1261     1.0  0.35885  0.88574  0.31498  1.0000
  C   C1262     1.0  0.35086  0.90088  0.31703  1.0000
  C   C1263     1.0  0.35111  0.90584  0.33029  1.0000
  H   H1995     1.0  0.37420  0.87291  0.34776  1.0000
  H   H1996     1.0  0.37335  0.86393  0.32455  1.0000
  H   H1997     1.0  0.34459  0.90878  0.30835  1.0000
  H   H1998     1.0  0.34507  0.91759  0.33179  1.0000
  C   C1264     1.0  0.27764  0.69208  0.10228  1.0000
  C   C1265     1.0  0.29326  0.69142  0.10231  1.0000
  C   C1266     1.0  0.29659  0.70082  0.11051  1.0000
  C   C1267     1.0  0.28435  0.71107  0.11849  1.0000
  C   C1268     1.0  0.26875  0.71159  0.11854  1.0000
  C   C1269     1.0  0.26541  0.70203  0.11060  1.0000
  H   H1999     1.0  0.30276  0.68375  0.09596  1.0000
  H   H2000     1.0  0.30868  0.70032  0.11046  1.0000
  H   H2001     1.0  0.25924  0.71916  0.12497  1.0000
  H   H2002     1.0  0.25330  0.70230  0.11096  1.0000
  C   C1270     1.0  0.27530  0.60389  0.07788  1.0000
  C   C1271     1.0  0.27950  0.60996  0.06175  1.0000
  C   C1272     1.0  0.27468  0.60466  0.05112  1.0000
  C   C1273     1.0  0.26507  0.59370  0.05656  1.0000
  H   H2003     1.0  0.30434  0.94582  0.31239  1.0000
  C   C1274     1.0  0.26151  0.83839  0.29091  1.0000
  H   H2004     1.0  0.28672  0.61857  0.05741  1.0000
  H   H2005     1.0  0.27841  0.60908  0.03861  1.0000
  C   C1275     1.0  0.44305  0.54788  0.01149  1.0000
  H   H2006     1.0  0.35189  0.61987  0.00115  1.0000
  C   C1276     1.0  0.35219  0.90652  0.44702  1.0000
  C   C1277     1.0  0.33699  0.90877  0.45651  1.0000
  C   C1278     1.0  0.32429  0.90716  0.45139  1.0000
  C   C1279     1.0  0.32659  0.90396  0.43650  1.0000
  C   C1280     1.0  0.34168  0.90224  0.42684  1.0000
  C   C1281     1.0  0.35445  0.90327  0.43219  1.0000
  H   H2007     1.0  0.31267  0.90841  0.45898  1.0000
  H   H2008     1.0  0.34361  0.89974  0.41537  1.0000
  H   H2009     1.0  0.36616  0.90151  0.42477  1.0000
  H   H2010     1.0  0.29099  0.93393  0.41767  1.0000
  C   C1282     1.0  0.33352  0.97108  0.38401  1.0000
  C   C1283     1.0  0.24781  0.90645  0.36213  1.0000
  H   H2011     1.0  0.25415  0.71976  0.08298  1.0000
  H   H2012     1.0  0.46832  0.51929  0.99375  1.0000
  C   C1284     1.0  0.38342  0.59381  0.07902  1.0000
  C   C1285     1.0  0.36831  0.59833  0.08817  1.0000
  C   C1286     1.0  0.35777  0.61203  0.08241  1.0000
  C   C1287     1.0  0.36241  0.62133  0.06754  1.0000
  C   C1288     1.0  0.37747  0.61675  0.05842  1.0000
  C   C1289     1.0  0.38786  0.60297  0.06405  1.0000
  H   H2013     1.0  0.36488  0.59138  0.09984  1.0000
  H   H2014     1.0  0.34633  0.61571  0.08966  1.0000
  H   H2015     1.0  0.38125  0.62397  0.04701  1.0000
  H   H2016     1.0  0.39944  0.59959  0.05688  1.0000
  C   C1290     1.0  0.25788  0.88589  0.34740  1.0000
  H   H2017     1.0  0.47194  0.55331  0.00692  1.0000
  H   H2018     1.0  0.42560  0.89111  0.27284  1.0000
  H   H2019     1.0  0.31588  0.95392  0.41037  1.0000
  H   H2020     1.0  0.29450  0.76301  0.17455  1.0000
  C   C1291     1.0  0.42634  0.50932  0.06061  1.0000
  H   H2021     1.0  0.46411  0.60268  0.07129  1.0000
  C   C1292     1.0  0.42311  0.58759  0.00430  1.0000
  H   H2022     1.0  0.32137  0.89510  0.19767  1.0000
  N   N127      1.0  0.29504  0.95058  0.42816  1.0000
  N   N128      1.0  0.39867  0.91529  0.30730  1.0000
  C   C1293     1.0  0.40213  0.57402  0.00866  1.0000
  C   C1294     1.0  0.40985  0.58225  0.01407  1.0000
  H   H2023     1.0  0.40109  0.48793  0.99353  1.0000
  H   H2024     1.0  0.39217  0.56947  0.01641  1.0000
  H   H2025     1.0  0.40569  0.58423  0.02589  1.0000
  C   C1295     1.0  0.47672  0.60172  0.06842  1.0000
  C   C1296     1.0  0.24792  0.79509  0.08380  1.0000
  C   C1297     1.0  0.47025  0.60467  0.02686  1.0000
  H   H2026     1.0  0.29065  0.92399  0.34438  1.0000
  C   C1298     1.0  0.42057  0.57703  0.98354  1.0000
  H   H2027     1.0  0.47305  0.85236  0.25927  1.0000
  H   H2028     1.0  0.24833  0.79638  0.04580  1.0000
  H   H2029     1.0  0.28028  0.93958  0.33139  1.0000
  S   S528      1.0  0.26241  0.84710  0.30553  1.0000
  H   H2030     1.0  0.27672  0.92012  0.33612  1.0000
  S   S529      1.0  0.45345  0.52113  0.04926  1.0000
  C   C1299     1.0  0.42814  0.58548  0.98885  1.0000
  H   H2031     1.0  0.36924  0.62137  0.01778  1.0000
  H   H2032     1.0  0.25412  0.58878  0.01247  1.0000
  C   C1300     1.0  0.45758  0.52471  0.00163  1.0000
  H   H2033     1.0  0.31274  0.90418  0.33390  1.0000
  H   H2034     1.0  0.32277  0.73484  0.17356  1.0000
  H   H2035     1.0  0.30070  0.92284  0.29575  1.0000
  C   C1301     1.0  0.28497  0.73882  0.17139  1.0000
  H   H2036     1.0  0.28109  0.59051  0.01228  1.0000
  H   H2037     1.0  0.45705  0.51727  0.01375  1.0000
  N   N129      1.0  0.30338  0.90391  0.18416  1.0000
  H   H2038     1.0  0.27888  0.90989  0.19541  1.0000
  C   C1302     1.0  0.29018  0.90208  0.19795  1.0000
  H   H2039     1.0  0.30532  0.73632  0.18898  1.0000
  H   H2040     1.0  0.31636  0.88033  0.19147  1.0000
  H   H2041     1.0  0.47546  0.89338  0.23869  1.0000
  H   H2042     1.0  0.29035  0.95327  0.40546  1.0000
  C   C1303     1.0  0.28729  0.94668  0.41780  1.0000
  C   C1304     1.0  0.47144  0.54113  0.00713  1.0000
  C   C1305     1.0  0.25889  0.85311  0.15340  1.0000
  H   H2043     1.0  0.29797  0.88855  0.17305  1.0000
  H   H2044     1.0  0.36542  0.63869  0.02543  1.0000
  H   H2045     1.0  0.29256  0.97481  0.41613  1.0000
  S   S530      1.0  0.47308  0.93559  0.27075  1.0000
  C   C1306     1.0  0.41797  0.49744  0.06362  1.0000
  H   H2046     1.0  0.33499  0.59121  0.09580  1.0000
  H   H2047     1.0  0.26534  0.84286  0.14799  1.0000
  C   C1307     1.0  0.25879  0.58575  0.00070  1.0000
  H   H2048     1.0  0.43140  0.49818  0.00685  1.0000
  H   H2049     1.0  0.24784  0.66506  0.08865  1.0000
  H   H2050     1.0  0.29390  0.56783  0.98090  1.0000
  C   C1308     1.0  0.47172  0.86372  0.25053  1.0000
  H   H2051     1.0  0.44893  0.55042  0.98010  1.0000
  H   H2052     1.0  0.24603  0.86206  0.26352  1.0000
  C   C1309     1.0  0.25052  0.90023  0.15090  1.0000
  H   H2053     1.0  0.29421  0.92848  0.44454  1.0000
  H   H2054     1.0  0.29230  0.90497  0.20822  1.0000
  C   C1310     1.0  0.40658  0.49289  0.00012  1.0000
  H   H2055     1.0  0.24866  0.82641  0.16864  1.0000
  C   C1311     1.0  0.26021  0.58808  0.07276  1.0000
  H   H2056     1.0  0.26199  0.63378  0.12103  1.0000
  C   C1312     1.0  0.27712  0.56267  0.01086  1.0000
  N   N130      1.0  0.27550  0.57742  0.99878  1.0000
  S   S531      1.0  0.25265  0.75544  0.11578  1.0000
  H   H2057     1.0  0.31286  0.59697  0.06483  1.0000
  C   C1313     1.0  0.29961  0.90076  0.17061  1.0000
  H   H2058     1.0  0.30882  0.72416  0.15181  1.0000
  C   C1314     1.0  0.34301  0.62948  0.00616  1.0000
  C   C1315     1.0  0.24667  0.82814  0.27898  1.0000
  H   H2059     1.0  0.42068  0.52006  0.06475  1.0000
  H   H2060     1.0  0.31211  0.76159  0.15923  1.0000
  H   H2061     1.0  0.47571  0.88542  0.45226  1.0000
  H   H2062     1.0  0.44718  0.52426  0.99762  1.0000
  H   H2063     1.0  0.24905  0.72919  0.06436  1.0000
  C   C1316     1.0  0.45889  0.55043  0.98506  1.0000
  C   C1317     1.0  0.31056  0.73283  0.17746  1.0000
  H   H2064     1.0  0.25979  0.74397  0.08505  1.0000
  H   H2065     1.0  0.46249  0.87248  0.25653  1.0000
  H   H2066     1.0  0.46016  0.61392  0.02319  1.0000
  H   H2067     1.0  0.34758  0.58256  0.05552  1.0000
  C   C1318     1.0  0.44210  0.50709  0.05258  1.0000
  H   H2068     1.0  0.28839  0.88982  0.20158  1.0000
  H   H2069     1.0  0.32142  0.60511  0.08480  1.0000
  C   C1319     1.0  0.47492  0.59478  0.00341  1.0000
  H   H2070     1.0  0.30916  0.90230  0.15988  1.0000
  H   H2071     1.0  0.47640  0.95859  0.28437  1.0000
  H   H2072     1.0  0.32086  0.57760  0.06108  1.0000
  C   C1320     1.0  0.28604  0.92688  0.33351  1.0000
  H   H2073     1.0  0.30152  0.74342  0.14144  1.0000
  H   H2074     1.0  0.44316  0.55984  0.01229  1.0000
  S   S532      1.0  0.39939  0.55871  0.98786  1.0000
  H   H2075     1.0  0.31523  0.58866  0.09896  1.0000
  H   H2076     1.0  0.33505  0.91141  0.46790  1.0000
  H   H2077     1.0  0.39061  0.90858  0.33243  1.0000
  C   C1321     1.0  0.30117  0.65130  0.99524  1.0000
  H   H2078     1.0  0.46714  0.86217  0.24098  1.0000
  H   H2079     1.0  0.31566  0.92196  0.16992  1.0000
  H   H2080     1.0  0.24354  0.80526  0.31678  1.0000
  H   H2081     1.0  0.47515  0.62378  0.07420  1.0000
  C   C1322     1.0  0.36109  0.64694  0.99572  1.0000
  H   H2082     1.0  0.47743  0.88427  0.47181  1.0000
  S   S533      1.0  0.29668  0.66205  0.02194  1.0000
  H   H2083     1.0  0.47916  0.91207  0.46473  1.0000
  H   H2084     1.0  0.41786  0.89978  0.31723  1.0000
  H   H2085     1.0  0.42301  0.90756  0.29644  1.0000
  H   H2086     1.0  0.33532  0.97212  0.44571  1.0000
  N   N131      1.0  0.31346  0.86562  0.28270  1.0000
  C   C1323     1.0  0.32486  0.86107  0.29297  1.0000
  C   C1324     1.0  0.31928  0.85644  0.27026  1.0000
  C   C1325     1.0  0.31170  0.88255  0.27536  1.0000
  C   C1326     1.0  0.29802  0.86245  0.29213  1.0000
  H   H2087     1.0  0.32085  0.86773  0.30253  1.0000
  H   H2088     1.0  0.33662  0.86344  0.28625  1.0000
  H   H2089     1.0  0.32661  0.84833  0.29864  1.0000
  H   H2090     1.0  0.32062  0.84360  0.27531  1.0000
  H   H2091     1.0  0.48350  0.87923  0.26396  1.0000
  H   H2092     1.0  0.33096  0.85845  0.26297  1.0000
  H   H2093     1.0  0.30334  0.88642  0.26737  1.0000
  H   H2094     1.0  0.32317  0.88534  0.26820  1.0000
  H   H2095     1.0  0.30728  0.88987  0.28435  1.0000
  H   H2096     1.0  0.28911  0.86576  0.28476  1.0000
  H   H2097     1.0  0.29321  0.86911  0.30169  1.0000
  H   H2098     1.0  0.29884  0.84976  0.29779  1.0000
  H   H2099     1.0  0.46534  0.60425  0.99901  1.0000
  H   H2100     1.0  0.34024  0.60165  0.06023  1.0000
  N   N132      1.0  0.45774  0.54103  0.00133  1.0000
  C   C1327     1.0  0.48070  0.97307  0.30395  1.0000
  C   C1328     1.0  0.25354  0.79645  0.06759  1.0000
  H   H2101     1.0  0.35423  0.58721  0.07021  1.0000
  C   C1329     1.0  0.48585  0.91038  0.45280  1.0000
  S   S534      1.0  0.24994  0.74465  0.15400  1.0000
  C   C1330     1.0  0.29084  0.94129  0.44431  1.0000
  H   H2102     1.0  0.38031  0.95681  0.25428  1.0000
  H   H2103     1.0  0.47089  0.53432  0.01947  1.0000
  H   H2104     1.0  0.28848  0.90874  0.16777  1.0000
  C   C1331     1.0  0.35976  0.63102  0.02205  1.0000
  H   H2105     1.0  0.32055  0.73878  0.14598  1.0000
  S   S535      1.0  0.24746  0.90241  0.13209  1.0000
  C   C1332     1.0  0.26552  0.59303  0.08343  1.0000
  H   H2106     1.0  0.39983  0.93936  0.29639  1.0000
  C   C1333     1.0  0.30022  0.75880  0.16343  1.0000
  H   H2107     1.0  0.40311  0.92696  0.28288  1.0000
  H   H2108     1.0  0.29502  0.92889  0.17749  1.0000
  H   H2109     1.0  0.26543  0.79803  0.06222  1.0000
  N   N133      1.0  0.29865  0.92295  0.31992  1.0000
  H   H2110     1.0  0.29311  0.76593  0.15464  1.0000
  H   H2111     1.0  0.26588  0.85368  0.16152  1.0000
  H   H2112     1.0  0.40053  0.89910  0.29308  1.0000
  S   S536      1.0  0.47991  0.57221  0.06282  1.0000
  C   C1334     1.0  0.31001  0.93319  0.31588  1.0000
  C   C1335     1.0  0.33630  0.56638  0.08470  1.0000
  H   H2113     1.0  0.28306  0.91771  0.30893  1.0000
  H   H2114     1.0  0.30728  0.58047  0.07928  1.0000
  N   N134      1.0  0.33070  0.58306  0.07753  1.0000
  H   H2115     1.0  0.37204  0.97102  0.26640  1.0000
  H   H2116     1.0  0.25487  0.75394  0.06636  1.0000
  C   C1336     1.0  0.31230  0.94677  0.42231  1.0000
  H   H2117     1.0  0.48368  0.59124  0.99295  1.0000
  H   H2118     1.0  0.25946  0.78695  0.19874  1.0000
  C   C1337     1.0  0.30835  0.73684  0.15062  1.0000
  S   S537      1.0  0.25996  0.79642  0.09526  1.0000
  H   H2119     1.0  0.37053  0.63766  0.99073  1.0000
  C   C1338     1.0  0.30693  0.90634  0.32391  1.0000
  H   H2120     1.0  0.38358  0.93335  0.29384  1.0000
  S   S538      1.0  0.25609  0.77415  0.17459  1.0000
  H   H2121     1.0  0.25892  0.86393  0.14387  1.0000
  C   C1339     1.0  0.40776  0.57100  0.99354  1.0000
  H   H2122     1.0  0.45305  0.97758  0.29574  1.0000
  H   H2123     1.0  0.31107  0.85971  0.26215  1.0000
  H   H2124     1.0  0.47998  0.88332  0.22296  1.0000
  H   H2125     1.0  0.25039  0.83643  0.18233  1.0000
  Fe  Fe267     1.0  0.36748  0.91630  0.47447  1.0000
  H   H2126     1.0  0.40584  0.49911  0.07009  1.0000
  H   H2127     1.0  0.27794  0.94413  0.44922  1.0000
  C   C1340     1.0  0.33827  0.65276  0.01626  1.0000
  H   H2128     1.0  0.31662  0.93427  0.42141  1.0000
  H   H2129     1.0  0.35864  0.97261  0.23082  1.0000
  C   C1341     1.0  0.25428  0.89376  0.18191  1.0000
  H   H2130     1.0  0.47963  0.62393  0.99985  1.0000
  C   C1342     1.0  0.28973  0.96752  0.42819  1.0000
  H   H2131     1.0  0.27453  0.56583  0.98139  1.0000
  H   H2132     1.0  0.47445  0.96331  0.31004  1.0000
  H   H2133     1.0  0.35214  0.62567  0.03303  1.0000
  C   C1343     1.0  0.37100  0.96755  0.25593  1.0000
  H   H2134     1.0  0.47713  0.91338  0.44528  1.0000
  C   C1344     1.0  0.48434  0.88311  0.45974  1.0000
  H   H2135     1.0  0.28960  0.55614  0.00970  1.0000
  C   C1345     1.0  0.48300  0.61363  0.07010  1.0000
  H   H2136     1.0  0.27000  0.55480  0.01005  1.0000
  H   H2137     1.0  0.25914  0.65465  0.11924  1.0000
  H   H2138     1.0  0.29553  0.97089  0.43571  1.0000
  H   H2139     1.0  0.25718  0.59695  0.99180  1.0000
  H   H2140     1.0  0.33514  0.62391  0.01676  1.0000
  H   H2141     1.0  0.32823  0.98129  0.34640  1.0000
  C   C1346     1.0  0.48195  0.96882  0.27851  1.0000
  H   H2142     1.0  0.34344  0.66081  0.01966  1.0000
  H   H2143     1.0  0.35944  0.96419  0.25871  1.0000
  H   H2144     1.0  0.37841  0.86635  0.46762  1.0000
  H   H2145     1.0  0.24942  0.82967  0.08391  1.0000
  C   C1347     1.0  0.24322  0.83688  0.17396  1.0000
  H   H2146     1.0  0.47534  0.60918  0.03416  1.0000
  H   H2147     1.0  0.45877  0.56289  0.98443  1.0000
  H   H2148     1.0  0.46540  0.59449  0.03464  1.0000
  H   H2149     1.0  0.49010  0.57689  0.02652  1.0000
  H   H2150     1.0  0.35529  0.97110  0.44619  1.0000
  H   H2151     1.0  0.27675  0.97082  0.43257  1.0000
  H   H2152     1.0  0.43655  0.48452  0.98481  1.0000
  C   C1348     1.0  0.24989  0.75083  0.07922  1.0000
  H   H2153     1.0  0.47868  0.97380  0.26686  1.0000
  C   C1349     1.0  0.37869  0.86826  0.47916  1.0000
  H   H2154     1.0  0.47732  0.98165  0.31166  1.0000
  H   H2155     1.0  0.25082  0.87843  0.24808  1.0000
  C   C1350     1.0  0.24391  0.79547  0.05833  1.0000
  C   C1351     1.0  0.24668  0.83700  0.07253  1.0000
  H   H2156     1.0  0.24616  0.62381  0.10927  1.0000
  C   C1352     1.0  0.24291  0.63587  0.10211  1.0000
  H   H2157     1.0  0.48271  0.53590  0.99980  1.0000
  N   N135      1.0  0.48678  0.86896  0.24427  1.0000
  H   H2158     1.0  0.24523  0.76202  0.08338  1.0000
  C   C1353     1.0  0.33788  0.98170  0.28372  1.0000
  C   C1354     1.0  0.48432  0.88420  0.23296  1.0000
  C   C1355     1.0  0.48682  0.58835  0.06359  1.0000
  S   S539      1.0  0.49119  0.89909  0.28103  1.0000
  C   C1356     1.0  0.48895  0.61373  0.00359  1.0000
  H   H2159     1.0  0.49063  0.58137  0.11464  1.0000
  S   S540      1.0  0.49107  0.92917  0.30680  1.0000
  H   H2160     1.0  0.44293  0.96901  0.47893  1.0000
  H   H2161     1.0  0.43836  0.58967  0.98124  1.0000
  C   C1357     1.0  0.24161  0.90533  0.17724  1.0000
  C   C1358     1.0  0.38830  0.98389  0.23811  1.0000
  H   H2162     1.0  0.24145  0.86599  0.17764  1.0000
  C   C1359     1.0  0.30187  0.98418  0.38314  1.0000
  H   H2163     1.0  0.34687  0.98415  0.33404  1.0000
  Fe  Fe268     1.0  0.41376  0.54996  0.96625  1.0000
  S   S541      1.0  0.41839  0.49647  0.95996  1.0000
  Fe  Fe269     1.0  0.41911  0.55360  0.93124  1.0000
  S   S542      1.0  0.41272  0.56882  0.90871  1.0000
  H   H2164     1.0  0.26947  0.89984  0.77286  1.0000
  S   S543      1.0  0.40311  0.54131  0.95156  1.0000
  H   H2165     1.0  0.25223  0.76953  0.78338  1.0000
  C   C1360     1.0  0.40865  0.96631  0.71252  1.0000
  H   H2166     1.0  0.35562  0.96020  0.66387  1.0000
  C   C1361     1.0  0.46883  0.59010  0.90062  1.0000
  C   C1362     1.0  0.26998  0.73512  0.83086  1.0000
  N   N136      1.0  0.36398  0.86623  0.49095  1.0000
  S   S544      1.0  0.36920  0.93270  0.50918  1.0000
  H   H2167     1.0  0.35151  0.88959  0.48278  1.0000
  H   H2168     1.0  0.27243  0.88501  0.59883  1.0000
  C   C1363     1.0  0.31331  0.93913  0.56863  1.0000
  H   H2169     1.0  0.33182  0.95529  0.65861  1.0000
  Fe  Fe270     1.0  0.36651  0.90883  0.50948  1.0000
  S   S545      1.0  0.36523  0.89096  0.53236  1.0000
  H   H2170     1.0  0.32017  0.96731  0.55678  1.0000
  N   N137      1.0  0.40794  0.96789  0.69605  1.0000
  Fe  Fe271     1.0  0.29748  0.90283  0.60364  1.0000
  S   S546      1.0  0.27857  0.92418  0.60737  1.0000
  S   S547      1.0  0.29914  0.89765  0.58024  1.0000
  Fe  Fe272     1.0  0.30470  0.89805  0.63569  1.0000
  S   S548      1.0  0.28621  0.91900  0.64166  1.0000
  S   S549      1.0  0.31781  0.88440  0.65471  1.0000
  Fe  Fe273     1.0  0.27123  0.90993  0.63161  1.0000
  H   H2171     1.0  0.38919  0.86004  0.48311  1.0000
  Fe  Fe274     1.0  0.29555  0.93091  0.61686  1.0000
  S   S550      1.0  0.28908  0.88805  0.62737  1.0000
  S   S551      1.0  0.31512  0.91043  0.61142  1.0000
  Fe  Fe275     1.0  0.38379  0.91772  0.71175  1.0000
  S   S552      1.0  0.36531  0.92542  0.73203  1.0000
  S   S553      1.0  0.40983  0.90849  0.71119  1.0000
  Fe  Fe276     1.0  0.35959  0.92354  0.69178  1.0000
  S   S554      1.0  0.33923  0.93111  0.71072  1.0000
  S   S555      1.0  0.35559  0.92714  0.66758  1.0000
  Fe  Fe277     1.0  0.35497  0.94475  0.71378  1.0000
  Fe  Fe278     1.0  0.35146  0.91096  0.72694  1.0000
  S   S556      1.0  0.33960  0.89441  0.74734  1.0000
  S   S557      1.0  0.37475  0.93833  0.69389  1.0000
  S   S558      1.0  0.37054  0.90208  0.70761  1.0000
  Fe  Fe279     1.0  0.47533  0.93676  0.72870  1.0000
  H   H2172     1.0  0.25298  0.91870  0.59478  1.0000
  S   S559      1.0  0.44938  0.93752  0.73954  1.0000
  H   H2173     1.0  0.33425  0.93324  0.58664  1.0000
  H   H2174     1.0  0.32894  0.94805  0.53898  1.0000
  N   N138      1.0  0.32925  0.94251  0.56360  1.0000
  S   S560      1.0  0.43327  0.52863  0.96868  1.0000
  C   C1364     1.0  0.26660  0.86764  0.68939  1.0000
  H   H2175     1.0  0.45294  0.96461  0.51737  1.0000
  H   H2176     1.0  0.32341  0.96083  0.57639  1.0000
  H   H2177     1.0  0.35372  0.86829  0.51501  1.0000
  Fe  Fe280     1.0  0.29974  0.59754  0.94000  1.0000
  S   S561      1.0  0.28640  0.61412  0.95569  1.0000
  S   S562      1.0  0.29098  0.57565  0.94315  1.0000
  Fe  Fe281     1.0  0.32498  0.61655  0.92505  1.0000
  S   S563      1.0  0.31324  0.63514  0.93931  1.0000
  S   S564      1.0  0.34714  0.61711  0.90605  1.0000
  Fe  Fe282     1.0  0.30971  0.61440  0.95931  1.0000
  H   H2178     1.0  0.38355  0.96677  0.70159  1.0000
  Fe  Fe283     1.0  0.29081  0.63328  0.93427  1.0000
  S   S565      1.0  0.26800  0.65089  0.93130  1.0000
  S   S566      1.0  0.32288  0.59604  0.94535  1.0000
  S   S567      1.0  0.30282  0.61648  0.91828  1.0000
  N   N139      1.0  0.33200  0.97375  0.66919  1.0000
  H   H2179     1.0  0.26007  0.88338  0.57837  1.0000
  H   H2180     1.0  0.29986  0.73620  0.84612  1.0000
  H   H2181     1.0  0.25553  0.92543  0.73742  1.0000
  H   H2182     1.0  0.33331  0.59028  0.91310  1.0000
  C   C1365     1.0  0.46856  0.57369  0.94560  1.0000
  H   H2183     1.0  0.46616  0.59828  0.94469  1.0000
  C   C1366     1.0  0.42669  0.92743  0.48637  1.0000
  C   C1367     1.0  0.45460  0.90867  0.49534  1.0000
  C   C1368     1.0  0.35576  0.97831  0.72203  1.0000
  S   S568      1.0  0.26257  0.70611  0.87075  1.0000
  H   H2184     1.0  0.46745  0.60300  0.89595  1.0000
  H   H2185     1.0  0.42083  0.96117  0.71444  1.0000
  H   H2186     1.0  0.43901  0.58477  0.88793  1.0000
  S   S569      1.0  0.25818  0.85856  0.73731  1.0000
  H   H2187     1.0  0.41308  0.95293  0.67968  1.0000
  C   C1369     1.0  0.26960  0.89536  0.73680  1.0000
  S   S570      1.0  0.40941  0.93992  0.48106  1.0000
  C   C1370     1.0  0.47901  0.55919  0.94479  1.0000
  H   H2188     1.0  0.34690  0.58821  0.89492  1.0000
  H   H2189     1.0  0.46998  0.54570  0.97716  1.0000
  Fe  Fe284     1.0  0.26139  0.82937  0.77649  1.0000
  S   S571      1.0  0.27536  0.82341  0.75337  1.0000
  C   C1371     1.0  0.33722  0.58332  0.90384  1.0000
  H   H2190     1.0  0.28219  0.84769  0.71103  1.0000
  H   H2191     1.0  0.24144  0.67182  0.92012  1.0000
  H   H2192     1.0  0.37216  0.84132  0.49836  1.0000
  Fe  Fe285     1.0  0.25277  0.83479  0.74532  1.0000
  N   N140      1.0  0.34245  0.56642  0.91052  1.0000
  Fe  Fe286     1.0  0.27971  0.84787  0.74718  1.0000
  S   S572      1.0  0.30073  0.85581  0.72974  1.0000
  C   C1372     1.0  0.36463  0.86959  0.50579  1.0000
  S   S573      1.0  0.26776  0.85304  0.77103  1.0000
  N   N141      1.0  0.43591  0.97181  0.50284  1.0000
  C   C1373     1.0  0.32475  0.96137  0.66825  1.0000
  H   H2193     1.0  0.45377  0.98031  0.48366  1.0000
  H   H2194     1.0  0.41674  0.90703  0.49755  1.0000
  C   C1374     1.0  0.28465  0.75548  0.82391  1.0000
  S   S574      1.0  0.34577  0.97062  0.71291  1.0000
  H   H2195     1.0  0.29505  0.90080  0.74211  1.0000
  H   H2196     1.0  0.35333  0.97560  0.67392  1.0000
  S   S575      1.0  0.48942  0.92324  0.51679  1.0000
  H   H2197     1.0  0.34155  0.97922  0.64433  1.0000
  C   C1375     1.0  0.44118  0.90239  0.49880  1.0000
  Fe  Fe287     1.0  0.35189  0.94118  0.49359  1.0000
  C   C1376     1.0  0.24832  0.88622  0.58630  1.0000
  S   S576      1.0  0.30236  0.95452  0.60744  1.0000
  H   H2198     1.0  0.30051  0.72551  0.83182  1.0000
  H   H2199     1.0  0.30765  0.94074  0.58082  1.0000
  H   H2200     1.0  0.24577  0.59396  0.94895  1.0000
  C   C1377     1.0  0.47429  0.58705  0.94429  1.0000
  H   H2201     1.0  0.36525  0.95588  0.73561  1.0000
  S   S577      1.0  0.34758  0.91742  0.49565  1.0000
  C   C1378     1.0  0.39155  0.97463  0.69414  1.0000
  H   H2202     1.0  0.25769  0.87623  0.61360  1.0000
  C   C1379     1.0  0.28933  0.96221  0.63635  1.0000
  H   H2203     1.0  0.26079  0.89472  0.61436  1.0000
  H   H2204     1.0  0.27460  0.76448  0.81979  1.0000
  H   H2205     1.0  0.30007  0.84184  0.69754  1.0000
  C   C1380     1.0  0.44303  0.97455  0.51442  1.0000
  H   H2206     1.0  0.44583  0.56348  0.91008  1.0000
  H   H2207     1.0  0.24428  0.91768  0.57963  1.0000
  H   H2208     1.0  0.25860  0.75840  0.84681  1.0000
  C   C1381     1.0  0.42716  0.91182  0.49452  1.0000
  H   H2209     1.0  0.34821  0.94298  0.54305  1.0000
  H   H2210     1.0  0.26240  0.79355  0.77898  1.0000
  H   H2211     1.0  0.30368  0.86916  0.68965  1.0000
  Fe  Fe288     1.0  0.38747  0.93027  0.48697  1.0000
  H   H2212     1.0  0.28605  0.85119  0.66831  1.0000
  H   H2213     1.0  0.35747  0.56179  0.88863  1.0000
  H   H2214     1.0  0.34014  0.91922  0.57432  1.0000
  H   H2215     1.0  0.40556  0.94414  0.69968  1.0000
  H   H2216     1.0  0.34658  0.95799  0.68438  1.0000
  H   H2217     1.0  0.25858  0.62280  0.93083  1.0000
  Fe  Fe289     1.0  0.24584  0.86194  0.76148  1.0000
  C   C1382     1.0  0.33627  0.94027  0.54735  1.0000
  H   H2218     1.0  0.25935  0.74352  0.82745  1.0000
  H   H2219     1.0  0.30546  0.94697  0.56079  1.0000
  H   H2220     1.0  0.42082  0.95814  0.52071  1.0000
  H   H2221     1.0  0.25876  0.88856  0.76800  1.0000
  H   H2222     1.0  0.33750  0.92793  0.54656  1.0000
  H   H2223     1.0  0.26441  0.74004  0.85996  1.0000
  H   H2224     1.0  0.45952  0.58231  0.87847  1.0000
  H   H2225     1.0  0.35136  0.93386  0.57080  1.0000
  H   H2226     1.0  0.43953  0.49196  0.92957  1.0000
  H   H2227     1.0  0.43421  0.97611  0.52551  1.0000
  H   H2228     1.0  0.27984  0.58449  0.97363  1.0000
  S   S578      1.0  0.24540  0.91022  0.64207  1.0000
  C   C1383     1.0  0.26040  0.88762  0.60630  1.0000
  Fe  Fe290     1.0  0.44694  0.54221  0.94710  1.0000
  H   H2229     1.0  0.33909  0.87604  0.49348  1.0000
  H   H2230     1.0  0.28383  0.95230  0.63942  1.0000
  C   C1384     1.0  0.26680  0.66571  0.91404  1.0000
  C   C1385     1.0  0.28029  0.66922  0.90297  1.0000
  C   C1386     1.0  0.27885  0.68158  0.88969  1.0000
  C   C1387     1.0  0.26394  0.69031  0.88725  1.0000
  C   C1388     1.0  0.25047  0.68658  0.89818  1.0000
  C   C1389     1.0  0.25191  0.67441  0.91158  1.0000
  H   H2231     1.0  0.29181  0.66261  0.90478  1.0000
  H   H2232     1.0  0.28933  0.68439  0.88130  1.0000
  H   H2233     1.0  0.46173  0.97586  0.72502  1.0000
  C   C1390     1.0  0.34755  0.55763  0.89782  1.0000
  H   H2234     1.0  0.28876  0.72120  0.85135  1.0000
  H   H2235     1.0  0.24732  0.56007  0.93361  1.0000
  H   H2236     1.0  0.44188  0.97419  0.72737  1.0000
  S   S579      1.0  0.43938  0.53251  0.93062  1.0000
  C   C1391     1.0  0.28431  0.91043  0.74309  1.0000
  C   C1392     1.0  0.26895  0.74935  0.85018  1.0000
  C   C1393     1.0  0.25282  0.91100  0.58717  1.0000
  C   C1394     1.0  0.35066  0.97289  0.50784  1.0000
  C   C1395     1.0  0.25581  0.91726  0.74907  1.0000
  H   H2237     1.0  0.28868  0.88486  0.68249  1.0000
  C   C1396     1.0  0.27640  0.57772  0.93286  1.0000
  C   C1397     1.0  0.27406  0.59035  0.92019  1.0000
  C   C1398     1.0  0.26230  0.59191  0.91218  1.0000
  H   H2238     1.0  0.32045  0.97375  0.69335  1.0000
  C   C1399     1.0  0.25477  0.56849  0.92980  1.0000
  C   C1400     1.0  0.26679  0.56673  0.93761  1.0000
  H   H2239     1.0  0.28142  0.59884  0.91638  1.0000
  H   H2240     1.0  0.37478  0.86168  0.51066  1.0000
  C   C1401     1.0  0.25612  0.78868  0.79055  1.0000
  H   H2241     1.0  0.26852  0.55694  0.94743  1.0000
  H   H2242     1.0  0.32384  0.95221  0.67934  1.0000
  H   H2243     1.0  0.47231  0.58736  0.91212  1.0000
  H   H2244     1.0  0.44390  0.59093  0.92493  1.0000
  C   C1402     1.0  0.32858  0.88394  0.74240  1.0000
  C   C1403     1.0  0.31921  0.87476  0.75437  1.0000
  C   C1404     1.0  0.31046  0.86620  0.75064  1.0000
  C   C1405     1.0  0.31121  0.86664  0.73491  1.0000
  C   C1406     1.0  0.32050  0.87589  0.72295  1.0000
  C   C1407     1.0  0.32907  0.88462  0.72668  1.0000
  H   H2245     1.0  0.31882  0.87417  0.76655  1.0000
  H   H2246     1.0  0.30345  0.85895  0.75991  1.0000
  H   H2247     1.0  0.32113  0.87629  0.71076  1.0000
  H   H2248     1.0  0.33622  0.89170  0.71736  1.0000
  C   C1408     1.0  0.42055  0.91670  0.71923  1.0000
  C   C1409     1.0  0.43696  0.91435  0.71385  1.0000
  C   C1410     1.0  0.44591  0.92080  0.71987  1.0000
  C   C1411     1.0  0.43853  0.92934  0.73161  1.0000
  C   C1412     1.0  0.42211  0.93155  0.73712  1.0000
  C   C1413     1.0  0.41311  0.92540  0.73084  1.0000
  H   H2249     1.0  0.44281  0.90759  0.70490  1.0000
  H   H2250     1.0  0.45855  0.91898  0.71559  1.0000
  H   H2251     1.0  0.41634  0.93813  0.74624  1.0000
  H   H2252     1.0  0.40048  0.92724  0.73512  1.0000
  C   C1414     1.0  0.36498  0.96831  0.73242  1.0000
  C   C1415     1.0  0.33519  0.97234  0.50849  1.0000
  C   C1416     1.0  0.44805  0.97005  0.48831  1.0000
  S   S580      1.0  0.47218  0.89667  0.50046  1.0000
  H   H2253     1.0  0.44153  0.89030  0.50502  1.0000
  C   C1417     1.0  0.33921  0.93173  0.57430  1.0000
  H   H2254     1.0  0.25908  0.87670  0.64294  1.0000
  C   C1418     1.0  0.44120  0.59326  0.91314  1.0000
  C   C1419     1.0  0.32815  0.95892  0.56418  1.0000
  H   H2255     1.0  0.35227  0.57058  0.92767  1.0000
  C   C1420     1.0  0.32778  0.89643  0.65885  1.0000
  C   C1421     1.0  0.32946  0.91086  0.64865  1.0000
  C   C1422     1.0  0.33795  0.92018  0.65153  1.0000
  C   C1423     1.0  0.34450  0.91533  0.66484  1.0000
  C   C1424     1.0  0.34243  0.90113  0.67537  1.0000
  C   C1425     1.0  0.33422  0.89159  0.67228  1.0000
  H   H2256     1.0  0.32446  0.91476  0.63835  1.0000
  H   H2257     1.0  0.33948  0.93115  0.64335  1.0000
  H   H2258     1.0  0.34750  0.89730  0.68565  1.0000
  H   H2259     1.0  0.33296  0.88044  0.68021  1.0000
  Fe  Fe291     1.0  0.49069  0.90953  0.49919  1.0000
  C   C1426     1.0  0.34688  0.89346  0.54565  1.0000
  C   C1427     1.0  0.33291  0.89919  0.54020  1.0000
  C   C1428     1.0  0.31832  0.90032  0.55094  1.0000
  C   C1429     1.0  0.31763  0.89615  0.56716  1.0000
  C   C1430     1.0  0.33159  0.89089  0.57264  1.0000
  C   C1431     1.0  0.34620  0.88930  0.56188  1.0000
  H   H2260     1.0  0.33331  0.90234  0.52774  1.0000
  H   H2261     1.0  0.30755  0.90445  0.54666  1.0000
  H   H2262     1.0  0.33113  0.88760  0.58515  1.0000
  H   H2263     1.0  0.35698  0.88481  0.56615  1.0000
  H   H2264     1.0  0.36037  0.96709  0.49991  1.0000
  H   H2265     1.0  0.27877  0.96888  0.65864  1.0000
  H   H2266     1.0  0.42489  0.57496  0.97185  1.0000
  H   H2267     1.0  0.43912  0.94679  0.51179  1.0000
  C   C1432     1.0  0.24616  0.78920  0.81811  1.0000
  H   H2268     1.0  0.46644  0.56114  0.90116  1.0000
  C   C1433     1.0  0.29069  0.87328  0.69084  1.0000
  N   N142      1.0  0.24858  0.89608  0.59673  1.0000
  H   H2269     1.0  0.32715  0.58557  0.89816  1.0000
  C   C1434     1.0  0.26949  0.89358  0.76389  1.0000
  H   H2270     1.0  0.43071  0.97362  0.68670  1.0000
  H   H2271     1.0  0.35113  0.84802  0.50267  1.0000
  H   H2272     1.0  0.42355  0.95533  0.50127  1.0000
  H   H2273     1.0  0.40465  0.97787  0.71601  1.0000
  H   H2274     1.0  0.33777  0.55908  0.89198  1.0000
  C   C1435     1.0  0.32187  0.98198  0.68164  1.0000
  H   H2275     1.0  0.36014  0.55153  0.92305  1.0000
  S   S581      1.0  0.42799  0.56409  0.94582  1.0000
  H   H2276     1.0  0.41801  0.97984  0.67298  1.0000
  H   H2277     1.0  0.29238  0.75092  0.81352  1.0000
  C   C1436     1.0  0.39430  0.58212  0.90905  1.0000
  C   C1437     1.0  0.39101  0.59127  0.89469  1.0000
  C   C1438     1.0  0.37660  0.60199  0.89413  1.0000
  C   C1439     1.0  0.36516  0.60365  0.90791  1.0000
  C   C1440     1.0  0.36834  0.59454  0.92241  1.0000
  C   C1441     1.0  0.38295  0.58376  0.92299  1.0000
  H   H2278     1.0  0.39969  0.59011  0.88389  1.0000
  H   H2279     1.0  0.37429  0.60902  0.88291  1.0000
  H   H2280     1.0  0.35964  0.59590  0.93315  1.0000
  H   H2281     1.0  0.38542  0.57680  0.93417  1.0000
  H   H2282     1.0  0.45608  0.57464  0.94721  1.0000
  N   N143      1.0  0.26981  0.90417  0.74821  1.0000
  Fe  Fe292     1.0  0.42392  0.52082  0.95218  1.0000
  H   H2283     1.0  0.28489  0.91859  0.73135  1.0000
  H   H2284     1.0  0.43894  0.60620  0.90854  1.0000
  H   H2285     1.0  0.24659  0.85457  0.64564  1.0000
  H   H2286     1.0  0.28562  0.87515  0.70302  1.0000
  H   H2287     1.0  0.42547  0.94659  0.69373  1.0000
  H   H2288     1.0  0.28862  0.87111  0.66260  1.0000
  H   H2289     1.0  0.44928  0.97245  0.74428  1.0000
  C   C1442     1.0  0.44947  0.97893  0.73188  1.0000
  H   H2290     1.0  0.26478  0.90890  0.57938  1.0000
  H   H2291     1.0  0.42999  0.58950  0.91484  1.0000
  H   H2292     1.0  0.46421  0.92931  0.48465  1.0000
  H   H2293     1.0  0.39058  0.97640  0.68177  1.0000
  C   C1443     1.0  0.29269  0.73092  0.84167  1.0000
  N   N144      1.0  0.39100  0.87438  0.75022  1.0000
  C   C1444     1.0  0.40817  0.87058  0.74920  1.0000
  C   C1445     1.0  0.38340  0.86338  0.76357  1.0000
  C   C1446     1.0  0.38797  0.87307  0.73547  1.0000
  C   C1447     1.0  0.38438  0.89059  0.75255  1.0000
  H   H2294     1.0  0.41363  0.85845  0.74733  1.0000
  H   H2295     1.0  0.41092  0.87153  0.76009  1.0000
  H   H2296     1.0  0.41413  0.87880  0.73918  1.0000
  H   H2297     1.0  0.37040  0.86608  0.76451  1.0000
  H   H2298     1.0  0.38805  0.85101  0.76220  1.0000
  H   H2299     1.0  0.38534  0.86409  0.77493  1.0000
  H   H2300     1.0  0.39259  0.86094  0.73341  1.0000
  H   H2301     1.0  0.39376  0.88106  0.72512  1.0000
  H   H2302     1.0  0.37510  0.87617  0.73572  1.0000
  H   H2303     1.0  0.37143  0.89393  0.75320  1.0000
  H   H2304     1.0  0.38996  0.89917  0.74272  1.0000
  H   H2305     1.0  0.38633  0.89204  0.76361  1.0000
  H   H2306     1.0  0.30392  0.85560  0.66937  1.0000
  H   H2307     1.0  0.38113  0.96658  0.74668  1.0000
  H   H2308     1.0  0.40097  0.95850  0.72078  1.0000
  H   H2309     1.0  0.29140  0.76165  0.82789  1.0000
  C   C1448     1.0  0.45008  0.58852  0.88688  1.0000
  H   H2310     1.0  0.35166  0.54483  0.90242  1.0000
  H   H2311     1.0  0.26589  0.72520  0.84002  1.0000
  C   C1449     1.0  0.37393  0.97438  0.73870  1.0000
  C   C1450     1.0  0.42960  0.95738  0.50944  1.0000
  S   S582      1.0  0.38634  0.90551  0.48848  1.0000
  H   H2312     1.0  0.31269  0.96633  0.66598  1.0000
  C   C1451     1.0  0.45401  0.92432  0.48735  1.0000
  H   H2313     1.0  0.26365  0.87909  0.68109  1.0000
  C   C1452     1.0  0.25035  0.77510  0.79307  1.0000
  S   S583      1.0  0.33143  0.96136  0.49733  1.0000
  C   C1453     1.0  0.35044  0.87721  0.48498  1.0000
  S   S584      1.0  0.26127  0.81272  0.80021  1.0000
  H   H2314     1.0  0.24470  0.91281  0.75301  1.0000
  S   S585      1.0  0.48717  0.95041  0.73751  1.0000
  H   H2315     1.0  0.27707  0.73034  0.82039  1.0000
  H   H2316     1.0  0.24446  0.79469  0.82782  1.0000
  C   C1454     1.0  0.29902  0.96583  0.62148  1.0000
  H   H2317     1.0  0.27969  0.88508  0.73623  1.0000
  H   H2318     1.0  0.36158  0.84705  0.48284  1.0000
  S   S586      1.0  0.47240  0.54219  0.94572  1.0000
  C   C1455     1.0  0.24643  0.87865  0.64494  1.0000
  N   N145      1.0  0.28382  0.86182  0.68754  1.0000
  C   C1456     1.0  0.28717  0.84656  0.69863  1.0000
  H   H2319     1.0  0.45757  0.95942  0.49049  1.0000
  H   H2320     1.0  0.44819  0.60133  0.88159  1.0000
  C   C1457     1.0  0.24726  0.60205  0.95544  1.0000
  H   H2321     1.0  0.28506  0.91690  0.75156  1.0000
  H   H2322     1.0  0.26013  0.60115  0.95350  1.0000
  S   S587      1.0  0.48157  0.94917  0.70354  1.0000
  H   H2323     1.0  0.26070  0.60161  0.90224  1.0000
  C   C1458     1.0  0.45657  0.56782  0.90883  1.0000
  H   H2324     1.0  0.31365  0.98152  0.60621  1.0000
  C   C1459     1.0  0.25397  0.79582  0.80306  1.0000
  N   N146      1.0  0.27908  0.74273  0.83665  1.0000
  C   C1460     1.0  0.29089  0.85979  0.67125  1.0000
  H   H2325     1.0  0.25863  0.89081  0.74010  1.0000
  H   H2326     1.0  0.27990  0.88358  0.76372  1.0000
  C   C1461     1.0  0.35576  0.56415  0.91796  1.0000
  H   H2327     1.0  0.47887  0.58411  0.89251  1.0000
  H   H2328     1.0  0.33987  0.96215  0.55986  1.0000
  H   H2329     1.0  0.31879  0.56260  0.91741  1.0000
  C   C1462     1.0  0.34762  0.96659  0.67296  1.0000
  C   C1463     1.0  0.41825  0.97838  0.68552  1.0000
  C   C1464     1.0  0.36214  0.84992  0.49383  1.0000
  H   H2330     1.0  0.45943  0.56467  0.92062  1.0000
  C   C1465     1.0  0.25257  0.58106  0.91701  1.0000
  H   H2331     1.0  0.27548  0.75504  0.85497  1.0000
  H   H2332     1.0  0.24357  0.61694  0.92575  1.0000
  H   H2333     1.0  0.32536  0.56686  0.93235  1.0000
  H   H2334     1.0  0.36586  0.56858  0.90934  1.0000
  H   H2335     1.0  0.33263  0.54787  0.92757  1.0000
  C   C1466     1.0  0.41328  0.95224  0.69207  1.0000
  H   H2336     1.0  0.28201  0.83763  0.69665  1.0000
  H   H2337     1.0  0.31369  0.92682  0.56850  1.0000
  H   H2338     1.0  0.30590  0.64269  0.97404  1.0000
  N   N147      1.0  0.45418  0.58494  0.90236  1.0000
  C   C1467     1.0  0.32926  0.56065  0.92245  1.0000
  C   C1468     1.0  0.28642  0.97167  0.64721  1.0000
  H   H2339     1.0  0.27023  0.90286  0.72475  1.0000
  H   H2340     1.0  0.26087  0.86937  0.70153  1.0000
  H   H2341     1.0  0.26102  0.85920  0.68710  1.0000
  H   H2342     1.0  0.25346  0.62861  0.95766  1.0000
  C   C1469     1.0  0.44024  0.93350  0.48255  1.0000
  H   H2343     1.0  0.48750  0.95684  0.57944  1.0000
  S   S588      1.0  0.48594  0.96598  0.49537  1.0000
  S   S589      1.0  0.24583  0.82558  0.72823  1.0000
  C   C1470     1.0  0.30597  0.97884  0.61760  1.0000
  H   H2344     1.0  0.36595  0.88183  0.50400  1.0000
  C   C1471     1.0  0.24562  0.62386  0.93311  1.0000
  C   C1472     1.0  0.32267  0.98020  0.51849  1.0000
  H   H2345     1.0  0.24274  0.59759  0.96821  1.0000
  H   H2346     1.0  0.36561  0.98132  0.51701  1.0000
  C   C1473     1.0  0.35362  0.98107  0.51740  1.0000
  H   H2347     1.0  0.24510  0.87489  0.59325  1.0000
  H   H2348     1.0  0.31069  0.97987  0.51894  1.0000
  C   C1474     1.0  0.49046  0.58601  0.94252  1.0000
  H   H2349     1.0  0.25554  0.92417  0.75759  1.0000
  C   C1475     1.0  0.24223  0.76869  0.80803  1.0000
  H   H2350     1.0  0.41732  0.98367  0.49042  1.0000
  C   C1476     1.0  0.61930  0.45208  0.99776  1.0000
  H   H2351     1.0  0.57706  0.99912  0.33702  1.0000
  H   H2352     1.0  0.53199  0.33604  0.01339  1.0000
  S   S590      1.0  0.65228  0.39240  0.99868  1.0000
  Fe  Fe293     1.0  0.58387  0.37437  0.05468  1.0000
  S   S591      1.0  0.60335  0.35400  0.04960  1.0000
  S   S592      1.0  0.59203  0.39712  0.04826  1.0000
  C   C1477     1.0  0.72760  0.20465  0.08754  1.0000
  S   S593      1.0  0.59793  0.34595  0.01247  1.0000
  Fe  Fe294     1.0  0.67991  0.42166  0.05338  1.0000
  S   S594      1.0  0.65501  0.43183  0.06404  1.0000
  S   S595      1.0  0.68743  0.42567  0.02709  1.0000
  Fe  Fe295     1.0  0.68914  0.40828  0.08510  1.0000
  S   S596      1.0  0.66487  0.41746  0.09829  1.0000
  S   S597      1.0  0.70993  0.39528  0.09636  1.0000
  Fe  Fe296     1.0  0.65655  0.40889  0.08160  1.0000
  S   S598      1.0  0.63806  0.39433  0.09080  1.0000
  Fe  Fe297     1.0  0.66576  0.43954  0.07942  1.0000
  S   S599      1.0  0.65525  0.46386  0.08422  1.0000
  S   S600      1.0  0.68084  0.39800  0.06977  1.0000
  S   S601      1.0  0.69066  0.43113  0.06737  1.0000
  H   H2353     1.0  0.56869  0.24527  0.18428  1.0000
  H   H2354     1.0  0.70236  0.48347  0.08013  1.0000
  S   S602      1.0  0.73748  0.11455  0.07381  1.0000
  C   C1478     1.0  0.61047  0.30720  0.09716  1.0000
  H   H2355     1.0  0.60553  0.07241  0.20385  1.0000
  Fe  Fe298     1.0  0.57571  0.05418  0.38950  1.0000
  S   S603      1.0  0.59782  0.03560  0.39105  1.0000
  S   S604      1.0  0.56306  0.06699  0.40925  1.0000
  Fe  Fe299     1.0  0.57689  0.05235  0.35606  1.0000
  S   S605      1.0  0.59905  0.03377  0.35518  1.0000
  S   S606      1.0  0.56825  0.06033  0.33349  1.0000
  C   C1479     1.0  0.70343  0.20792  0.07937  1.0000
  Fe  Fe300     1.0  0.60720  0.04816  0.36655  1.0000
  S   S607      1.0  0.63265  0.04997  0.35752  1.0000
  S   S608      1.0  0.56452  0.04072  0.37978  1.0000
  S   S609      1.0  0.58588  0.06779  0.36560  1.0000
  H   H2356     1.0  0.70442  0.47692  0.02995  1.0000
  H   H2357     1.0  0.61257  0.07449  0.33682  1.0000
  H   H2358     1.0  0.71091  0.18315  0.26520  1.0000
  S   S610      1.0  0.54236  0.02493  0.27553  1.0000
  H   H2359     1.0  0.51127  0.09178  0.29257  1.0000
  Fe  Fe301     1.0  0.52554  0.04736  0.26789  1.0000
  S   S611      1.0  0.53336  0.07019  0.25480  1.0000
  H   H2360     1.0  0.49498  0.06732  0.44278  1.0000
  C   C1480     1.0  0.60902  0.06847  0.21539  1.0000
  H   H2361     1.0  0.61245  0.23393  0.17590  1.0000
  H   H2362     1.0  0.53697  0.07519  0.32183  1.0000
  H   H2363     1.0  0.52299  0.37874  0.01362  1.0000
  C   C1481     1.0  0.50293  0.98698  0.24165  1.0000
  S   S612      1.0  0.68298  0.10507  0.00396  1.0000
  Fe  Fe302     1.0  0.59131  0.34000  0.07186  1.0000
  H   H2364     1.0  0.51747  0.03754  0.43307  1.0000
  H   H2365     1.0  0.63019  0.06036  0.23373  1.0000
  H   H2366     1.0  0.70716  0.09138  0.25767  1.0000
  H   H2367     1.0  0.51958  0.99995  0.37720  1.0000
  H   H2368     1.0  0.73145  0.04210  0.15622  1.0000
  H   H2369     1.0  0.55836  0.31729  0.01520  1.0000
  H   H2370     1.0  0.58771  0.39478  0.98360  1.0000
  H   H2371     1.0  0.67861  0.09434  0.24408  1.0000
  H   H2372     1.0  0.73650  0.31422  0.30723  1.0000
  H   H2373     1.0  0.61820  0.40714  0.99483  1.0000
  H   H2374     1.0  0.68652  0.19750  0.01865  1.0000
  H   H2375     1.0  0.60697  0.08803  0.38825  1.0000
  H   H2376     1.0  0.67392  0.46734  0.05017  1.0000
  H   H2377     1.0  0.49971  0.35858  0.07573  1.0000
  H   H2378     1.0  0.53516  0.02148  0.35057  1.0000
  H   H2379     1.0  0.72554  0.32333  0.10487  1.0000
  C   C1482     1.0  0.61234  0.40162  0.98915  1.0000
  S   S613      1.0  0.50923  0.04655  0.29175  1.0000
  H   H2380     1.0  0.69387  0.47522  0.00789  1.0000
  N   N148      1.0  0.72081  0.20395  0.07473  1.0000
  H   H2381     1.0  0.67605  0.99472  0.12241  1.0000
  S   S614      1.0  0.71018  0.14642  0.07755  1.0000
  H   H2382     1.0  0.63971  0.47072  0.98076  1.0000
  Fe  Fe303     1.0  0.72356  0.10248  0.09625  1.0000
  S   S615      1.0  0.70055  0.11184  0.08832  1.0000
  H   H2383     1.0  0.68829  0.44462  0.14232  1.0000
  Fe  Fe304     1.0  0.71436  0.12571  0.06682  1.0000
  S   S616      1.0  0.71532  0.13293  0.04061  1.0000
  Fe  Fe305     1.0  0.69853  0.13176  0.09962  1.0000
  S   S617      1.0  0.67628  0.14312  0.11462  1.0000
  C   C1483     1.0  0.52629  0.98433  0.25127  1.0000
  S   S618      1.0  0.72060  0.12153  0.10891  1.0000
  Fe  Fe306     1.0  0.72078  0.33655  0.17352  1.0000
  S   S619      1.0  0.72355  0.31850  0.15989  1.0000
  S   S620      1.0  0.70188  0.35806  0.16752  1.0000
  H   H2384     1.0  0.70281  0.06447  0.27038  1.0000
  H   H2385     1.0  0.52138  0.33257  0.04165  1.0000
  H   H2386     1.0  0.52097  0.04463  0.47047  1.0000
  H   H2387     1.0  0.71768  0.14727  0.26970  1.0000
  H   H2388     1.0  0.72821  0.13500  0.34775  1.0000
  Fe  Fe307     1.0  0.72123  0.30170  0.18329  1.0000
  S   S621      1.0  0.70580  0.28391  0.19123  1.0000
  H   H2389     1.0  0.65177  0.43897  0.01353  1.0000
  S   S622      1.0  0.71690  0.32001  0.19725  1.0000
  Fe  Fe308     1.0  0.66833  0.22222  0.13428  1.0000
  S   S623      1.0  0.67169  0.22686  0.15602  1.0000
  S   S624      1.0  0.68825  0.20586  0.12182  1.0000
  Fe  Fe309     1.0  0.63702  0.24588  0.13494  1.0000
  S   S625      1.0  0.63788  0.25245  0.15678  1.0000
  S   S626      1.0  0.61601  0.25570  0.12363  1.0000
  Fe  Fe310     1.0  0.66339  0.25230  0.14543  1.0000
  S   S627      1.0  0.67673  0.27142  0.14104  1.0000
  Fe  Fe311     1.0  0.64608  0.22635  0.16529  1.0000
  S   S628      1.0  0.63785  0.21331  0.19010  1.0000
  S   S629      1.0  0.66183  0.24765  0.12286  1.0000
  S   S630      1.0  0.64338  0.21977  0.14431  1.0000
  H   H2390     1.0  0.61948  0.33607  0.98284  1.0000
  S   S631      1.0  0.71880  0.99114  0.16777  1.0000
  H   H2391     1.0  0.61708  0.04713  0.24041  1.0000
  Fe  Fe312     1.0  0.68903  0.01401  0.19819  1.0000
  S   S632      1.0  0.70659  0.02518  0.17870  1.0000
  S   S633      1.0  0.67173  0.02596  0.21666  1.0000
  Fe  Fe313     1.0  0.70016  0.01313  0.16367  1.0000
  S   S634      1.0  0.69422  0.02615  0.14039  1.0000
  Fe  Fe314     1.0  0.72337  0.00232  0.18485  1.0000
  H   H2392     1.0  0.72188  0.08367  0.24216  1.0000
  S   S635      1.0  0.68109  0.00378  0.18269  1.0000
  S   S636      1.0  0.70637  0.99197  0.20556  1.0000
  N   N149      1.0  0.60060  0.39347  0.00079  1.0000
  C   C1484     1.0  0.71045  0.23665  0.15155  1.0000
  C   C1485     1.0  0.60197  0.05831  0.42035  1.0000
  C   C1486     1.0  0.72029  0.06179  0.17566  1.0000
  Fe  Fe315     1.0  0.61626  0.13290  0.22293  1.0000
  S   S637      1.0  0.63898  0.13082  0.22946  1.0000
  S   S638      1.0  0.60830  0.15365  0.20419  1.0000
  Fe  Fe316     1.0  0.61215  0.10016  0.24207  1.0000
  S   S639      1.0  0.63486  0.09562  0.24972  1.0000
  S   S640      1.0  0.60167  0.07847  0.25211  1.0000
  Fe  Fe317     1.0  0.62693  0.12001  0.25367  1.0000
  S   S641      1.0  0.63003  0.12202  0.27675  1.0000
  Fe  Fe318     1.0  0.64490  0.10663  0.22501  1.0000
  S   S642      1.0  0.66856  0.09750  0.21062  1.0000
  S   S643      1.0  0.60335  0.12413  0.24775  1.0000
  S   S644      1.0  0.62306  0.10913  0.21676  1.0000
  Fe  Fe319     1.0  0.72113  0.09446  0.32802  1.0000
  S   S645      1.0  0.72614  0.11402  0.30738  1.0000
  H   H2393     1.0  0.58443  0.37978  0.00122  1.0000
  Fe  Fe320     1.0  0.68636  0.10874  0.33660  1.0000
  S   S646      1.0  0.68862  0.12992  0.31697  1.0000
  S   S647      1.0  0.66150  0.10832  0.35103  1.0000
  Fe  Fe321     1.0  0.70368  0.11273  0.30244  1.0000
  S   S648      1.0  0.70111  0.11585  0.27770  1.0000
  Fe  Fe322     1.0  0.71087  0.12986  0.32343  1.0000
  S   S649      1.0  0.71727  0.15346  0.31927  1.0000
  S   S650      1.0  0.70011  0.09142  0.32150  1.0000
  S   S651      1.0  0.70724  0.11031  0.34472  1.0000
  C   C1487     1.0  0.64978  0.12060  0.27682  1.0000
  C   C1488     1.0  0.66141  0.12074  0.26292  1.0000
  C   C1489     1.0  0.67714  0.11951  0.26320  1.0000
  C   C1490     1.0  0.68136  0.11765  0.27744  1.0000
  C   C1491     1.0  0.66977  0.11732  0.29136  1.0000
  C   C1492     1.0  0.65398  0.11906  0.29100  1.0000
  H   H2394     1.0  0.65828  0.12199  0.25194  1.0000
  H   H2395     1.0  0.68602  0.12000  0.25238  1.0000
  H   H2396     1.0  0.67290  0.11573  0.30245  1.0000
  H   H2397     1.0  0.64506  0.11912  0.30178  1.0000
  N   N150      1.0  0.61098  0.06901  0.40803  1.0000
  H   H2398     1.0  0.65389  0.46262  0.99287  1.0000
  H   H2399     1.0  0.69576  0.07188  0.99686  1.0000
  H   H2400     1.0  0.70091  0.17727  0.29418  1.0000
  H   H2401     1.0  0.67522  0.16661  0.27461  1.0000
  H   H2402     1.0  0.53599  0.11040  0.28872  1.0000
  C   C1493     1.0  0.70893  0.17393  0.00817  1.0000
  C   C1494     1.0  0.63911  0.44103  0.01332  1.0000
  C   C1495     1.0  0.63637  0.06036  0.20310  1.0000
  N   N151      1.0  0.52468  0.35464  0.02604  1.0000
  C   C1496     1.0  0.67275  0.04534  0.21515  1.0000
  C   C1497     1.0  0.66542  0.05224  0.22809  1.0000
  C   C1498     1.0  0.66434  0.06821  0.22672  1.0000
  C   C1499     1.0  0.67085  0.07732  0.21251  1.0000
  C   C1500     1.0  0.67873  0.07034  0.19970  1.0000
  C   C1501     1.0  0.67949  0.05439  0.20096  1.0000
  H   H2403     1.0  0.66028  0.04526  0.23913  1.0000
  H   H2404     1.0  0.65852  0.07340  0.23673  1.0000
  H   H2405     1.0  0.68359  0.07742  0.18861  1.0000
  H   H2406     1.0  0.68463  0.04933  0.19076  1.0000
  C   C1502     1.0  0.58118  0.99170  0.34733  1.0000
  C   C1503     1.0  0.52614  0.34872  0.01194  1.0000
  H   H2407     1.0  0.69840  0.08403  0.22275  1.0000
  H   H2408     1.0  0.60635  0.08572  0.42245  1.0000
  C   C1504     1.0  0.73096  0.03300  0.21574  1.0000
  C   C1505     1.0  0.73169  0.02257  0.20652  1.0000
  C   C1506     1.0  0.68631  0.15782  0.27616  1.0000
  H   H2409     1.0  0.68496  0.99652  0.15145  1.0000
  H   H2410     1.0  0.71973  0.04013  0.22024  1.0000
  H   H2411     1.0  0.72100  0.02168  0.20408  1.0000
  C   C1507     1.0  0.63035  0.19637  0.19343  1.0000
  C   C1508     1.0  0.62961  0.18596  0.20815  1.0000
  C   C1509     1.0  0.62311  0.17270  0.21145  1.0000
  C   C1510     1.0  0.61695  0.16995  0.20016  1.0000
  C   C1511     1.0  0.61766  0.18037  0.18542  1.0000
  C   C1512     1.0  0.62450  0.19344  0.18199  1.0000
  H   H2412     1.0  0.63399  0.18820  0.21710  1.0000
  H   H2413     1.0  0.62242  0.16489  0.22292  1.0000
  H   H2414     1.0  0.61291  0.17830  0.17664  1.0000
  H   H2415     1.0  0.62490  0.20141  0.17066  1.0000
  C   C1513     1.0  0.69887  0.27924  0.17711  1.0000
  C   C1514     1.0  0.70395  0.28516  0.16105  1.0000
  C   C1515     1.0  0.69721  0.28244  0.15011  1.0000
  C   C1516     1.0  0.68555  0.27357  0.15512  1.0000
  C   C1517     1.0  0.68092  0.26709  0.17111  1.0000
  C   C1518     1.0  0.68752  0.26999  0.18209  1.0000
  H   H2416     1.0  0.71292  0.29199  0.15707  1.0000
  H   H2417     1.0  0.70098  0.28731  0.13771  1.0000
  H   H2418     1.0  0.67198  0.26017  0.17506  1.0000
  H   H2419     1.0  0.68364  0.26527  0.19451  1.0000
  C   C1519     1.0  0.72317  0.06368  0.11619  1.0000
  H   H2420     1.0  0.50439  0.37297  0.02182  1.0000
  C   C1520     1.0  0.72107  0.03757  0.13204  1.0000
  C   C1521     1.0  0.70540  0.04052  0.13090  1.0000
  C   C1522     1.0  0.69867  0.05497  0.12220  1.0000
  C   C1523     1.0  0.70748  0.06665  0.11501  1.0000
  H   H2421     1.0  0.54194  0.06227  0.46598  1.0000
  H   H2422     1.0  0.72639  0.02635  0.13854  1.0000
  H   H2423     1.0  0.68655  0.05727  0.12124  1.0000
  H   H2424     1.0  0.70217  0.07789  0.10856  1.0000
  C   C1524     1.0  0.67927  0.16032  0.11750  1.0000
  C   C1525     1.0  0.69457  0.16256  0.11443  1.0000
  C   C1526     1.0  0.69713  0.17630  0.11650  1.0000
  C   C1527     1.0  0.68442  0.18807  0.12130  1.0000
  C   C1528     1.0  0.66906  0.18576  0.12467  1.0000
  C   C1529     1.0  0.66649  0.17181  0.12288  1.0000
  H   H2425     1.0  0.70448  0.15371  0.11044  1.0000
  H   H2426     1.0  0.70900  0.17790  0.11412  1.0000
  H   H2427     1.0  0.65917  0.19487  0.12814  1.0000
  H   H2428     1.0  0.65462  0.17014  0.12517  1.0000
  H   H2429     1.0  0.72244  0.17897  0.08236  1.0000
  N   N152      1.0  0.69976  0.07685  0.24712  1.0000
  H   H2430     1.0  0.68035  0.08645  0.26418  1.0000
  H   H2431     1.0  0.73523  0.07142  0.30613  1.0000
  C   C1530     1.0  0.62476  0.05974  0.39882  1.0000
  H   H2432     1.0  0.51354  0.02153  0.46774  1.0000
  H   H2433     1.0  0.51413  0.41036  0.05360  1.0000
  C   C1531     1.0  0.70902  0.08837  0.24607  1.0000
  H   H2434     1.0  0.71479  0.21160  0.13931  1.0000
  H   H2435     1.0  0.67550  0.17168  0.99944  1.0000
  H   H2436     1.0  0.71192  0.17802  0.01725  1.0000
  H   H2437     1.0  0.71037  0.14343  0.29049  1.0000
  H   H2438     1.0  0.50092  0.05485  0.47538  1.0000
  C   C1532     1.0  0.58824  0.40491  0.00882  1.0000
  H   H2439     1.0  0.67144  0.19543  0.01042  1.0000
  C   C1533     1.0  0.50314  0.02973  0.46355  1.0000
  H   H2440     1.0  0.73995  0.29418  0.33718  1.0000
  S   S652      1.0  0.73456  0.07802  0.10799  1.0000
  C   C1534     1.0  0.72297  0.31381  0.28419  1.0000
  H   H2441     1.0  0.63245  0.05120  0.40646  1.0000
  N   N153      1.0  0.50674  0.04517  0.45485  1.0000
  H   H2442     1.0  0.61795  0.37251  0.00674  1.0000
  H   H2443     1.0  0.61396  0.38654  0.01880  1.0000
  H   H2444     1.0  0.69199  0.05366  0.99620  1.0000
  C   C1535     1.0  0.71274  0.15292  0.28000  1.0000
  H   H2445     1.0  0.59332  0.41087  0.01484  1.0000
  H   H2446     1.0  0.62114  0.05293  0.39242  1.0000
  H   H2447     1.0  0.56908  0.01964  0.45159  1.0000
  H   H2448     1.0  0.62629  0.31582  0.98171  1.0000
  H   H2449     1.0  0.50343  0.34663  0.03876  1.0000
  H   H2450     1.0  0.70457  0.25441  0.12348  1.0000
  H   H2451     1.0  0.59755  0.05105  0.41514  1.0000
  Fe  Fe323     1.0  0.49648  0.03300  0.28385  1.0000
  Fe  Fe324     1.0  0.67824  0.12270  0.98187  1.0000
  C   C1536     1.0  0.72821  0.15702  0.33094  1.0000
  H   H2452     1.0  0.52459  0.07482  0.28639  1.0000
  C   C1537     1.0  0.67670  0.46832  0.03721  1.0000
  H   H2453     1.0  0.58994  0.08634  0.40411  1.0000
  H   H2454     1.0  0.54637  0.34065  0.03221  1.0000
  C   C1538     1.0  0.64540  0.43945  0.98606  1.0000
  C   C1539     1.0  0.72612  0.21539  0.06036  1.0000
  C   C1540     1.0  0.51637  0.37134  0.02384  1.0000
  H   H2455     1.0  0.52327  0.05443  0.43454  1.0000
  C   C1541     1.0  0.52277  0.38546  0.06112  1.0000
  H   H2456     1.0  0.58547  0.26067  0.15090  1.0000
  C   C1542     1.0  0.60850  0.38133  0.01241  1.0000
  C   C1543     1.0  0.67130  0.07790  0.98335  1.0000
  H   H2457     1.0  0.71427  0.18043  0.99645  1.0000
  H   H2458     1.0  0.62424  0.07097  0.42347  1.0000
  H   H2459     1.0  0.57604  0.32553  0.02649  1.0000
  H   H2460     1.0  0.66646  0.46616  0.03423  1.0000
  C   C1544     1.0  0.69258  0.11194  0.01432  1.0000
  C   C1545     1.0  0.70226  0.12254  0.00621  1.0000
  C   C1546     1.0  0.70984  0.12812  0.01442  1.0000
  C   C1547     1.0  0.70732  0.12368  0.03086  1.0000
  C   C1548     1.0  0.69778  0.11292  0.03903  1.0000
  C   C1549     1.0  0.69057  0.10691  0.03072  1.0000
  H   H2461     1.0  0.70411  0.12625  0.99355  1.0000
  H   H2462     1.0  0.49333  0.03090  0.47408  1.0000
  H   H2463     1.0  0.69578  0.10941  0.05171  1.0000
  H   H2464     1.0  0.68311  0.09867  0.03704  1.0000
  H   H2465     1.0  0.60886  0.07810  0.29605  1.0000
  S   S653      1.0  0.73934  0.19933  0.99672  1.0000
  H   H2466     1.0  0.73906  0.18456  0.06789  1.0000
  C   C1550     1.0  0.59982  0.23347  0.18073  1.0000
  H   H2467     1.0  0.71753  0.05706  0.25475  1.0000
  C   C1551     1.0  0.55253  0.07233  0.25365  1.0000
  C   C1552     1.0  0.55667  0.08692  0.24646  1.0000
  C   C1553     1.0  0.57167  0.08910  0.24590  1.0000
  C   C1554     1.0  0.58261  0.07666  0.25255  1.0000
  C   C1555     1.0  0.57850  0.06209  0.25964  1.0000
  C   C1556     1.0  0.56356  0.05991  0.26018  1.0000
  H   H2468     1.0  0.54822  0.09658  0.24132  1.0000
  H   H2469     1.0  0.57475  0.10037  0.24032  1.0000
  H   H2470     1.0  0.71111  0.06066  0.17025  1.0000
  H   H2471     1.0  0.56057  0.04865  0.26577  1.0000
  C   C1557     1.0  0.64012  0.06663  0.35525  1.0000
  C   C1558     1.0  0.63034  0.08083  0.35840  1.0000
  C   C1559     1.0  0.63698  0.09362  0.35700  1.0000
  C   C1560     1.0  0.65337  0.09236  0.35212  1.0000
  C   C1561     1.0  0.66302  0.07828  0.34862  1.0000
  C   C1562     1.0  0.65642  0.06547  0.35022  1.0000
  H   H2472     1.0  0.61773  0.08190  0.36198  1.0000
  H   H2473     1.0  0.62946  0.10455  0.35963  1.0000
  H   H2474     1.0  0.67564  0.07708  0.34510  1.0000
  H   H2475     1.0  0.66406  0.05451  0.34775  1.0000
  C   C1563     1.0  0.55983  0.04625  0.33064  1.0000
  C   C1564     1.0  0.55073  0.03758  0.34335  1.0000
  S   S654      1.0  0.53815  0.99189  0.25852  1.0000
  H   H2476     1.0  0.49212  0.99413  0.23836  1.0000
  C   C1565     1.0  0.55270  0.03510  0.31270  1.0000
  C   C1566     1.0  0.56118  0.04461  0.31538  1.0000
  H   H2477     1.0  0.54962  0.03876  0.35517  1.0000
  S   S655      1.0  0.53333  0.35348  0.07095  1.0000
  H   H2478     1.0  0.55359  0.03411  0.30085  1.0000
  H   H2479     1.0  0.56882  0.05068  0.30561  1.0000
  H   H2480     1.0  0.71695  0.32643  0.28157  1.0000
  C   C1567     1.0  0.70732  0.38431  0.11592  1.0000
  C   C1568     1.0  0.72066  0.37628  0.12211  1.0000
  C   C1569     1.0  0.71907  0.36784  0.13780  1.0000
  C   C1570     1.0  0.70411  0.36772  0.14753  1.0000
  C   C1571     1.0  0.69074  0.37578  0.14136  1.0000
  C   C1572     1.0  0.69234  0.38381  0.12551  1.0000
  C   C1573     1.0  0.61644  0.07853  0.41545  1.0000
  H   H2481     1.0  0.69124  0.18686  0.26230  1.0000
  H   H2482     1.0  0.67913  0.37579  0.14884  1.0000
  H   H2483     1.0  0.68198  0.38978  0.12079  1.0000
  H   H2484     1.0  0.63993  0.07000  0.20579  1.0000
  C   C1574     1.0  0.68205  0.47472  0.08119  1.0000
  C   C1575     1.0  0.51096  0.39903  0.05824  1.0000
  H   H2485     1.0  0.55862  0.07914  0.29890  1.0000
  N   N154      1.0  0.69170  0.17627  0.01025  1.0000
  S   S656      1.0  0.57724  0.33254  0.05927  1.0000
  H   H2486     1.0  0.68889  0.46390  0.07776  1.0000
  H   H2487     1.0  0.53993  0.35903  0.03804  1.0000
  C   C1576     1.0  0.49273  0.05551  0.44924  1.0000
  H   H2488     1.0  0.69771  0.24138  0.15179  1.0000
  C   C1577     1.0  0.56626  0.04017  0.43283  1.0000
  H   H2489     1.0  0.55206  0.06818  0.28910  1.0000
  H   H2490     1.0  0.67348  0.48322  0.00763  1.0000
  C   C1578     1.0  0.61406  0.27549  0.11336  1.0000
  C   C1579     1.0  0.62422  0.28448  0.11369  1.0000
  C   C1580     1.0  0.62239  0.30028  0.10564  1.0000
  H   H2491     1.0  0.72198  0.15786  0.28170  1.0000
  H   H2492     1.0  0.63346  0.27928  0.12018  1.0000
  H   H2493     1.0  0.63026  0.30718  0.10601  1.0000
  C   C1581     1.0  0.60426  0.39719  0.06030  1.0000
  C   C1582     1.0  0.61561  0.40645  0.05462  1.0000
  C   C1583     1.0  0.62588  0.40598  0.06399  1.0000
  C   C1584     1.0  0.62462  0.39645  0.07915  1.0000
  C   C1585     1.0  0.61296  0.38758  0.08492  1.0000
  C   C1586     1.0  0.60300  0.38774  0.07545  1.0000
  H   H2494     1.0  0.61668  0.41373  0.04288  1.0000
  H   H2495     1.0  0.63488  0.41280  0.05940  1.0000
  H   H2496     1.0  0.61180  0.38033  0.09670  1.0000
  H   H2497     1.0  0.59421  0.38066  0.07997  1.0000
  C   C1587     1.0  0.66300  0.40071  0.00649  1.0000
  C   C1588     1.0  0.67485  0.40835  0.99677  1.0000
  C   C1589     1.0  0.68251  0.41581  0.00318  1.0000
  C   C1590     1.0  0.67850  0.41545  0.01935  1.0000
  C   C1591     1.0  0.66684  0.40755  0.02910  1.0000
  C   C1592     1.0  0.65907  0.40026  0.02266  1.0000
  H   H2498     1.0  0.59998  0.37490  0.02124  1.0000
  H   H2499     1.0  0.69151  0.42192  0.99559  1.0000
  H   H2500     1.0  0.66360  0.40731  0.04156  1.0000
  H   H2501     1.0  0.64978  0.39454  0.03019  1.0000
  H   H2502     1.0  0.68977  0.15430  0.02658  1.0000
  C   C1593     1.0  0.56578  0.32522  0.00777  1.0000
  C   C1594     1.0  0.57575  0.32989  0.01417  1.0000
  C   C1595     1.0  0.58546  0.34000  0.00459  1.0000
  C   C1596     1.0  0.73197  0.14603  0.34433  1.0000
  H   H2503     1.0  0.66436  0.44983  0.13134  1.0000
  S   S657      1.0  0.55205  0.32556  0.98438  1.0000
  H   H2504     1.0  0.50893  0.00588  0.24745  1.0000
  H   H2505     1.0  0.69069  0.15222  0.26581  1.0000
  C   C1597     1.0  0.54855  0.05602  0.45678  1.0000
  C   C1598     1.0  0.55102  0.06416  0.44096  1.0000
  C   C1599     1.0  0.55987  0.05627  0.42893  1.0000
  N   N155      1.0  0.59075  0.23941  0.16822  1.0000
  C   C1600     1.0  0.54249  0.02783  0.34073  1.0000
  C   C1601     1.0  0.49513  0.39807  0.06137  1.0000
  H   H2506     1.0  0.54616  0.07666  0.43803  1.0000
  H   H2507     1.0  0.73575  0.16175  0.03387  1.0000
  S   S658      1.0  0.51127  0.03588  0.25918  1.0000
  H   H2508     1.0  0.57308  0.03395  0.42367  1.0000
  C   C1602     1.0  0.55500  0.03992  0.46069  1.0000
  C   C1603     1.0  0.50291  0.36985  0.07067  1.0000
  Fe  Fe325     1.0  0.52693  0.01333  0.26883  1.0000
  S   S659      1.0  0.53185  0.01543  0.32234  1.0000
  H   H2509     1.0  0.72417  0.21663  0.08999  1.0000
  Fe  Fe326     1.0  0.58749  0.02314  0.37948  1.0000
  C   C1604     1.0  0.51239  0.99361  0.24686  1.0000
  C   C1605     1.0  0.58529  0.34535  0.98857  1.0000
  C   C1606     1.0  0.72603  0.18791  0.07165  1.0000
  H   H2510     1.0  0.51691  0.08062  0.31957  1.0000
  Fe  Fe327     1.0  0.52521  0.02337  0.29874  1.0000
  S   S660      1.0  0.57257  0.36097  0.07794  1.0000
  H   H2511     1.0  0.73026  0.17991  0.31639  1.0000
  C   C1607     1.0  0.73546  0.07183  0.15013  1.0000
  H   H2512     1.0  0.51499  0.34895  0.05086  1.0000
  H   H2513     1.0  0.71689  0.30832  0.29610  1.0000
  H   H2514     1.0  0.63590  0.42934  0.01705  1.0000
  H   H2515     1.0  0.51488  0.37608  0.03440  1.0000
  C   C1608     1.0  0.68441  0.19315  0.00924  1.0000
  H   H2516     1.0  0.53080  0.99247  0.35124  1.0000
  C   C1609     1.0  0.53246  0.10241  0.30023  1.0000
  H   H2517     1.0  0.68321  0.14840  0.28656  1.0000
  H   H2518     1.0  0.69894  0.19905  0.08960  1.0000
  N   N156      1.0  0.68006  0.48385  0.02852  1.0000
  H   H2519     1.0  0.70948  0.05998  0.98396  1.0000
  C   C1610     1.0  0.72998  0.04905  0.12451  1.0000
  H   H2520     1.0  0.68829  0.17008  0.03551  1.0000
  H   H2521     1.0  0.73916  0.21341  0.05706  1.0000
  C   C1611     1.0  0.71363  0.22320  0.13090  1.0000
  C   C1612     1.0  0.66558  0.47765  0.08450  1.0000
  H   H2522     1.0  0.68845  0.00688  0.12291  1.0000
  H   H2523     1.0  0.60246  0.37715  0.98675  1.0000
  H   H2524     1.0  0.51445  0.34998  0.00944  1.0000
  H   H2525     1.0  0.72223  0.21444  0.05010  1.0000
  H   H2526     1.0  0.59259  0.35341  0.98118  1.0000
  C   C1613     1.0  0.52014  0.04303  0.44133  1.0000
  C   C1614     1.0  0.60072  0.07952  0.39749  1.0000
  N   N157      1.0  0.66864  0.32674  0.17414  1.0000
  C   C1615     1.0  0.67227  0.34170  0.16398  1.0000
  C   C1616     1.0  0.65224  0.32961  0.18332  1.0000
  C   C1617     1.0  0.67950  0.32014  0.18502  1.0000
  C   C1618     1.0  0.67058  0.31551  0.16427  1.0000
  H   H2527     1.0  0.66445  0.34700  0.15546  1.0000
  H   H2528     1.0  0.68467  0.33997  0.15712  1.0000
  H   H2529     1.0  0.67089  0.35048  0.17104  1.0000
  H   H2530     1.0  0.64915  0.31848  0.19102  1.0000
  H   H2531     1.0  0.65044  0.33791  0.19102  1.0000
  H   H2532     1.0  0.64372  0.33472  0.17549  1.0000
  H   H2533     1.0  0.67694  0.30900  0.19315  1.0000
  H   H2534     1.0  0.67884  0.32851  0.19227  1.0000
  H   H2535     1.0  0.69191  0.31735  0.17851  1.0000
  H   H2536     1.0  0.66215  0.31977  0.15633  1.0000
  H   H2537     1.0  0.66871  0.30381  0.17157  1.0000
  H   H2538     1.0  0.68265  0.31362  0.15674  1.0000
  N   N158      1.0  0.62210  0.07933  0.31194  1.0000
  C   C1619     1.0  0.61633  0.08547  0.29719  1.0000
  C   C1620     1.0  0.63193  0.08951  0.31283  1.0000
  H   H2539     1.0  0.62626  0.08586  0.28669  1.0000
  H   H2540     1.0  0.60921  0.09771  0.29656  1.0000
  H   H2541     1.0  0.63656  0.08527  0.32378  1.0000
  H   H2542     1.0  0.62514  0.10183  0.31259  1.0000
  H   H2543     1.0  0.64223  0.08995  0.30270  1.0000
  H   H2544     1.0  0.63625  0.05827  0.32320  1.0000
  N   N159      1.0  0.68734  0.43651  0.12252  1.0000
  C   C1621     1.0  0.67261  0.44803  0.12001  1.0000
  C   C1622     1.0  0.69755  0.43402  0.10717  1.0000
  C   C1623     1.0  0.68355  0.42143  0.13217  1.0000
  C   C1624     1.0  0.69567  0.44256  0.13071  1.0000
  H   H2545     1.0  0.67496  0.45972  0.11323  1.0000
  C   C1625     1.0  0.68845  0.99496  0.12171  1.0000
  H   H2546     1.0  0.66627  0.44419  0.11330  1.0000
  H   H2547     1.0  0.69161  0.42953  0.10065  1.0000
  H   H2548     1.0  0.70074  0.44511  0.09958  1.0000
  H   H2549     1.0  0.70866  0.42517  0.10860  1.0000
  H   H2550     1.0  0.67704  0.41671  0.12641  1.0000
  H   H2551     1.0  0.67609  0.42275  0.14396  1.0000
  H   H2552     1.0  0.69442  0.41233  0.13400  1.0000
  H   H2553     1.0  0.70683  0.43412  0.13281  1.0000
  H   H2554     1.0  0.52743  0.09396  0.27582  1.0000
  H   H2555     1.0  0.69872  0.45393  0.12369  1.0000
  N   N160      1.0  0.63623  0.44925  0.99751  1.0000
  H   H2556     1.0  0.73285  0.16913  0.12727  1.0000
  C   C1626     1.0  0.64121  0.46440  0.99286  1.0000
  H   H2557     1.0  0.62328  0.08676  0.40644  1.0000
  H   H2558     1.0  0.62446  0.05509  0.31188  1.0000
  H   H2559     1.0  0.55470  0.08766  0.27959  1.0000
  Fe  Fe328     1.0  0.73247  0.13446  0.08577  1.0000
  H   H2560     1.0  0.73228  0.37680  0.11482  1.0000
  H   H2561     1.0  0.61680  0.45823  0.98596  1.0000
  S   S661      1.0  0.56878  0.37000  0.04110  1.0000
  H   H2562     1.0  0.59869  0.06507  0.22449  1.0000
  C   C1627     1.0  0.58258  0.99855  0.35887  1.0000
  H   H2563     1.0  0.59945  0.22101  0.18660  1.0000
  H   H2564     1.0  0.59528  0.24051  0.18996  1.0000
  H   H2565     1.0  0.58607  0.26369  0.16956  1.0000
  C   C1628     1.0  0.52928  0.07613  0.31376  1.0000
  H   H2566     1.0  0.67798  0.40871  0.98428  1.0000
  H   H2567     1.0  0.54989  0.99201  0.35366  1.0000
  C   C1629     1.0  0.54052  0.35316  0.02856  1.0000
  H   H2568     1.0  0.55382  0.99062  0.28302  1.0000
  C   C1630     1.0  0.54319  0.02683  0.32538  1.0000
  H   H2569     1.0  0.59723  0.21725  0.16115  1.0000
  H   H2570     1.0  0.72427  0.24891  0.11236  1.0000
  H   H2571     1.0  0.69821  0.05317  0.25938  1.0000
  C   C1631     1.0  0.57416  0.23827  0.17504  1.0000
  H   H2572     1.0  0.71764  0.13596  0.00795  1.0000
  H   H2573     1.0  0.62175  0.39323  0.98290  1.0000
  N   N161      1.0  0.71933  0.23459  0.13565  1.0000
  H   H2574     1.0  0.63216  0.06742  0.38984  1.0000
  C   C1632     1.0  0.55059  0.08009  0.29117  1.0000
  H   H2575     1.0  0.53492  0.38636  0.05868  1.0000
  H   H2576     1.0  0.59108  0.30347  0.09028  1.0000
  H   H2577     1.0  0.61631  0.04493  0.20013  1.0000
  H   H2578     1.0  0.60116  0.09118  0.32580  1.0000
  H   H2579     1.0  0.53899  0.99858  0.37957  1.0000
  H   H2580     1.0  0.66980  0.08614  0.99105  1.0000
  C   C1633     1.0  0.73313  0.17132  0.32671  1.0000
  N   N162      1.0  0.64568  0.35089  0.06651  1.0000
  C   C1634     1.0  0.66214  0.34903  0.06749  1.0000
  C   C1635     1.0  0.63523  0.35157  0.08217  1.0000
  C   C1636     1.0  0.64426  0.33739  0.06126  1.0000
  C   C1637     1.0  0.64109  0.36560  0.05514  1.0000
  H   H2581     1.0  0.66597  0.33806  0.07600  1.0000
  H   H2582     1.0  0.67034  0.34855  0.05584  1.0000
  H   H2583     1.0  0.62260  0.35408  0.08166  1.0000
  H   H2584     1.0  0.63749  0.34022  0.09078  1.0000
  H   H2585     1.0  0.63682  0.36091  0.08702  1.0000
  H   H2586     1.0  0.63196  0.33846  0.06045  1.0000
  H   H2587     1.0  0.64735  0.32610  0.06971  1.0000
  H   H2588     1.0  0.65196  0.33644  0.04949  1.0000
  H   H2589     1.0  0.62853  0.36773  0.05452  1.0000
  H   H2590     1.0  0.64838  0.36534  0.04306  1.0000
  H   H2591     1.0  0.64249  0.37594  0.05854  1.0000
  H   H2592     1.0  0.64686  0.05048  0.20223  1.0000
  C   C1638     1.0  0.52385  0.08682  0.28784  1.0000
  H   H2593     1.0  0.59420  0.27548  0.10462  1.0000
  H   H2594     1.0  0.60391  0.25733  0.15611  1.0000
  N   N163      1.0  0.53403  0.08638  0.29826  1.0000
  C   C1639     1.0  0.68831  0.17094  0.99777  1.0000
  H   H2595     1.0  0.53818  0.98636  0.31006  1.0000
  H   H2596     1.0  0.71192  0.99520  0.13431  1.0000
  S   S662      1.0  0.51132  0.00969  0.29286  1.0000
  C   C1640     1.0  0.61941  0.04182  0.21183  1.0000
  H   H2597     1.0  0.71520  0.06882  0.22681  1.0000
  H   H2598     1.0  0.73411  0.26905  0.33690  1.0000
  H   H2599     1.0  0.58188  0.41411  0.00040  1.0000
  H   H2600     1.0  0.70567  0.09951  0.23756  1.0000
  H   H2601     1.0  0.73840  0.21703  0.14400  1.0000
  C   C1641     1.0  0.51568  0.34530  0.03991  1.0000
  H   H2602     1.0  0.69905  0.21947  0.08286  1.0000
  H   H2603     1.0  0.72045  0.22100  0.11916  1.0000
  H   H2604     1.0  0.61524  0.44083  0.00123  1.0000
  C   C1642     1.0  0.59343  0.38600  0.99276  1.0000
  H   H2605     1.0  0.72638  0.07114  0.14433  1.0000
  H   H2606     1.0  0.57952  0.01118  0.35741  1.0000
  H   H2607     1.0  0.65823  0.43734  0.98538  1.0000
  H   H2608     1.0  0.61199  0.45948  0.00627  1.0000
  H   H2609     1.0  0.57941  0.39905  0.01804  1.0000
  C   C1643     1.0  0.70248  0.07335  0.23146  1.0000
  C   C1644     1.0  0.70476  0.06225  0.25843  1.0000
  C   C1645     1.0  0.60209  0.28239  0.10493  1.0000
  H   H2610     1.0  0.71166  0.22533  0.16035  1.0000
  H   H2611     1.0  0.53011  0.06399  0.31263  1.0000
  H   H2612     1.0  0.72104  0.18688  0.06217  1.0000
  H   H2613     1.0  0.73260  0.08393  0.15221  1.0000
  H   H2614     1.0  0.69611  0.06430  0.23191  1.0000
  H   H2615     1.0  0.52012  0.10755  0.30557  1.0000
  H   H2616     1.0  0.73222  0.15231  0.10999  1.0000
  C   C1646     1.0  0.52988  0.99169  0.38152  1.0000
  H   H2617     1.0  0.69537  0.99367  0.10973  1.0000
  H   H2618     1.0  0.62973  0.03168  0.21175  1.0000
  H   H2619     1.0  0.68117  0.18119  0.29126  1.0000
  H   H2620     1.0  0.72074  0.25891  0.12791  1.0000
  C   C1647     1.0  0.56396  0.03207  0.44867  1.0000
  H   H2621     1.0  0.63737  0.04040  0.23130  1.0000
  H   H2622     1.0  0.71488  0.16133  0.00908  1.0000
  C   C1648     1.0  0.68282  0.08343  0.25250  1.0000
  Fe  Fe329     1.0  0.58773  0.34862  0.03753  1.0000
  C   C1649     1.0  0.62710  0.05056  0.23085  1.0000
  H   H2623     1.0  0.60927  0.05012  0.42854  1.0000
  C   C1650     1.0  0.73804  0.34916  0.09334  1.0000
  H   H2624     1.0  0.61129  0.07878  0.21811  1.0000
  C   C1651     1.0  0.60855  0.07917  0.32554  1.0000
  N   N164      1.0  0.69825  0.16504  0.27812  1.0000
  C   C1652     1.0  0.56546  0.33067  0.99180  1.0000
  H   H2625     1.0  0.66354  0.35908  0.07143  1.0000
  H   H2626     1.0  0.60934  0.03773  0.22082  1.0000
  H   H2627     1.0  0.59141  0.06493  0.42743  1.0000
  H   H2628     1.0  0.59663  0.07271  0.39150  1.0000
  H   H2629     1.0  0.64186  0.06276  0.30210  1.0000
  C   C1653     1.0  0.73920  0.33551  0.12004  1.0000
  H   H2630     1.0  0.54833  0.35853  0.01775  1.0000
  H   H2631     1.0  0.60999  0.23053  0.15071  1.0000
  C   C1654     1.0  0.59752  0.22987  0.15612  1.0000
  H   H2632     1.0  0.63435  0.47231  0.00100  1.0000
  C   C1655     1.0  0.60031  0.29822  0.09678  1.0000
  C   C1656     1.0  0.51877  0.37082  0.06745  1.0000
  H   H2633     1.0  0.57319  0.22588  0.18056  1.0000
  H   H2634     1.0  0.70104  0.22750  0.13022  1.0000
  H   H2635     1.0  0.56702  0.24271  0.16587  1.0000
  H   H2636     1.0  0.54010  0.10239  0.30801  1.0000
  H   H2637     1.0  0.59116  0.23414  0.14633  1.0000
  Fe  Fe330     1.0  0.55917  0.35462  0.06381  1.0000
  H   H2638     1.0  0.58689  0.05239  0.26483  1.0000
  C   C1657     1.0  0.59152  0.25600  0.16094  1.0000
  H   H2639     1.0  0.72160  0.22768  0.06200  1.0000
  S   S663      1.0  0.60875  0.32710  0.08735  1.0000
  N   N165      1.0  0.66035  0.14484  0.17109  1.0000
  C   C1658     1.0  0.66472  0.13848  0.15674  1.0000
  C   C1659     1.0  0.67330  0.13871  0.17961  1.0000
  C   C1660     1.0  0.64594  0.13995  0.18139  1.0000
  C   C1661     1.0  0.65745  0.16220  0.16669  1.0000
  H   H2640     1.0  0.65540  0.14313  0.14977  1.0000
  H   H2641     1.0  0.66672  0.12543  0.15957  1.0000
  H   H2642     1.0  0.67575  0.14167  0.14884  1.0000
  H   H2643     1.0  0.68440  0.14212  0.17218  1.0000
  H   H2644     1.0  0.67037  0.14329  0.19051  1.0000
  H   H2645     1.0  0.67570  0.12564  0.18321  1.0000
  H   H2646     1.0  0.64251  0.14434  0.19244  1.0000
  H   H2647     1.0  0.64763  0.12693  0.18484  1.0000
  H   H2648     1.0  0.63575  0.14462  0.17556  1.0000
  H   H2649     1.0  0.65413  0.16742  0.17724  1.0000
  H   H2650     1.0  0.64769  0.16722  0.16030  1.0000
  H   H2651     1.0  0.66807  0.16631  0.15882  1.0000
  H   H2652     1.0  0.60083  0.07161  0.32524  1.0000
  H   H2653     1.0  0.68926  0.16288  0.30306  1.0000
  H   H2654     1.0  0.72942  0.36188  0.14256  1.0000
  N   N166      1.0  0.62297  0.05531  0.21529  1.0000
  C   C1662     1.0  0.63159  0.06315  0.31225  1.0000
  C   C1663     1.0  0.70192  0.17749  0.26408  1.0000
  H   H2655     1.0  0.70663  0.17266  0.25325  1.0000
  H   H2656     1.0  0.68934  0.20039  0.99773  1.0000
  H   H2657     1.0  0.67210  0.16918  0.02808  1.0000
  H   H2658     1.0  0.63347  0.06466  0.19129  1.0000
  H   H2659     1.0  0.67554  0.07495  0.25359  1.0000
  H   H2660     1.0  0.53334  0.35506  0.00127  1.0000
  C   C1664     1.0  0.73862  0.32127  0.10139  1.0000
  C   C1665     1.0  0.69209  0.17195  0.29221  1.0000
  S   S664      1.0  0.58850  0.99726  0.38742  1.0000
  C   C1666     1.0  0.58755  0.98902  0.37240  1.0000
  H   H2661     1.0  0.72492  0.35227  0.09648  1.0000
  H   H2662     1.0  0.72355  0.19648  0.09869  1.0000
  H   H2663     1.0  0.53090  0.03534  0.44527  1.0000
  H   H2664     1.0  0.72123  0.30814  0.27553  1.0000
  C   C1667     1.0  0.71711  0.24986  0.12435  1.0000
  H   H2665     1.0  0.69444  0.15851  0.99751  1.0000
  C   C1668     1.0  0.57533  0.34065  0.98215  1.0000
  H   H2666     1.0  0.63219  0.44792  0.02236  1.0000
  C   C1669     1.0  0.69672  0.06408  0.98886  1.0000
  H   H2667     1.0  0.69793  0.20835  0.06966  1.0000
  H   H2668     1.0  0.68690  0.45858  0.03436  1.0000
  C   C1670     1.0  0.68516  0.16713  0.02579  1.0000
  H   H2669     1.0  0.49832  0.98914  0.27911  1.0000
  H   H2670     1.0  0.71459  0.24510  0.15550  1.0000
  H   H2671     1.0  0.51432  0.06383  0.45910  1.0000
  H   H2672     1.0  0.73887  0.14701  0.05118  1.0000
  C   C1671     1.0  0.51094  0.05244  0.46539  1.0000
  H   H2673     1.0  0.52615  0.98735  0.39443  1.0000
  H   H2674     1.0  0.72019  0.05276  0.18684  1.0000
  H   H2675     1.0  0.69223  0.17820  0.98595  1.0000
  H   H2676     1.0  0.64229  0.42775  0.98936  1.0000
  H   H2677     1.0  0.72614  0.33889  0.12364  1.0000
  H   H2678     1.0  0.49957  0.02403  0.45608  1.0000
  C   C1672     1.0  0.73621  0.22866  0.13576  1.0000
  H   H2679     1.0  0.71662  0.07354  0.17869  1.0000
  H   H2680     1.0  0.73607  0.33246  0.29279  1.0000
  H   H2681     1.0  0.73648  0.27565  0.13617  1.0000
  N   N167      1.0  0.73598  0.05977  0.16491  1.0000
  S   S665      1.0  0.66738  0.14815  0.98153  1.0000
  H   H2682     1.0  0.63987  0.32698  0.98186  1.0000
  C   C1673     1.0  0.68555  0.98470  0.14968  1.0000
  C   C1674     1.0  0.74038  0.04398  0.16136  1.0000
  C   C1675     1.0  0.74034  0.14945  0.35353  1.0000
  H   H2683     1.0  0.66587  0.06791  0.99070  1.0000
  C   C1676     1.0  0.54095  0.98482  0.35624  1.0000
  H   H2684     1.0  0.74100  0.23699  0.13918  1.0000
  N   N168      1.0  0.73988  0.31202  0.28338  1.0000
  H   H2685     1.0  0.74135  0.03459  0.17214  1.0000
  C   C1677     1.0  0.74126  0.15902  0.10669  1.0000
  H   H2686     1.0  0.74071  0.20134  0.08456  1.0000
  H   H2687     1.0  0.60689  0.41089  0.98009  1.0000
  C   C1678     1.0  0.72635  0.22812  0.94397  1.0000
  H   H2688     1.0  0.60870  0.32766  0.89666  1.0000
  Fe  Fe331     1.0  0.54635  0.33984  0.92817  1.0000
  S   S666      1.0  0.54728  0.31692  0.94609  1.0000
  S   S667      1.0  0.52602  0.35324  0.91632  1.0000
  C   C1679     1.0  0.73088  0.01395  0.81858  1.0000
  C   C1680     1.0  0.60389  0.36458  0.92625  1.0000
  C   C1681     1.0  0.52724  0.02111  0.67585  1.0000
  Fe  Fe332     1.0  0.57189  0.30962  0.93214  1.0000
  S   S668      1.0  0.58617  0.28544  0.92886  1.0000
  S   S669      1.0  0.57012  0.33149  0.91312  1.0000
  H   H2689     1.0  0.62780  0.32278  0.91321  1.0000
  Fe  Fe333     1.0  0.67151  0.38556  0.94140  1.0000
  S   S670      1.0  0.65522  0.40469  0.92804  1.0000
  S   S671      1.0  0.69031  0.36687  0.93053  1.0000
  H   H2690     1.0  0.55809  0.19167  0.72850  1.0000
  H   H2691     1.0  0.61893  0.28084  0.81440  1.0000
  Fe  Fe334     1.0  0.63650  0.39910  0.94960  1.0000
  N   N169      1.0  0.54440  0.01567  0.67041  1.0000
  H   H2692     1.0  0.70266  0.00673  0.83292  1.0000
  S   S672      1.0  0.51526  0.98841  0.53840  1.0000
  S   S673      1.0  0.65234  0.37882  0.96198  1.0000
  H   H2693     1.0  0.54645  0.17799  0.75535  1.0000
  C   C1682     1.0  0.52088  0.07745  0.65649  1.0000
  H   H2694     1.0  0.73630  0.19002  0.96486  1.0000
  Fe  Fe335     1.0  0.56617  0.06609  0.59349  1.0000
  S   S674      1.0  0.58842  0.06065  0.60220  1.0000
  S   S675      1.0  0.56936  0.06707  0.56771  1.0000
  Fe  Fe336     1.0  0.54557  0.06740  0.62601  1.0000
  S   S676      1.0  0.56600  0.06241  0.63736  1.0000
  H   H2695     1.0  0.56032  0.00395  0.65259  1.0000
  Fe  Fe337     1.0  0.57572  0.07930  0.61594  1.0000
  S   S677      1.0  0.58606  0.09949  0.61542  1.0000
  Fe  Fe338     1.0  0.57652  0.04436  0.62253  1.0000
  S   S678      1.0  0.58628  0.01898  0.63184  1.0000
  S   S679      1.0  0.55410  0.08594  0.60583  1.0000
  S   S680      1.0  0.55535  0.04821  0.61273  1.0000
  H   H2696     1.0  0.68675  0.35524  0.88096  1.0000
  S   S681      1.0  0.61158  0.39690  0.95282  1.0000
  C   C1683     1.0  0.54649  0.02521  0.59296  1.0000
  H   H2697     1.0  0.61499  0.32099  0.95863  1.0000
  H   H2698     1.0  0.55599  0.99345  0.59736  1.0000
  Fe  Fe339     1.0  0.51255  0.04658  0.52913  1.0000
  C   C1684     1.0  0.59526  0.07942  0.74456  1.0000
  C   C1685     1.0  0.50232  0.35026  0.94322  1.0000
  S   S682      1.0  0.72165  0.16024  0.68776  1.0000
  Fe  Fe340     1.0  0.65993  0.42040  0.94092  1.0000
  H   H2699     1.0  0.58617  0.38203  0.95736  1.0000
  H   H2700     1.0  0.56436  0.17585  0.76148  1.0000
  N   N170      1.0  0.72198  0.02802  0.71710  1.0000
  H   H2701     1.0  0.70395  0.01306  0.81205  1.0000
  H   H2702     1.0  0.58995  0.98616  0.63239  1.0000
  H   H2703     1.0  0.52329  0.01344  0.57667  1.0000
  C   C1686     1.0  0.52696  0.06143  0.55316  1.0000
  H   H2704     1.0  0.59055  0.15620  0.72974  1.0000
  H   H2705     1.0  0.54515  0.99389  0.68764  1.0000
  C   C1687     1.0  0.57209  0.99801  0.51018  1.0000
  H   H2706     1.0  0.68320  0.06799  0.95615  1.0000
  C   C1688     1.0  0.55835  0.17039  0.75587  1.0000
  C   C1689     1.0  0.51809  0.10037  0.66670  1.0000
  S   S683      1.0  0.72890  0.07483  0.71496  1.0000
  H   H2707     1.0  0.64953  0.16105  0.69370  1.0000
  H   H2708     1.0  0.73618  0.10696  0.71413  1.0000
  H   H2709     1.0  0.55013  0.03498  0.67546  1.0000
  C   C1690     1.0  0.71546  0.33717  0.87331  1.0000
  Fe  Fe341     1.0  0.68435  0.15249  0.95834  1.0000
  S   S684      1.0  0.69561  0.17322  0.95200  1.0000
  Fe  Fe342     1.0  0.67870  0.12609  0.94750  1.0000
  S   S685      1.0  0.68647  0.11375  0.92727  1.0000
  Fe  Fe343     1.0  0.65196  0.14560  0.96725  1.0000
  S   S686      1.0  0.62590  0.15500  0.97293  1.0000
  S   S687      1.0  0.66803  0.15195  0.94392  1.0000
  Fe  Fe344     1.0  0.68001  0.28355  0.87006  1.0000
  S   S688      1.0  0.70525  0.27129  0.86333  1.0000
  S   S689      1.0  0.65836  0.28003  0.86529  1.0000
  Fe  Fe345     1.0  0.68661  0.30264  0.88921  1.0000
  S   S690      1.0  0.71271  0.29209  0.88443  1.0000
  S   S691      1.0  0.66981  0.32054  0.90266  1.0000
  Fe  Fe346     1.0  0.71073  0.29489  0.85944  1.0000
  H   H2710     1.0  0.54288  0.99719  0.50924  1.0000
  Fe  Fe347     1.0  0.70558  0.26918  0.88848  1.0000
  S   S692      1.0  0.71704  0.24538  0.90076  1.0000
  S   S693      1.0  0.68526  0.30747  0.86393  1.0000
  S   S694      1.0  0.67985  0.27932  0.89554  1.0000
  Fe  Fe348     1.0  0.60273  0.22773  0.87564  1.0000
  S   S695      1.0  0.62444  0.22084  0.85767  1.0000
  S   S696      1.0  0.58928  0.25302  0.87405  1.0000
  Fe  Fe349     1.0  0.60475  0.19427  0.89423  1.0000
  S   S697      1.0  0.62699  0.18447  0.87829  1.0000
  S   S698      1.0  0.59185  0.18045  0.91601  1.0000
  Fe  Fe350     1.0  0.63447  0.20611  0.87827  1.0000
  S   S699      1.0  0.65846  0.20787  0.87903  1.0000
  Fe  Fe351     1.0  0.61503  0.19990  0.85898  1.0000
  S   S700      1.0  0.61859  0.19273  0.83599  1.0000
  S   S701      1.0  0.61341  0.21424  0.89623  1.0000
  S   S702      1.0  0.59213  0.20827  0.87499  1.0000
  Fe  Fe352     1.0  0.65931  0.05394  0.90226  1.0000
  S   S703      1.0  0.64574  0.03874  0.89807  1.0000
  S   S704      1.0  0.65135  0.06347  0.92440  1.0000
  Fe  Fe353     1.0  0.68206  0.05323  0.87113  1.0000
  S   S705      1.0  0.67064  0.03826  0.86370  1.0000
  S   S706      1.0  0.70403  0.06092  0.85651  1.0000
  Fe  Fe354     1.0  0.64815  0.05360  0.87367  1.0000
  S   S707      1.0  0.62642  0.06093  0.86382  1.0000
  Fe  Fe355     1.0  0.66911  0.02435  0.88848  1.0000
  S   S708      1.0  0.67330  0.99787  0.89452  1.0000
  S   S709      1.0  0.65965  0.07020  0.87855  1.0000
  S   S710      1.0  0.68263  0.03801  0.89517  1.0000
  C   C1691     1.0  0.60742  0.02988  0.86485  1.0000
  H   H2711     1.0  0.68436  0.05148  0.97248  1.0000
  C   C1692     1.0  0.52650  0.02094  0.58263  1.0000
  S   S711      1.0  0.50731  0.08489  0.74290  1.0000
  H   H2712     1.0  0.56496  0.02560  0.66111  1.0000
  C   C1693     1.0  0.71509  0.03881  0.80811  1.0000
  C   C1694     1.0  0.55227  0.98667  0.50698  1.0000
  H   H2713     1.0  0.72442  0.04518  0.80684  1.0000
  S   S712      1.0  0.70078  0.08648  0.78545  1.0000
  C   C1695     1.0  0.49417  0.36374  0.91882  1.0000
  S   S713      1.0  0.72333  0.05681  0.76086  1.0000
  Fe  Fe356     1.0  0.59363  0.13455  0.80490  1.0000
  S   S714      1.0  0.61909  0.13003  0.79288  1.0000
  S   S715      1.0  0.58686  0.14159  0.82837  1.0000
  S   S716      1.0  0.60822  0.12036  0.76569  1.0000
  Fe  Fe357     1.0  0.61450  0.10856  0.78894  1.0000
  S   S717      1.0  0.63363  0.08669  0.79088  1.0000
  Fe  Fe358     1.0  0.61053  0.14220  0.77078  1.0000
  S   S718      1.0  0.62238  0.15972  0.75185  1.0000
  Fe  Fe359     1.0  0.64268  0.10419  0.66615  1.0000
  S   S719      1.0  0.64668  0.12880  0.65553  1.0000
  S   S720      1.0  0.63581  0.08644  0.65736  1.0000
  Fe  Fe360     1.0  0.65208  0.10264  0.69621  1.0000
  S   S721      1.0  0.65658  0.12689  0.68856  1.0000
  S   S722      1.0  0.65573  0.08822  0.71987  1.0000
  Fe  Fe361     1.0  0.63450  0.13324  0.67963  1.0000
  S   S723      1.0  0.61841  0.15581  0.68476  1.0000
  Fe  Fe362     1.0  0.66866  0.12063  0.66535  1.0000
  S   S724      1.0  0.69145  0.12856  0.65227  1.0000
  S   S725      1.0  0.62873  0.10947  0.68955  1.0000
  S   S726      1.0  0.66587  0.09559  0.67365  1.0000
  C   C1696     1.0  0.62187  0.15852  0.73307  1.0000
  C   C1697     1.0  0.61747  0.17228  0.72214  1.0000
  C   C1698     1.0  0.61582  0.17142  0.70749  1.0000
  C   C1699     1.0  0.61905  0.15680  0.70357  1.0000
  C   C1700     1.0  0.62365  0.14305  0.71443  1.0000
  C   C1701     1.0  0.62499  0.14390  0.72919  1.0000
  H   H2714     1.0  0.61500  0.18360  0.72516  1.0000
  H   H2715     1.0  0.61228  0.18207  0.69912  1.0000
  H   H2716     1.0  0.62610  0.13171  0.71150  1.0000
  H   H2717     1.0  0.62869  0.13326  0.73745  1.0000
  C   C1702     1.0  0.70847  0.07895  0.71685  1.0000
  C   C1703     1.0  0.70202  0.08838  0.70418  1.0000
  C   C1704     1.0  0.68581  0.09131  0.70523  1.0000
  C   C1705     1.0  0.67601  0.08451  0.71878  1.0000
  C   C1706     1.0  0.68244  0.07500  0.73148  1.0000
  C   C1707     1.0  0.69866  0.07235  0.73056  1.0000
  H   H2718     1.0  0.70953  0.09351  0.69353  1.0000
  H   H2719     1.0  0.68100  0.09883  0.69544  1.0000
  H   H2720     1.0  0.67492  0.06967  0.74197  1.0000
  H   H2721     1.0  0.70356  0.06484  0.74028  1.0000
  C   C1708     1.0  0.62892  0.06574  0.84332  1.0000
  C   C1709     1.0  0.64387  0.06410  0.83327  1.0000
  C   C1710     1.0  0.64536  0.06985  0.81696  1.0000
  C   C1711     1.0  0.63191  0.07735  0.81081  1.0000
  C   C1712     1.0  0.61703  0.07826  0.82083  1.0000
  C   C1713     1.0  0.61553  0.07240  0.83701  1.0000
  H   H2722     1.0  0.65428  0.05891  0.83807  1.0000
  H   H2723     1.0  0.65690  0.06900  0.80920  1.0000
  H   H2724     1.0  0.60661  0.08346  0.81613  1.0000
  H   H2725     1.0  0.60394  0.07353  0.84471  1.0000
  C   C1714     1.0  0.70252  0.06976  0.83712  1.0000
  C   C1715     1.0  0.71610  0.07255  0.82583  1.0000
  C   C1716     1.0  0.71547  0.07818  0.80997  1.0000
  C   C1717     1.0  0.70123  0.08114  0.80540  1.0000
  C   C1718     1.0  0.68748  0.07893  0.81674  1.0000
  C   C1719     1.0  0.68815  0.07306  0.83262  1.0000
  C   C1720     1.0  0.70881  0.34222  0.84811  1.0000
  H   H2726     1.0  0.71401  0.14485  0.96816  1.0000
  H   H2727     1.0  0.67644  0.08128  0.81320  1.0000
  H   H2728     1.0  0.67764  0.07090  0.84135  1.0000
  C   C1721     1.0  0.60930  0.17874  0.83415  1.0000
  C   C1722     1.0  0.59879  0.17166  0.84681  1.0000
  C   C1723     1.0  0.59169  0.16053  0.84483  1.0000
  C   C1724     1.0  0.59509  0.15636  0.83023  1.0000
  C   C1725     1.0  0.60561  0.16343  0.81760  1.0000
  C   C1726     1.0  0.61266  0.17457  0.81957  1.0000
  H   H2729     1.0  0.59606  0.17484  0.85808  1.0000
  H   H2730     1.0  0.60830  0.16037  0.80629  1.0000
  H   H2731     1.0  0.62074  0.18003  0.80972  1.0000
  C   C1727     1.0  0.65857  0.25995  0.86937  1.0000
  C   C1728     1.0  0.64433  0.25500  0.87424  1.0000
  C   C1729     1.0  0.64433  0.23902  0.87706  1.0000
  C   C1730     1.0  0.65854  0.22792  0.87508  1.0000
  C   C1731     1.0  0.67278  0.23291  0.87006  1.0000
  C   C1732     1.0  0.67280  0.24890  0.86735  1.0000
  H   H2732     1.0  0.63327  0.26348  0.87591  1.0000
  H   H2733     1.0  0.63330  0.23533  0.88080  1.0000
  H   H2734     1.0  0.68378  0.22448  0.86795  1.0000
  H   H2735     1.0  0.68383  0.25269  0.86327  1.0000
  C   C1733     1.0  0.67714  0.09912  0.92720  1.0000
  C   C1734     1.0  0.66403  0.09568  0.93891  1.0000
  C   C1735     1.0  0.65629  0.08459  0.93804  1.0000
  C   C1736     1.0  0.66154  0.07697  0.92541  1.0000
  C   C1737     1.0  0.67468  0.08036  0.91374  1.0000
  C   C1738     1.0  0.68249  0.09137  0.91468  1.0000
  H   H2736     1.0  0.64606  0.08203  0.94704  1.0000
  H   H2737     1.0  0.67885  0.07448  0.90398  1.0000
  H   H2738     1.0  0.69261  0.09400  0.90555  1.0000
  C   C1739     1.0  0.61669  0.16271  0.95695  1.0000
  C   C1740     1.0  0.60149  0.16066  0.95879  1.0000
  C   C1741     1.0  0.59393  0.16623  0.94616  1.0000
  C   C1742     1.0  0.60141  0.17419  0.93173  1.0000
  C   C1743     1.0  0.61643  0.17677  0.92995  1.0000
  C   C1744     1.0  0.62416  0.17088  0.94255  1.0000
  H   H2739     1.0  0.59565  0.15445  0.96995  1.0000
  H   H2740     1.0  0.58232  0.16425  0.94759  1.0000
  H   H2741     1.0  0.62214  0.18315  0.91886  1.0000
  H   H2742     1.0  0.63577  0.17280  0.94121  1.0000
  C   C1745     1.0  0.67633  0.18018  0.66687  1.0000
  H   H2743     1.0  0.71704  0.03529  0.79677  1.0000
  H   H2744     1.0  0.60087  0.07385  0.56860  1.0000
  C   C1746     1.0  0.73498  0.27799  0.80730  1.0000
  C   C1747     1.0  0.71135  0.25669  0.92746  1.0000
  C   C1748     1.0  0.71788  0.24390  0.92019  1.0000
  C   C1749     1.0  0.73645  0.29564  0.82252  1.0000
  S   S727      1.0  0.73988  0.19959  0.67239  1.0000
  H   H2745     1.0  0.70553  0.26774  0.92111  1.0000
  N   N171      1.0  0.71551  0.02503  0.82143  1.0000
  H   H2746     1.0  0.68660  0.17004  0.66675  1.0000
  H   H2747     1.0  0.66141  0.17141  0.65008  1.0000
  H   H2748     1.0  0.73109  0.02195  0.73804  1.0000
  C   C1750     1.0  0.71235  0.16976  0.95964  1.0000
  N   N172      1.0  0.66132  0.17482  0.67272  1.0000
  C   C1751     1.0  0.69484  0.08616  0.96689  1.0000
  H   H2749     1.0  0.57502  0.34499  0.96984  1.0000
  H   H2750     1.0  0.61717  0.08342  0.76767  1.0000
  H   H2751     1.0  0.67758  0.18740  0.67441  1.0000
  H   H2752     1.0  0.60371  0.04036  0.87023  1.0000
  C   C1752     1.0  0.74053  0.11436  0.70255  1.0000
  H   H2753     1.0  0.64805  0.19614  0.68013  1.0000
  C   C1753     1.0  0.62912  0.28970  0.90168  1.0000
  S   S728      1.0  0.51284  0.02127  0.50117  1.0000
  C   C1754     1.0  0.63618  0.34800  0.95488  1.0000
  H   H2754     1.0  0.55174  0.00561  0.56431  1.0000
  S   S729      1.0  0.55593  0.35173  0.94110  1.0000
  C   C1755     1.0  0.52488  0.06665  0.56695  1.0000
  H   H2755     1.0  0.72822  0.33466  0.86767  1.0000
  H   H2756     1.0  0.65964  0.10174  0.94846  1.0000
  C   C1756     1.0  0.50579  0.02046  0.71584  1.0000
  H   H2757     1.0  0.58155  0.11269  0.57875  1.0000
  C   C1757     1.0  0.71476  0.15044  0.67752  1.0000
  C   C1758     1.0  0.71914  0.15228  0.66117  1.0000
  C   C1759     1.0  0.71227  0.14514  0.65354  1.0000
  C   C1760     1.0  0.70107  0.13610  0.66220  1.0000
  C   C1761     1.0  0.69722  0.13381  0.67858  1.0000
  C   C1762     1.0  0.70393  0.14103  0.68618  1.0000
  S   S730      1.0  0.66117  0.11963  0.96970  1.0000
  H   H2758     1.0  0.71542  0.14687  0.64085  1.0000
  H   H2759     1.0  0.68905  0.12647  0.68543  1.0000
  H   H2760     1.0  0.70061  0.13941  0.69885  1.0000
  C   C1763     1.0  0.66054  0.16554  0.68902  1.0000
  H   H2761     1.0  0.70413  0.37244  0.84949  1.0000
  H   H2762     1.0  0.59639  0.08614  0.55063  1.0000
  S   S731      1.0  0.66122  0.44583  0.93020  1.0000
  C   C1764     1.0  0.52344  0.06775  0.67087  1.0000
  H   H2763     1.0  0.64693  0.34815  0.95848  1.0000
  H   H2764     1.0  0.59187  0.06833  0.75202  1.0000
  H   H2765     1.0  0.63386  0.07021  0.74653  1.0000
  H   H2766     1.0  0.55695  0.98858  0.49403  1.0000
  C   C1765     1.0  0.62297  0.06880  0.74407  1.0000
  H   H2767     1.0  0.59261  0.01017  0.88873  1.0000
  H   H2768     1.0  0.57639  0.10480  0.56504  1.0000
  C   C1766     1.0  0.51842  0.09376  0.65430  1.0000
  H   H2769     1.0  0.56631  0.00961  0.57176  1.0000
  H   H2770     1.0  0.64342  0.44515  0.97399  1.0000
  H   H2771     1.0  0.56002  0.21331  0.95173  1.0000
  H   H2772     1.0  0.72925  0.26958  0.80596  1.0000
  H   H2773     1.0  0.52525  0.03298  0.57503  1.0000
  N   N173      1.0  0.54266  0.01470  0.58537  1.0000
  C   C1767     1.0  0.61313  0.09685  0.73808  1.0000
  C   C1768     1.0  0.71245  0.25518  0.94299  1.0000
  C   C1769     1.0  0.66521  0.99670  0.86776  1.0000
  C   C1770     1.0  0.70271  0.01716  0.82293  1.0000
  H   H2774     1.0  0.66765  0.00826  0.86288  1.0000
  C   C1771     1.0  0.60048  0.09589  0.62639  1.0000
  C   C1772     1.0  0.60739  0.08055  0.63295  1.0000
  C   C1773     1.0  0.61839  0.07792  0.64220  1.0000
  C   C1774     1.0  0.62254  0.09057  0.64499  1.0000
  C   C1775     1.0  0.61579  0.10594  0.63825  1.0000
  C   C1776     1.0  0.60483  0.10858  0.62889  1.0000
  H   H2775     1.0  0.60426  0.07070  0.63093  1.0000
  H   H2776     1.0  0.62368  0.06600  0.64730  1.0000
  H   H2777     1.0  0.61899  0.11575  0.64028  1.0000
  H   H2778     1.0  0.59955  0.12048  0.62378  1.0000
  H   H2779     1.0  0.59241  0.20848  0.92945  1.0000
  H   H2780     1.0  0.58155  0.99659  0.51642  1.0000
  H   H2781     1.0  0.55321  0.02556  0.56198  1.0000
  C   C1777     1.0  0.65983  0.47247  0.93972  1.0000
  H   H2782     1.0  0.52536  0.05518  0.67256  1.0000
  H   H2783     1.0  0.53784  0.02675  0.60413  1.0000
  C   C1778     1.0  0.59111  0.00965  0.58941  1.0000
  C   C1779     1.0  0.58947  0.01742  0.60134  1.0000
  C   C1780     1.0  0.58897  0.00901  0.61687  1.0000
  H   H2784     1.0  0.54722  0.03825  0.65585  1.0000
  H   H2785     1.0  0.53607  0.98938  0.72275  1.0000
  H   H2786     1.0  0.59154  0.01625  0.57742  1.0000
  H   H2787     1.0  0.58872  0.02993  0.59841  1.0000
  C   C1781     1.0  0.72010  0.24093  0.95120  1.0000
  H   H2788     1.0  0.71499  0.01008  0.71093  1.0000
  C   C1782     1.0  0.68452  0.35405  0.92279  1.0000
  C   C1783     1.0  0.66900  0.35655  0.92134  1.0000
  C   C1784     1.0  0.66470  0.34617  0.91509  1.0000
  C   C1785     1.0  0.67586  0.33324  0.91029  1.0000
  C   C1786     1.0  0.69139  0.33073  0.91170  1.0000
  C   C1787     1.0  0.69571  0.34116  0.91788  1.0000
  H   H2789     1.0  0.66036  0.36657  0.92490  1.0000
  H   H2790     1.0  0.65269  0.34826  0.91386  1.0000
  H   H2791     1.0  0.70001  0.32066  0.90825  1.0000
  H   H2792     1.0  0.70772  0.33915  0.91908  1.0000
  C   C1788     1.0  0.66529  0.45610  0.94195  1.0000
  C   C1789     1.0  0.67402  0.44820  0.95342  1.0000
  C   C1790     1.0  0.67731  0.45660  0.96258  1.0000
  H   H2793     1.0  0.64124  0.28335  0.90309  1.0000
  C   C1791     1.0  0.66296  0.48087  0.94903  1.0000
  C   C1792     1.0  0.73204  0.15232  0.97374  1.0000
  H   H2794     1.0  0.67837  0.43560  0.95514  1.0000
  H   H2795     1.0  0.69926  0.04376  0.71714  1.0000
  Fe  Fe363     1.0  0.49421  0.06589  0.74646  1.0000
  C   C1793     1.0  0.58325  0.15810  0.74142  1.0000
  C   C1794     1.0  0.58732  0.27743  0.91285  1.0000
  C   C1795     1.0  0.57724  0.28421  0.90241  1.0000
  C   C1796     1.0  0.57809  0.27681  0.89032  1.0000
  C   C1797     1.0  0.58905  0.26268  0.88861  1.0000
  C   C1798     1.0  0.59943  0.25626  0.89877  1.0000
  C   C1799     1.0  0.59850  0.26352  0.91089  1.0000
  H   H2796     1.0  0.56857  0.29495  0.90384  1.0000
  H   H2797     1.0  0.57005  0.28191  0.88247  1.0000
  H   H2798     1.0  0.60823  0.24571  0.89731  1.0000
  H   H2799     1.0  0.60643  0.25830  0.91884  1.0000
  S   S732      1.0  0.60150  0.35127  0.91668  1.0000
  C   C1800     1.0  0.59259  0.36872  0.93933  1.0000
  C   C1801     1.0  0.59498  0.37884  0.94727  1.0000
  C   C1802     1.0  0.60874  0.38472  0.94227  1.0000
  H   H2800     1.0  0.55837  0.02053  0.59573  1.0000
  S   S733      1.0  0.67764  0.40169  0.95283  1.0000
  H   H2801     1.0  0.58201  0.36415  0.94332  1.0000
  C   C1803     1.0  0.55881  0.10828  0.76728  1.0000
  C   C1804     1.0  0.72933  0.28459  0.82069  1.0000
  H   H2802     1.0  0.63724  0.31066  0.87516  1.0000
  H   H2803     1.0  0.71172  0.03425  0.73960  1.0000
  H   H2804     1.0  0.51153  0.34407  0.94957  1.0000
  H   H2805     1.0  0.56678  0.05721  0.54109  1.0000
  C   C1805     1.0  0.55297  0.06497  0.56219  1.0000
  C   C1806     1.0  0.53784  0.06831  0.57152  1.0000
  H   H2806     1.0  0.63070  0.38513  0.92527  1.0000
  C   C1807     1.0  0.64611  0.32083  0.95314  1.0000
  H   H2807     1.0  0.63895  0.27258  0.80586  1.0000
  H   H2808     1.0  0.53608  0.07237  0.58217  1.0000
  C   C1808     1.0  0.61763  0.37054  0.92119  1.0000
  H   H2809     1.0  0.62464  0.26047  0.81344  1.0000
  H   H2810     1.0  0.58978  0.16334  0.74669  1.0000
  H   H2811     1.0  0.57597  0.18951  0.73467  1.0000
  Fe  Fe364     1.0  0.51760  0.07981  0.71889  1.0000
  Fe  Fe365     1.0  0.53054  0.03511  0.49908  1.0000
  C   C1809     1.0  0.54916  0.08168  0.76593  1.0000
  Fe  Fe366     1.0  0.55839  0.32835  0.95806  1.0000
  C   C1810     1.0  0.56964  0.18364  0.72982  1.0000
  N   N174      1.0  0.62697  0.30681  0.89996  1.0000
  H   H2812     1.0  0.59686  0.02808  0.86217  1.0000
  H   H2813     1.0  0.62061  0.30563  0.92485  1.0000
  C   C1811     1.0  0.55201  0.02924  0.66550  1.0000
  H   H2814     1.0  0.70359  0.04736  0.80973  1.0000
  H   H2815     1.0  0.72147  0.34018  0.84201  1.0000
  H   H2816     1.0  0.54898  0.00946  0.69364  1.0000
  H   H2817     1.0  0.63727  0.32580  0.88454  1.0000
  N   N175      1.0  0.70609  0.34844  0.86232  1.0000
  H   H2818     1.0  0.57655  0.21346  0.90946  1.0000
  Fe  Fe367     1.0  0.57972  0.34135  0.92771  1.0000
  C   C1812     1.0  0.55930  0.16074  0.73322  1.0000
  H   H2819     1.0  0.65084  0.30719  0.88745  1.0000
  N   N176      1.0  0.57034  0.08570  0.67392  1.0000
  C   C1813     1.0  0.56008  0.08464  0.68983  1.0000
  C   C1814     1.0  0.57917  0.06979  0.67188  1.0000
  C   C1815     1.0  0.58149  0.09566  0.67198  1.0000
  C   C1816     1.0  0.56061  0.09271  0.66199  1.0000
  H   H2820     1.0  0.55317  0.09643  0.69182  1.0000
  H   H2821     1.0  0.56698  0.07933  0.69915  1.0000
  H   H2822     1.0  0.55143  0.07730  0.69166  1.0000
  H   H2823     1.0  0.58697  0.06429  0.68040  1.0000
  H   H2824     1.0  0.57107  0.06189  0.67361  1.0000
  H   H2825     1.0  0.58675  0.07012  0.65987  1.0000
  H   H2826     1.0  0.58924  0.09687  0.66004  1.0000
  H   H2827     1.0  0.58930  0.09061  0.68053  1.0000
  H   H2828     1.0  0.57520  0.10772  0.67358  1.0000
  H   H2829     1.0  0.55321  0.10444  0.66361  1.0000
  H   H2830     1.0  0.55251  0.08517  0.66267  1.0000
  H   H2831     1.0  0.56804  0.09428  0.64983  1.0000
  C   C1817     1.0  0.71094  0.36365  0.85783  1.0000
  H   H2832     1.0  0.50202  0.03285  0.71572  1.0000
  H   H2833     1.0  0.49713  0.36790  0.90619  1.0000
  C   C1818     1.0  0.66750  0.98879  0.88281  1.0000
  C   C1819     1.0  0.49658  0.01293  0.71140  1.0000
  N   N177      1.0  0.68839  0.20917  0.91342  1.0000
  C   C1820     1.0  0.68290  0.19433  0.91749  1.0000
  C   C1821     1.0  0.70000  0.21008  0.89827  1.0000
  C   C1822     1.0  0.69586  0.20965  0.92580  1.0000
  C   C1823     1.0  0.67483  0.22263  0.91210  1.0000
  H   H2834     1.0  0.67434  0.19310  0.92902  1.0000
  H   H2835     1.0  0.69288  0.18393  0.91849  1.0000
  H   H2836     1.0  0.67704  0.19368  0.90844  1.0000
  H   H2837     1.0  0.70397  0.22140  0.89453  1.0000
  H   H2838     1.0  0.71065  0.20043  0.89905  1.0000
  H   H2839     1.0  0.69495  0.20908  0.88881  1.0000
  H   H2840     1.0  0.68766  0.20842  0.93754  1.0000
  H   H2841     1.0  0.69969  0.22090  0.92328  1.0000
  H   H2842     1.0  0.70642  0.19991  0.92681  1.0000
  H   H2843     1.0  0.67866  0.23403  0.90846  1.0000
  H   H2844     1.0  0.66610  0.22256  0.92349  1.0000
  H   H2845     1.0  0.66861  0.22233  0.90324  1.0000
  N   N178      1.0  0.64405  0.13905  0.91026  1.0000
  C   C1824     1.0  0.64200  0.13309  0.92746  1.0000
  C   C1825     1.0  0.62848  0.14388  0.90607  1.0000
  C   C1826     1.0  0.65414  0.12654  0.90209  1.0000
  C   C1827     1.0  0.65163  0.15265  0.90544  1.0000
  H   H2846     1.0  0.65342  0.12997  0.93113  1.0000
  H   H2847     1.0  0.63693  0.12240  0.93147  1.0000
  H   H2848     1.0  0.63395  0.14199  0.93402  1.0000
  H   H2849     1.0  0.62244  0.13389  0.90967  1.0000
  H   H2850     1.0  0.62057  0.15335  0.91198  1.0000
  H   H2851     1.0  0.62951  0.14849  0.89319  1.0000
  H   H2852     1.0  0.65518  0.13031  0.88915  1.0000
  H   H2853     1.0  0.64949  0.11558  0.90627  1.0000
  H   H2854     1.0  0.66630  0.12342  0.90412  1.0000
  H   H2855     1.0  0.66342  0.14931  0.90847  1.0000
  H   H2856     1.0  0.64445  0.16229  0.91142  1.0000
  H   H2857     1.0  0.65335  0.15750  0.89253  1.0000
  H   H2858     1.0  0.71411  0.34171  0.88395  1.0000
  H   H2859     1.0  0.58079  0.09247  0.58305  1.0000
  H   H2860     1.0  0.56328  0.00893  0.51223  1.0000
  N   N179      1.0  0.60949  0.08175  0.74785  1.0000
  H   H2861     1.0  0.66436  0.08416  0.97419  1.0000
  H   H2862     1.0  0.70742  0.08254  0.96108  1.0000
  H   H2863     1.0  0.55939  0.22913  0.90927  1.0000
  Fe  Fe368     1.0  0.73529  0.07009  0.73816  1.0000
  C   C1828     1.0  0.72532  0.22961  0.92848  1.0000
  H   H2864     1.0  0.52189  0.02976  0.66634  1.0000
  H   H2865     1.0  0.56379  0.99966  0.67963  1.0000
  H   H2866     1.0  0.56977  0.24990  0.92383  1.0000
  C   C1829     1.0  0.62009  0.38056  0.92923  1.0000
  H   H2867     1.0  0.55080  0.24503  0.92960  1.0000
  H   H2868     1.0  0.67011  0.15432  0.66280  1.0000
  H   H2869     1.0  0.70416  0.01478  0.72955  1.0000
  S   S734      1.0  0.67557  0.48277  0.97275  1.0000
  C   C1830     1.0  0.73842  0.16506  0.97276  1.0000
  H   H2870     1.0  0.60354  0.07084  0.77240  1.0000
  C   C1831     1.0  0.56093  0.21379  0.93911  1.0000
  C   C1832     1.0  0.52042  0.09062  0.68117  1.0000
  H   H2871     1.0  0.52590  0.06668  0.69402  1.0000
  C   C1833     1.0  0.57125  0.22532  0.91212  1.0000
  S   S735      1.0  0.69669  0.12718  0.95976  1.0000
  Fe  Fe369     1.0  0.51331  0.01390  0.52673  1.0000
  C   C1834     1.0  0.64793  0.18853  0.67242  1.0000
  H   H2872     1.0  0.61574  0.09695  0.72532  1.0000
  S   S736      1.0  0.59274  0.98432  0.57795  1.0000
  N   N180      1.0  0.57038  0.22515  0.92869  1.0000
  H   H2873     1.0  0.56207  0.06928  0.78404  1.0000
  S   S737      1.0  0.63967  0.41655  0.96112  1.0000
  H   H2874     1.0  0.62631  0.35691  0.95996  1.0000
  S   S738      1.0  0.51203  0.05685  0.50351  1.0000
  H   H2875     1.0  0.64821  0.19585  0.66031  1.0000
  H   H2876     1.0  0.62638  0.36739  0.91105  1.0000
  H   H2877     1.0  0.62060  0.28471  0.91207  1.0000
  H   H2878     1.0  0.51663  0.10126  0.64308  1.0000
  H   H2879     1.0  0.55663  0.15894  0.76392  1.0000
  H   H2880     1.0  0.54295  0.01679  0.64685  1.0000
  H   H2881     1.0  0.53593  0.99914  0.60760  1.0000
  H   H2882     1.0  0.54744  0.16807  0.73201  1.0000
  H   H2883     1.0  0.72751  0.15947  0.65437  1.0000
  C   C1835     1.0  0.61935  0.00218  0.86787  1.0000
  H   H2884     1.0  0.57033  0.09276  0.78541  1.0000
  H   H2885     1.0  0.70178  0.03843  0.83872  1.0000
  H   H2886     1.0  0.60188  0.31029  0.90806  1.0000
  S   S739      1.0  0.55256  0.02933  0.48044  1.0000
  C   C1836     1.0  0.65953  0.98973  0.85905  1.0000
  S   S740      1.0  0.73383  0.09074  0.74769  1.0000
  H   H2887     1.0  0.58356  0.15511  0.85465  1.0000
  H   H2888     1.0  0.67053  0.15518  0.68969  1.0000
  S   S741      1.0  0.58944  0.11190  0.80269  1.0000
  H   H2889     1.0  0.58233  0.14634  0.74899  1.0000
  H   H2890     1.0  0.52461  0.02691  0.68590  1.0000
  C   C1837     1.0  0.54213  0.05787  0.54392  1.0000
  H   H2891     1.0  0.62571  0.06847  0.73139  1.0000
  H   H2892     1.0  0.54170  0.99810  0.66016  1.0000
  H   H2893     1.0  0.60312  0.10690  0.74040  1.0000
  H   H2894     1.0  0.65752  0.99603  0.84752  1.0000
  H   H2895     1.0  0.62370  0.09906  0.74041  1.0000
  S   S742      1.0  0.54336  0.06474  0.76549  1.0000
  H   H2896     1.0  0.59667  0.09174  0.76785  1.0000
  S   S743      1.0  0.50312  0.06242  0.72182  1.0000
  H   H2897     1.0  0.54383  0.05389  0.53324  1.0000
  Fe  Fe370     1.0  0.72392  0.07650  0.77087  1.0000
  H   H2898     1.0  0.60820  0.34145  0.95889  1.0000
  S   S744      1.0  0.52138  0.06903  0.64119  1.0000
  C   C1838     1.0  0.68919  0.35072  0.87007  1.0000
  C   C1839     1.0  0.56297  0.24106  0.93170  1.0000
  S   S745      1.0  0.56447  0.12531  0.76768  1.0000
  C   C1840     1.0  0.72338  0.03181  0.73145  1.0000
  H   H2899     1.0  0.71562  0.05208  0.70512  1.0000
  C   C1841     1.0  0.61085  0.31473  0.89782  1.0000
  H   H2900     1.0  0.70921  0.03843  0.69861  1.0000
  C   C1842     1.0  0.52346  0.07431  0.68311  1.0000
  C   C1843     1.0  0.62944  0.32754  0.97734  1.0000
  S   S746      1.0  0.53235  0.02614  0.52443  1.0000
  Fe  Fe371     1.0  0.52293  0.04448  0.73073  1.0000
  H   H2901     1.0  0.72366  0.36234  0.85203  1.0000
  S   S747      1.0  0.51934  0.09873  0.69690  1.0000
  C   C1844     1.0  0.62861  0.27019  0.81550  1.0000
  C   C1845     1.0  0.52499  0.99596  0.71968  1.0000
  H   H2902     1.0  0.63754  0.02163  0.86717  1.0000
  H   H2903     1.0  0.54569  0.12069  0.74932  1.0000
  C   C1846     1.0  0.55509  0.05979  0.54836  1.0000
  N   N181      1.0  0.66893  0.11073  0.75697  1.0000
  C   C1847     1.0  0.68087  0.11709  0.76009  1.0000
  C   C1848     1.0  0.65303  0.11875  0.76407  1.0000
  C   C1849     1.0  0.67120  0.09370  0.76398  1.0000
  C   C1850     1.0  0.67056  0.11338  0.73982  1.0000
  H   H2904     1.0  0.69304  0.11102  0.75521  1.0000
  H   H2905     1.0  0.67984  0.11540  0.77296  1.0000
  H   H2906     1.0  0.67961  0.12989  0.75487  1.0000
  H   H2907     1.0  0.64377  0.11406  0.76210  1.0000
  H   H2908     1.0  0.65147  0.11694  0.77702  1.0000
  H   H2909     1.0  0.65073  0.13165  0.75907  1.0000
  H   H2910     1.0  0.66251  0.08846  0.76170  1.0000
  H   H2911     1.0  0.66970  0.09134  0.77699  1.0000
  H   H2912     1.0  0.68324  0.08727  0.75926  1.0000
  H   H2913     1.0  0.68242  0.10739  0.73409  1.0000
  H   H2914     1.0  0.66888  0.12611  0.73416  1.0000
  H   H2915     1.0  0.66167  0.10876  0.73708  1.0000
  N   N182      1.0  0.56761  0.16822  0.74009  1.0000
  H   H2916     1.0  0.51593  0.11300  0.66512  1.0000
  H   H2917     1.0  0.59387  0.22873  0.92422  1.0000
  H   H2918     1.0  0.51317  0.06944  0.57413  1.0000
  H   H2919     1.0  0.56231  0.24149  0.94403  1.0000
  H   H2920     1.0  0.72260  0.03649  0.83542  1.0000
  C   C1851     1.0  0.67180  0.47293  0.96042  1.0000
  H   H2921     1.0  0.58619  0.21993  0.94423  1.0000
  C   C1852     1.0  0.58642  0.22037  0.93178  1.0000
  C   C1853     1.0  0.56342  0.09373  0.77704  1.0000
  H   H2922     1.0  0.56635  0.20168  0.93706  1.0000
  H   H2923     1.0  0.57668  0.18236  0.71784  1.0000
  S   S748      1.0  0.51034  0.05918  0.54818  1.0000
  H   H2924     1.0  0.58494  0.08918  0.74702  1.0000
  H   H2925     1.0  0.71927  0.28131  0.82945  1.0000
  C   C1854     1.0  0.59016  0.99275  0.62043  1.0000
  C   C1855     1.0  0.54462  0.09622  0.75612  1.0000
  H   H2926     1.0  0.72600  0.08031  0.80131  1.0000
  H   H2927     1.0  0.71350  0.19423  0.95318  1.0000
  H   H2928     1.0  0.54891  0.99245  0.53551  1.0000
  S   S749      1.0  0.51311  0.04648  0.75591  1.0000
  S   S750      1.0  0.72931  0.30440  0.83915  1.0000
  C   C1856     1.0  0.54745  0.00827  0.65692  1.0000
  H   H2929     1.0  0.67733  0.18731  0.65463  1.0000
  H   H2930     1.0  0.62061  0.33557  0.94144  1.0000
  C   C1857     1.0  0.63856  0.31291  0.88614  1.0000
  C   C1858     1.0  0.71101  0.04112  0.70917  1.0000
  C   C1859     1.0  0.71598  0.01345  0.72147  1.0000
  S   S751      1.0  0.53842  0.06163  0.72553  1.0000
  H   H2931     1.0  0.54878  0.21693  0.93705  1.0000
  H   H2932     1.0  0.59709  0.07889  0.73205  1.0000
  H   H2933     1.0  0.74054  0.10832  0.69338  1.0000
  H   H2934     1.0  0.70201  0.05752  0.96035  1.0000
  C   C1860     1.0  0.68949  0.06188  0.96588  1.0000
  C   C1861     1.0  0.50625  0.35580  0.92693  1.0000
  C   C1862     1.0  0.52019  0.01204  0.71968  1.0000
  N   N183      1.0  0.63255  0.33221  0.95998  1.0000
  C   C1863     1.0  0.55395  0.01382  0.57017  1.0000
  H   H2935     1.0  0.60859  0.31267  0.88717  1.0000
  H   H2936     1.0  0.57853  0.23351  0.90390  1.0000
  H   H2937     1.0  0.68413  0.45039  0.97141  1.0000
  H   H2938     1.0  0.62062  0.05718  0.75110  1.0000
  Fe  Fe372     1.0  0.52718  0.06524  0.75004  1.0000
  S   S752      1.0  0.58293  0.31909  0.94585  1.0000
  H   H2939     1.0  0.72401  0.00336  0.72754  1.0000
  C   C1864     1.0  0.59151  0.98500  0.60851  1.0000
  H   H2940     1.0  0.63831  0.35200  0.94189  1.0000
  C   C1865     1.0  0.66044  0.16497  0.66256  1.0000
  C   C1866     1.0  0.50150  0.99688  0.71125  1.0000
  H   H2941     1.0  0.61638  0.08071  0.55321  1.0000
  C   C1867     1.0  0.55089  0.00414  0.68337  1.0000
  H   H2942     1.0  0.72853  0.04234  0.72857  1.0000
  H   H2943     1.0  0.70537  0.33070  0.85109  1.0000
  C   C1868     1.0  0.61850  0.33253  0.95452  1.0000
  H   H2944     1.0  0.70757  0.26512  0.94856  1.0000
  C   C1869     1.0  0.71894  0.15469  0.96726  1.0000
  H   H2945     1.0  0.62788  0.00426  0.85641  1.0000
  C   C1870     1.0  0.71335  0.03021  0.83613  1.0000
  S   S753      1.0  0.58524  0.14857  0.78299  1.0000
  H   H2946     1.0  0.73181  0.21699  0.95037  1.0000
  H   H2947     1.0  0.54006  0.99081  0.59082  1.0000
  H   H2948     1.0  0.56607  0.15878  0.72138  1.0000
  H   H2949     1.0  0.53726  0.09728  0.74814  1.0000
  H   H2950     1.0  0.63482  0.00838  0.88609  1.0000
  H   H2951     1.0  0.49916  0.40257  0.94020  1.0000
  C   C1871     1.0  0.60660  0.08195  0.76467  1.0000
  S   S754      1.0  0.53324  0.02159  0.72271  1.0000
  H   H2952     1.0  0.55758  0.14908  0.74075  1.0000
  H   H2953     1.0  0.59973  0.02249  0.89647  1.0000
  C   C1872     1.0  0.54942  0.10946  0.75682  1.0000
  Fe  Fe373     1.0  0.58342  0.12547  0.77956  1.0000
  H   H2954     1.0  0.64137  0.30416  0.91620  1.0000
  C   C1873     1.0  0.55866  0.08047  0.77631  1.0000
  C   C1874     1.0  0.62930  0.30994  0.91423  1.0000
  H   H2955     1.0  0.68512  0.33947  0.87358  1.0000
  H   H2956     1.0  0.62729  0.28697  0.89115  1.0000
  Fe  Fe374     1.0  0.65678  0.39663  0.97222  1.0000
  N   N184      1.0  0.62888  0.11219  0.84612  1.0000
  C   C1875     1.0  0.64218  0.10126  0.83835  1.0000
  C   C1876     1.0  0.62932  0.12853  0.83748  1.0000
  C   C1877     1.0  0.63015  0.11028  0.86249  1.0000
  C   C1878     1.0  0.61383  0.10868  0.84623  1.0000
  H   H2957     1.0  0.64279  0.08898  0.84525  1.0000
  H   H2958     1.0  0.65369  0.10413  0.83722  1.0000
  H   H2959     1.0  0.64103  0.10153  0.82635  1.0000
  H   H2960     1.0  0.61990  0.13709  0.84348  1.0000
  H   H2961     1.0  0.64074  0.13147  0.83652  1.0000
  H   H2962     1.0  0.62747  0.13061  0.82536  1.0000
  H   H2963     1.0  0.62968  0.09807  0.86934  1.0000
  H   H2964     1.0  0.62031  0.11840  0.86869  1.0000
  H   H2965     1.0  0.64144  0.11266  0.86288  1.0000
  H   H2966     1.0  0.61290  0.09657  0.85301  1.0000
  H   H2967     1.0  0.61254  0.10966  0.83411  1.0000
  H   H2968     1.0  0.60353  0.11701  0.85162  1.0000
  N   N185      1.0  0.63259  0.26604  0.83109  1.0000
  C   C1879     1.0  0.63791  0.27914  0.83331  1.0000
  C   C1880     1.0  0.61849  0.26312  0.84347  1.0000
  C   C1881     1.0  0.64532  0.25173  0.83209  1.0000
  H   H2969     1.0  0.62870  0.29021  0.83240  1.0000
  H   H2970     1.0  0.64878  0.28146  0.82446  1.0000
  H   H2971     1.0  0.64066  0.27651  0.84510  1.0000
  H   H2972     1.0  0.61367  0.25379  0.84183  1.0000
  H   H2973     1.0  0.62116  0.25927  0.85540  1.0000
  H   H2974     1.0  0.60883  0.27382  0.84358  1.0000
  H   H2975     1.0  0.64175  0.24161  0.83040  1.0000
  H   H2976     1.0  0.64856  0.24817  0.84375  1.0000
  H   H2977     1.0  0.65620  0.25355  0.82303  1.0000
  N   N186      1.0  0.60100  0.09819  0.56574  1.0000
  C   C1882     1.0  0.60513  0.11150  0.55291  1.0000
  C   C1883     1.0  0.61074  0.09486  0.57745  1.0000
  C   C1884     1.0  0.60385  0.08414  0.55923  1.0000
  C   C1885     1.0  0.58419  0.10230  0.57342  1.0000
  H   H2978     1.0  0.59795  0.11433  0.54391  1.0000
  H   H2979     1.0  0.61776  0.10882  0.54685  1.0000
  H   H2980     1.0  0.60305  0.12229  0.55746  1.0000
  H   H2981     1.0  0.60788  0.08492  0.58736  1.0000
  H   H2982     1.0  0.62353  0.09174  0.57213  1.0000
  H   H2983     1.0  0.60868  0.10514  0.58279  1.0000
  H   H2984     1.0  0.68172  0.35921  0.86219  1.0000
  H   H2985     1.0  0.71167  0.32578  0.87737  1.0000
  H   H2986     1.0  0.69095  0.02523  0.82510  1.0000
  H   H2987     1.0  0.51763  0.02166  0.59386  1.0000
  H   H2988     1.0  0.64916  0.16091  0.66643  1.0000
  H   H2989     1.0  0.60904  0.99948  0.86558  1.0000
  C   C1886     1.0  0.49431  0.99214  0.52040  1.0000
  S   S755      1.0  0.72248  0.23951  0.97016  1.0000
  N   N187      1.0  0.61474  0.01582  0.87536  1.0000
  H   H2990     1.0  0.60867  0.00192  0.89864  1.0000
  C   C1887     1.0  0.71870  0.18249  0.95877  1.0000
  H   H2991     1.0  0.66096  0.17265  0.69707  1.0000
  H   H2992     1.0  0.61583  0.03292  0.85349  1.0000
  H   H2993     1.0  0.70193  0.35035  0.83951  1.0000
  H   H2994     1.0  0.72719  0.07008  0.82934  1.0000
  H   H2995     1.0  0.64389  0.30873  0.95690  1.0000
  H   H2996     1.0  0.63648  0.18474  0.67659  1.0000
  C   C1888     1.0  0.54372  0.99885  0.59573  1.0000
  C   C1889     1.0  0.60341  0.01246  0.89047  1.0000
  H   H2997     1.0  0.62566  0.02890  0.88408  1.0000
  C   C1890     1.0  0.62881  0.01877  0.87831  1.0000
  H   H2998     1.0  0.70897  0.36868  0.86831  1.0000
  H   H2999     1.0  0.71374  0.02016  0.84646  1.0000
  H   H3000     1.0  0.64865  0.32398  0.94004  1.0000
  H   H3001     1.0  0.54655  0.03706  0.58518  1.0000
  H   H3002     1.0  0.52108  0.01114  0.67995  1.0000
  H   H3003     1.0  0.65296  0.47860  0.93092  1.0000
  H   H3004     1.0  0.73178  0.00355  0.82853  1.0000
  C   C1891     1.0  0.51559  0.98834  0.71566  1.0000
  N   N188      1.0  0.68809  0.07248  0.97624  1.0000
  C   C1892     1.0  0.49156  0.39841  0.93515  1.0000
  C   C1893     1.0  0.73163  0.18014  0.96539  1.0000
  H   H3005     1.0  0.68843  0.09301  0.95747  1.0000
  C   C1894     1.0  0.59186  0.99347  0.59300  1.0000
  H   H3006     1.0  0.49899  0.39430  0.92438  1.0000
  H   H3007     1.0  0.73029  0.21966  0.92293  1.0000
  H   H3008     1.0  0.73693  0.02329  0.69517  1.0000
  H   H3009     1.0  0.57731  0.00007  0.49731  1.0000
  H   H3010     1.0  0.69426  0.09423  0.97442  1.0000
  H   H3011     1.0  0.65703  0.32052  0.95674  1.0000
  C   C1895     1.0  0.73761  0.02573  0.70630  1.0000
  S   S756      1.0  0.49340  0.03344  0.53352  1.0000
  H   H3012     1.0  0.70733  0.48212  0.91156  1.0000
  H   H3013     1.0  0.68686  0.48384  0.92064  1.0000
  H   H3014     1.0  0.62508  0.99139  0.87542  1.0000
  H   H3015     1.0  0.74080  0.01967  0.81698  1.0000
  H   H3016     1.0  0.74046  0.99267  0.77926  1.0000
  H   H3017     1.0  0.73718  0.14064  0.97955  1.0000
  H   H3018     1.0  0.73180  0.12574  0.70111  1.0000
  Fe  Fe375     1.0  0.49429  0.04197  0.50768  1.0000
  H   H3019     1.0  0.73276  0.00959  0.80771  1.0000
  H   H3020     1.0  0.49355  0.91904  0.44800  1.0000
  C   C1896     1.0  0.70372  0.82864  0.22231  1.0000
  H   H3021     1.0  0.49486  0.85945  0.26591  1.0000
  H   H3022     1.0  0.68535  0.80653  0.98546  1.0000
  Fe  Fe376     1.0  0.53302  0.62210  0.07047  1.0000
  S   S757      1.0  0.55016  0.63538  0.05245  1.0000
  S   S758      1.0  0.50701  0.62676  0.07034  1.0000
  Fe  Fe377     1.0  0.55822  0.60146  0.08781  1.0000
  S   S759      1.0  0.57761  0.61224  0.07097  1.0000
  S   S760      1.0  0.56049  0.58216  0.10922  1.0000
  Fe  Fe378     1.0  0.56030  0.63520  0.07263  1.0000
  S   S761      1.0  0.57066  0.65545  0.07249  1.0000
  Fe  Fe379     1.0  0.56611  0.61162  0.05231  1.0000
  S   S762      1.0  0.57941  0.60467  0.02946  1.0000
  S   S763      1.0  0.54146  0.62439  0.09080  1.0000
  S   S764      1.0  0.54849  0.59831  0.06910  1.0000
  Fe  Fe380     1.0  0.67964  0.57092  0.09023  1.0000
  S   S765      1.0  0.65501  0.58258  0.08723  1.0000
  S   S766      1.0  0.69733  0.58481  0.08945  1.0000
  Fe  Fe381     1.0  0.64851  0.56124  0.10470  1.0000
  S   S767      1.0  0.62786  0.56402  0.12492  1.0000
  Fe  Fe382     1.0  0.65956  0.56775  0.06967  1.0000
  S   S768      1.0  0.65258  0.57702  0.04639  1.0000
  Fe  Fe383     1.0  0.56475  0.91824  0.33804  1.0000
  S   S769      1.0  0.58888  0.92240  0.33432  1.0000
  S   S770      1.0  0.56034  0.91170  0.31777  1.0000
  Fe  Fe384     1.0  0.55472  0.92375  0.37138  1.0000
  S   S771      1.0  0.57814  0.92804  0.37064  1.0000
  Fe  Fe385     1.0  0.57670  0.94235  0.34637  1.0000
  S   S772      1.0  0.58054  0.96687  0.33604  1.0000
  Fe  Fe386     1.0  0.58826  0.90765  0.35863  1.0000
  S   S773      1.0  0.60890  0.88857  0.36471  1.0000
  S   S774      1.0  0.55252  0.93957  0.34786  1.0000
  S   S775      1.0  0.56485  0.90190  0.36163  1.0000
  H   H3023     1.0  0.57591  0.84252  0.33177  1.0000
  H   H3024     1.0  0.71954  0.92050  0.20009  1.0000
  C   C1897     1.0  0.66439  0.50291  0.08987  1.0000
  S   S776      1.0  0.51205  0.92570  0.26432  1.0000
  H   H3025     1.0  0.54778  0.71826  0.10333  1.0000
  H   H3026     1.0  0.51547  0.59988  0.09272  1.0000
  H   H3027     1.0  0.51104  0.88017  0.43737  1.0000
  Fe  Fe387     1.0  0.51011  0.90351  0.25933  1.0000
  S   S777      1.0  0.53123  0.88330  0.25637  1.0000
  H   H3028     1.0  0.52800  0.55677  0.09670  1.0000
  H   H3029     1.0  0.69093  0.88830  0.30550  1.0000
  Fe  Fe388     1.0  0.73531  0.63322  0.16591  1.0000
  H   H3030     1.0  0.69481  0.87316  0.32245  1.0000
  H   H3031     1.0  0.52195  0.59825  0.05839  1.0000
  H   H3032     1.0  0.52076  0.73408  0.13739  1.0000
  H   H3033     1.0  0.59088  0.57285  0.02312  1.0000
  H   H3034     1.0  0.74070  0.89406  0.26667  1.0000
  S   S778      1.0  0.70688  0.88660  0.17935  1.0000
  H   H3035     1.0  0.49918  0.56380  0.10704  1.0000
  Fe  Fe389     1.0  0.72064  0.86072  0.14857  1.0000
  S   S779      1.0  0.70157  0.88268  0.14627  1.0000
  H   H3036     1.0  0.72415  0.75509  0.01176  1.0000
  Fe  Fe390     1.0  0.71731  0.89324  0.15368  1.0000
  S   S780      1.0  0.72219  0.91743  0.14339  1.0000
  Fe  Fe391     1.0  0.69293  0.87403  0.17214  1.0000
  S   S781      1.0  0.66751  0.87683  0.18460  1.0000
  H   H3037     1.0  0.64967  0.86201  0.11432  1.0000
  S   S782      1.0  0.71072  0.85118  0.17405  1.0000
  H   H3038     1.0  0.72326  0.95702  0.17022  1.0000
  C   C1898     1.0  0.60064  0.56238  0.02180  1.0000
  C   C1899     1.0  0.62605  0.80529  0.99371  1.0000
  Fe  Fe392     1.0  0.59785  0.80319  0.18738  1.0000
  S   S783      1.0  0.61864  0.80867  0.19211  1.0000
  S   S784      1.0  0.60705  0.78197  0.17597  1.0000
  Fe  Fe393     1.0  0.57636  0.83354  0.19639  1.0000
  S   S785      1.0  0.59581  0.84144  0.20081  1.0000
  S   S786      1.0  0.55248  0.85024  0.19841  1.0000
  Fe  Fe394     1.0  0.61033  0.83302  0.17918  1.0000
  S   S787      1.0  0.62919  0.84336  0.16070  1.0000
  Fe  Fe395     1.0  0.60241  0.81639  0.21337  1.0000
  S   S788      1.0  0.60940  0.81090  0.23663  1.0000
  S   S789      1.0  0.59036  0.82748  0.17324  1.0000
  S   S790      1.0  0.58206  0.80866  0.21028  1.0000
  Fe  Fe396     1.0  0.65553  0.84514  0.29743  1.0000
  S   S791      1.0  0.66130  0.82955  0.28022  1.0000
  S   S792      1.0  0.63934  0.83964  0.32101  1.0000
  Fe  Fe397     1.0  0.67690  0.86633  0.27635  1.0000
  S   S793      1.0  0.68411  0.85302  0.25724  1.0000
  S   S794      1.0  0.68740  0.88708  0.27284  1.0000
  Fe  Fe398     1.0  0.65857  0.85228  0.26244  1.0000
  S   S795      1.0  0.64684  0.85786  0.24208  1.0000
  Fe  Fe399     1.0  0.68636  0.83154  0.27667  1.0000
  S   S796      1.0  0.70728  0.81162  0.27176  1.0000
  S   S797      1.0  0.65106  0.86779  0.27984  1.0000
  S   S798      1.0  0.68078  0.84496  0.29566  1.0000
  Fe  Fe400     1.0  0.68940  0.80295  0.06066  1.0000
  S   S799      1.0  0.70564  0.80331  0.07549  1.0000
  S   S800      1.0  0.69479  0.81188  0.03430  1.0000
  Fe  Fe401     1.0  0.66650  0.78869  0.08858  1.0000
  S   S801      1.0  0.68096  0.78723  0.10545  1.0000
  S   S802      1.0  0.64286  0.78290  0.10003  1.0000
  Fe  Fe402     1.0  0.68344  0.81151  0.09240  1.0000
  S   S803      1.0  0.67731  0.82840  0.10842  1.0000
  Fe  Fe403     1.0  0.70168  0.77902  0.08729  1.0000
  H   H3039     1.0  0.51355  0.93669  0.41922  1.0000
  S   S804      1.0  0.66755  0.81360  0.07652  1.0000
  S   S805      1.0  0.68703  0.77800  0.07147  1.0000
  Fe  Fe404     1.0  0.71446  0.65633  0.14489  1.0000
  S   S806      1.0  0.69813  0.67978  0.13951  1.0000
  S   S807      1.0  0.70995  0.63625  0.16526  1.0000
  Fe  Fe405     1.0  0.61328  0.69024  0.15235  1.0000
  S   S808      1.0  0.61632  0.68351  0.12954  1.0000
  S   S809      1.0  0.62732  0.67646  0.17046  1.0000
  Fe  Fe406     1.0  0.58943  0.72071  0.14442  1.0000
  S   S810      1.0  0.59024  0.71662  0.12078  1.0000
  S   S811      1.0  0.57325  0.74109  0.15472  1.0000
  Fe  Fe407     1.0  0.59002  0.69144  0.13324  1.0000
  S   S812      1.0  0.57389  0.67642  0.13276  1.0000
  Fe  Fe408     1.0  0.61639  0.70904  0.11911  1.0000
  S   S813      1.0  0.63492  0.71654  0.09818  1.0000
  S   S814      1.0  0.58700  0.69620  0.15714  1.0000
  S   S815      1.0  0.61553  0.71504  0.14173  1.0000
  C   C1900     1.0  0.67853  0.67903  0.14852  1.0000
  C   C1901     1.0  0.67435  0.67129  0.16423  1.0000
  C   C1902     1.0  0.65853  0.67063  0.17111  1.0000
  C   C1903     1.0  0.64701  0.67758  0.16222  1.0000
  C   C1904     1.0  0.65128  0.68518  0.14651  1.0000
  C   C1905     1.0  0.66697  0.68598  0.13970  1.0000
  H   H3040     1.0  0.68329  0.66591  0.17108  1.0000
  H   H3041     1.0  0.65529  0.66465  0.18326  1.0000
  H   H3042     1.0  0.64259  0.69021  0.13941  1.0000
  H   H3043     1.0  0.67016  0.69159  0.12745  1.0000
  C   C1906     1.0  0.63658  0.73551  0.09770  1.0000
  C   C1907     1.0  0.62544  0.74443  0.10779  1.0000
  C   C1908     1.0  0.62738  0.75906  0.10828  1.0000
  C   C1909     1.0  0.64038  0.76492  0.09855  1.0000
  C   C1910     1.0  0.65121  0.75632  0.08799  1.0000
  C   C1911     1.0  0.64934  0.74158  0.08759  1.0000
  H   H3044     1.0  0.61520  0.74017  0.11511  1.0000
  H   H3045     1.0  0.61880  0.76583  0.11625  1.0000
  H   H3046     1.0  0.66090  0.76113  0.08004  1.0000
  H   H3047     1.0  0.65776  0.73486  0.07950  1.0000
  C   C1912     1.0  0.72197  0.80655  0.28280  1.0000
  C   C1913     1.0  0.72227  0.81610  0.29243  1.0000
  H   H3048     1.0  0.51363  0.87846  0.46435  1.0000
  C   C1914     1.0  0.61397  0.56921  0.03789  1.0000
  H   H3049     1.0  0.61919  0.82722  0.14214  1.0000
  H   H3050     1.0  0.54108  0.71760  0.15213  1.0000
  H   H3051     1.0  0.71309  0.82647  0.29370  1.0000
  H   H3052     1.0  0.54628  0.97526  0.34966  1.0000
  H   H3053     1.0  0.61052  0.58943  0.01055  1.0000
  C   C1915     1.0  0.59670  0.77255  0.16879  1.0000
  C   C1916     1.0  0.60538  0.76306  0.15805  1.0000
  C   C1917     1.0  0.59812  0.75390  0.15324  1.0000
  C   C1918     1.0  0.58214  0.75390  0.15931  1.0000
  C   C1919     1.0  0.57332  0.76372  0.16973  1.0000
  C   C1920     1.0  0.58057  0.77306  0.17444  1.0000
  H   H3054     1.0  0.61784  0.76264  0.15354  1.0000
  H   H3055     1.0  0.60493  0.74685  0.14480  1.0000
  H   H3056     1.0  0.56093  0.76387  0.17443  1.0000
  H   H3057     1.0  0.57378  0.78027  0.18279  1.0000
  C   C1921     1.0  0.62114  0.82288  0.23784  1.0000
  C   C1922     1.0  0.62723  0.83337  0.22450  1.0000
  C   C1923     1.0  0.63522  0.84396  0.22596  1.0000
  C   C1924     1.0  0.63743  0.84392  0.24066  1.0000
  C   C1925     1.0  0.63192  0.83301  0.25391  1.0000
  C   C1926     1.0  0.62372  0.82255  0.25250  1.0000
  H   H3058     1.0  0.62554  0.83354  0.21310  1.0000
  H   H3059     1.0  0.63963  0.85225  0.21565  1.0000
  H   H3060     1.0  0.63360  0.83289  0.26530  1.0000
  H   H3061     1.0  0.61909  0.81439  0.26283  1.0000
  H   H3062     1.0  0.57176  0.98311  0.28998  1.0000
  C   C1927     1.0  0.59136  0.97267  0.37422  1.0000
  H   H3063     1.0  0.69071  0.92250  0.21168  1.0000
  C   C1928     1.0  0.71719  0.89116  0.26924  1.0000
  C   C1929     1.0  0.70768  0.88044  0.27200  1.0000
  C   C1930     1.0  0.71437  0.86435  0.27431  1.0000
  C   C1931     1.0  0.73041  0.85895  0.27430  1.0000
  H   H3064     1.0  0.59717  0.55237  0.03125  1.0000
  H   H3065     1.0  0.71204  0.90362  0.26767  1.0000
  H   H3066     1.0  0.70723  0.85597  0.27624  1.0000
  S   S816      1.0  0.66563  0.78345  0.99519  1.0000
  C   C1932     1.0  0.71469  0.92890  0.15759  1.0000
  C   C1933     1.0  0.72285  0.93972  0.15819  1.0000
  C   C1934     1.0  0.71672  0.94903  0.16948  1.0000
  C   C1935     1.0  0.70237  0.94761  0.18005  1.0000
  C   C1936     1.0  0.69412  0.93699  0.17925  1.0000
  C   C1937     1.0  0.70028  0.92763  0.16807  1.0000
  H   H3067     1.0  0.59168  0.56828  0.98263  1.0000
  C   C1938     1.0  0.64149  0.82336  0.99321  1.0000
  H   H3068     1.0  0.68283  0.93613  0.18714  1.0000
  H   H3069     1.0  0.69368  0.91967  0.16731  1.0000
  C   C1939     1.0  0.71521  0.84112  0.12374  1.0000
  C   C1940     1.0  0.70171  0.83753  0.13466  1.0000
  C   C1941     1.0  0.69068  0.83254  0.13000  1.0000
  C   C1942     1.0  0.69287  0.83147  0.11440  1.0000
  C   C1943     1.0  0.70649  0.83480  0.10351  1.0000
  C   C1944     1.0  0.71766  0.83959  0.10820  1.0000
  H   H3070     1.0  0.69990  0.83839  0.14673  1.0000
  H   H3071     1.0  0.68039  0.82950  0.13848  1.0000
  H   H3072     1.0  0.70810  0.83428  0.09136  1.0000
  C   C1945     1.0  0.51678  0.59323  0.10472  1.0000
  C   C1946     1.0  0.65701  0.86632  0.17924  1.0000
  C   C1947     1.0  0.64057  0.86915  0.18411  1.0000
  C   C1948     1.0  0.63194  0.86154  0.17906  1.0000
  C   C1949     1.0  0.63977  0.85127  0.16896  1.0000
  C   C1950     1.0  0.65621  0.84809  0.16454  1.0000
  C   C1951     1.0  0.66487  0.85553  0.16973  1.0000
  H   H3073     1.0  0.63452  0.87747  0.19154  1.0000
  H   H3074     1.0  0.61922  0.86406  0.18248  1.0000
  H   H3075     1.0  0.66220  0.83986  0.15710  1.0000
  H   H3076     1.0  0.67757  0.85317  0.16612  1.0000
  C   C1952     1.0  0.54043  0.91511  0.44114  1.0000
  H   H3077     1.0  0.52759  0.70539  0.12291  1.0000
  H   H3078     1.0  0.50403  0.93693  0.32873  1.0000
  H   H3079     1.0  0.56337  0.90205  0.43183  1.0000
  C   C1953     1.0  0.55250  0.90966  0.42910  1.0000
  Fe  Fe409     1.0  0.72551  0.86462  0.17923  1.0000
  C   C1954     1.0  0.50401  0.89236  0.43739  1.0000
  H   H3080     1.0  0.62511  0.57151  0.03884  1.0000
  H   H3081     1.0  0.66640  0.85837  0.32603  1.0000
  C   C1955     1.0  0.52647  0.92502  0.43749  1.0000
  C   C1956     1.0  0.67347  0.79191  0.00577  1.0000
  C   C1957     1.0  0.68287  0.80291  0.99814  1.0000
  C   C1958     1.0  0.68929  0.80908  0.00699  1.0000
  C   C1959     1.0  0.68622  0.80440  0.02347  1.0000
  C   C1960     1.0  0.67653  0.79369  0.03103  1.0000
  C   C1961     1.0  0.67024  0.78742  0.02221  1.0000
  H   H3082     1.0  0.61283  0.82595  0.01242  1.0000
  H   H3083     1.0  0.69667  0.81749  0.00109  1.0000
  H   H3084     1.0  0.67384  0.79022  0.04370  1.0000
  H   H3085     1.0  0.66287  0.77901  0.02818  1.0000
  C   C1962     1.0  0.53644  0.87423  0.24025  1.0000
  C   C1963     1.0  0.54664  0.85938  0.24127  1.0000
  C   C1964     1.0  0.55180  0.85206  0.22840  1.0000
  C   C1965     1.0  0.54646  0.85940  0.21453  1.0000
  C   C1966     1.0  0.53595  0.87412  0.21362  1.0000
  C   C1967     1.0  0.53105  0.88159  0.22641  1.0000
  H   H3086     1.0  0.55060  0.85352  0.25206  1.0000
  H   H3087     1.0  0.55973  0.84063  0.22926  1.0000
  H   H3088     1.0  0.53183  0.87986  0.20289  1.0000
  H   H3089     1.0  0.52334  0.89313  0.22546  1.0000
  C   C1968     1.0  0.49866  0.85717  0.23626  1.0000
  C   C1969     1.0  0.52141  0.96197  0.24493  1.0000
  H   H3090     1.0  0.53030  0.56839  0.12427  1.0000
  H   H3091     1.0  0.50388  0.58299  0.00873  1.0000
  C   C1970     1.0  0.50021  0.57608  0.10567  1.0000
  H   H3092     1.0  0.65208  0.81696  0.98604  1.0000
  N   N189      1.0  0.73185  0.76550  0.98735  1.0000
  C   C1971     1.0  0.69367  0.90961  0.21648  1.0000
  N   N190      1.0  0.61565  0.56526  0.02265  1.0000
  H   H3093     1.0  0.59453  0.84602  0.31963  1.0000
  C   C1972     1.0  0.61766  0.87557  0.35196  1.0000
  C   C1973     1.0  0.62315  0.85975  0.35845  1.0000
  C   C1974     1.0  0.63001  0.84893  0.34876  1.0000
  C   C1975     1.0  0.63202  0.85392  0.33244  1.0000
  C   C1976     1.0  0.62706  0.86985  0.32579  1.0000
  C   C1977     1.0  0.61958  0.88066  0.33559  1.0000
  H   H3094     1.0  0.62177  0.85578  0.37107  1.0000
  H   H3095     1.0  0.63376  0.83662  0.35396  1.0000
  H   H3096     1.0  0.62852  0.87374  0.31317  1.0000
  H   H3097     1.0  0.61550  0.89292  0.33052  1.0000
  H   H3098     1.0  0.70265  0.96464  0.12044  1.0000
  C   C1978     1.0  0.58125  0.87895  0.21852  1.0000
  H   H3099     1.0  0.55553  0.95857  0.37260  1.0000
  H   H3100     1.0  0.73704  0.76821  0.00811  1.0000
  H   H3101     1.0  0.65676  0.88032  0.14306  1.0000
  C   C1979     1.0  0.58991  0.96584  0.36271  1.0000
  H   H3102     1.0  0.55948  0.72763  0.10946  1.0000
  N   N191      1.0  0.54160  0.71828  0.12805  1.0000
  H   H3103     1.0  0.59537  0.96527  0.38458  1.0000
  H   H3104     1.0  0.59302  0.95324  0.36415  1.0000
  C   C1980     1.0  0.54085  0.91630  0.31552  1.0000
  C   C1981     1.0  0.53750  0.91048  0.30433  1.0000
  C   C1982     1.0  0.52214  0.91409  0.30198  1.0000
  C   C1983     1.0  0.51009  0.92384  0.31056  1.0000
  C   C1984     1.0  0.51337  0.92954  0.32193  1.0000
  C   C1985     1.0  0.52875  0.92570  0.32448  1.0000
  H   H3105     1.0  0.54678  0.90312  0.29744  1.0000
  H   H3106     1.0  0.51964  0.90921  0.29358  1.0000
  H   H3107     1.0  0.68921  0.86879  0.30689  1.0000
  H   H3108     1.0  0.53123  0.93008  0.33328  1.0000
  H   H3109     1.0  0.73821  0.81887  0.24840  1.0000
  C   C1986     1.0  0.69917  0.59008  0.10611  1.0000
  C   C1987     1.0  0.69091  0.58444  0.12123  1.0000
  C   C1988     1.0  0.69340  0.58817  0.13430  1.0000
  C   C1989     1.0  0.70389  0.59781  0.13234  1.0000
  C   C1990     1.0  0.70964  0.59971  0.10415  1.0000
  H   H3110     1.0  0.68275  0.57707  0.12289  1.0000
  H   H3111     1.0  0.68715  0.58358  0.14600  1.0000
  H   H3112     1.0  0.71608  0.60411  0.09248  1.0000
  C   C1991     1.0  0.57126  0.66120  0.08941  1.0000
  C   C1992     1.0  0.56346  0.65475  0.10445  1.0000
  C   C1993     1.0  0.56447  0.65947  0.11762  1.0000
  C   C1994     1.0  0.57341  0.67051  0.11590  1.0000
  C   C1995     1.0  0.58133  0.67687  0.10089  1.0000
  C   C1996     1.0  0.58015  0.67230  0.08769  1.0000
  H   H3113     1.0  0.55653  0.64624  0.10591  1.0000
  H   H3114     1.0  0.55826  0.65453  0.12921  1.0000
  H   H3115     1.0  0.58824  0.68540  0.09940  1.0000
  H   H3116     1.0  0.58623  0.67734  0.07608  1.0000
  C   C1997     1.0  0.57944  0.57660  0.11311  1.0000
  C   C1998     1.0  0.59295  0.57643  0.10091  1.0000
  C   C1999     1.0  0.60797  0.57207  0.10443  1.0000
  C   C2000     1.0  0.60943  0.56823  0.12011  1.0000
  C   C2001     1.0  0.59592  0.56843  0.13221  1.0000
  C   C2002     1.0  0.58099  0.57240  0.12873  1.0000
  H   H3117     1.0  0.59182  0.57941  0.08882  1.0000
  H   H3118     1.0  0.61841  0.57179  0.09504  1.0000
  H   H3119     1.0  0.59700  0.56547  0.14433  1.0000
  H   H3120     1.0  0.57061  0.57248  0.13819  1.0000
  C   C2003     1.0  0.67922  0.54192  0.01538  1.0000
  C   C2004     1.0  0.66284  0.56356  0.03443  1.0000
  C   C2005     1.0  0.67062  0.54857  0.04102  1.0000
  C   C2006     1.0  0.67895  0.53784  0.03148  1.0000
  H   H3121     1.0  0.67023  0.54518  0.05348  1.0000
  H   H3122     1.0  0.68510  0.52634  0.03664  1.0000
  C   C2007     1.0  0.54340  0.60035  0.00524  1.0000
  H   H3123     1.0  0.51785  0.55560  0.12524  1.0000
  C   C2008     1.0  0.57059  0.59868  0.00540  1.0000
  C   C2009     1.0  0.56568  0.60304  0.01998  1.0000
  C   C2010     1.0  0.54964  0.60630  0.02696  1.0000
  C   C2011     1.0  0.53855  0.60475  0.01972  1.0000
  H   H3124     1.0  0.67271  0.88856  0.12971  1.0000
  H   H3125     1.0  0.58298  0.59628  0.99986  1.0000
  H   H3126     1.0  0.54566  0.61019  0.03788  1.0000
  H   H3127     1.0  0.52616  0.60723  0.02527  1.0000
  C   C2012     1.0  0.50939  0.59921  0.06145  1.0000
  H   H3128     1.0  0.51106  0.57704  0.05603  1.0000
  N   N192      1.0  0.66378  0.63525  0.14232  1.0000
  C   C2013     1.0  0.64865  0.64686  0.14407  1.0000
  C   C2014     1.0  0.66192  0.62037  0.15381  1.0000
  C   C2015     1.0  0.67600  0.64136  0.14526  1.0000
  C   C2016     1.0  0.66856  0.63243  0.12619  1.0000
  H   H3129     1.0  0.64966  0.65836  0.13582  1.0000
  H   H3130     1.0  0.64462  0.64907  0.15620  1.0000
  H   H3131     1.0  0.63917  0.64278  0.14174  1.0000
  H   H3132     1.0  0.67315  0.61138  0.15292  1.0000
  H   H3133     1.0  0.65839  0.62210  0.16610  1.0000
  H   H3134     1.0  0.65288  0.61533  0.15191  1.0000
  H   H3135     1.0  0.68765  0.63307  0.14368  1.0000
  H   H3136     1.0  0.67305  0.64316  0.15748  1.0000
  H   H3137     1.0  0.67751  0.65276  0.13706  1.0000
  H   H3138     1.0  0.68004  0.62387  0.12447  1.0000
  H   H3139     1.0  0.66996  0.64346  0.11726  1.0000
  H   H3140     1.0  0.65977  0.62756  0.12361  1.0000
  N   N193      1.0  0.63625  0.80722  0.13512  1.0000
  C   C2017     1.0  0.64900  0.81021  0.14041  1.0000
  C   C2018     1.0  0.63764  0.79010  0.13784  1.0000
  C   C2019     1.0  0.62086  0.81425  0.14410  1.0000
  H   H3141     1.0  0.66081  0.80488  0.13403  1.0000
  H   H3142     1.0  0.64841  0.82304  0.13826  1.0000
  H   H3143     1.0  0.64818  0.80538  0.15324  1.0000
  H   H3144     1.0  0.63661  0.78441  0.15054  1.0000
  H   H3145     1.0  0.64908  0.78436  0.13118  1.0000
  H   H3146     1.0  0.62819  0.78748  0.13392  1.0000
  H   H3147     1.0  0.61983  0.80939  0.15694  1.0000
  H   H3148     1.0  0.61093  0.81177  0.14085  1.0000
  H   H3149     1.0  0.66411  0.89843  0.30121  1.0000
  H   H3150     1.0  0.61338  0.84341  0.99707  1.0000
  H   H3151     1.0  0.52364  0.73458  0.11682  1.0000
  C   C2020     1.0  0.53367  0.70498  0.13218  1.0000
  S   S817      1.0  0.68954  0.52818  0.00376  1.0000
  H   H3152     1.0  0.65532  0.89696  0.33704  1.0000
  N   N194      1.0  0.70934  0.90471  0.22044  1.0000
  C   C2021     1.0  0.55056  0.91395  0.41352  1.0000
  H   H3153     1.0  0.49544  0.61749  0.01021  1.0000
  H   H3154     1.0  0.65566  0.49510  0.02947  1.0000
  C   C2022     1.0  0.71236  0.88774  0.22774  1.0000
  C   C2023     1.0  0.49238  0.87079  0.25737  1.0000
  H   H3155     1.0  0.62527  0.54070  0.03053  1.0000
  H   H3156     1.0  0.63010  0.54788  0.00960  1.0000
  C   C2024     1.0  0.52820  0.56932  0.09514  1.0000
  H   H3157     1.0  0.52528  0.94993  0.24367  1.0000
  H   H3158     1.0  0.64281  0.86564  0.13389  1.0000
  H   H3159     1.0  0.49745  0.61087  0.99272  1.0000
  H   H3160     1.0  0.52480  0.70494  0.14348  1.0000
  H   H3161     1.0  0.70726  0.77531  0.99518  1.0000
  H   H3162     1.0  0.53547  0.74352  0.12328  1.0000
  C   C2025     1.0  0.49938  0.61231  0.06686  1.0000
  H   H3163     1.0  0.49545  0.88851  0.22796  1.0000
  H   H3164     1.0  0.60349  0.89021  0.22393  1.0000
  H   H3165     1.0  0.67540  0.86773  0.13695  1.0000
  C   C2026     1.0  0.69512  0.96695  0.13191  1.0000
  C   C2027     1.0  0.57835  0.88145  0.24506  1.0000
  H   H3166     1.0  0.50952  0.57349  0.13230  1.0000
  C   C2028     1.0  0.60422  0.87733  0.22796  1.0000
  S   S818      1.0  0.69461  0.95868  0.19459  1.0000
  H   H3167     1.0  0.65744  0.51359  0.09348  1.0000
  H   H3168     1.0  0.73870  0.74271  0.98170  1.0000
  H   H3169     1.0  0.58856  0.87321  0.20871  1.0000
  C   C2029     1.0  0.55334  0.71771  0.11305  1.0000
  Fe  Fe410     1.0  0.49368  0.93778  0.25026  1.0000
  H   H3170     1.0  0.54313  0.65122  0.00195  1.0000
  C   C2030     1.0  0.54299  0.96390  0.29398  1.0000
  H   H3171     1.0  0.67325  0.98359  0.15124  1.0000
  H   H3172     1.0  0.71797  0.74898  0.98933  1.0000
  H   H3173     1.0  0.67306  0.86206  0.34132  1.0000
  H   H3174     1.0  0.73493  0.81997  0.30749  1.0000
  H   H3175     1.0  0.60464  0.57997  0.03942  1.0000
  H   H3176     1.0  0.51443  0.89882  0.45955  1.0000
  Fe  Fe411     1.0  0.67936  0.53135  0.98295  1.0000
  H   H3177     1.0  0.70305  0.88492  0.23841  1.0000
  H   H3178     1.0  0.51240  0.90037  0.43241  1.0000
  H   H3179     1.0  0.67183  0.87234  0.09629  1.0000
  H   H3180     1.0  0.69661  0.49777  0.02638  1.0000
  C   C2031     1.0  0.56696  0.95411  0.30367  1.0000
  H   H3181     1.0  0.55845  0.70593  0.14236  1.0000
  H   H3182     1.0  0.66166  0.87904  0.30307  1.0000
  C   C2032     1.0  0.68361  0.48463  0.01141  1.0000
  C   C2033     1.0  0.55942  0.59742  0.99797  1.0000
  C   C2034     1.0  0.73131  0.79095  0.11100  1.0000
  H   H3183     1.0  0.62667  0.79966  0.00618  1.0000
  H   H3184     1.0  0.66843  0.50823  0.02634  1.0000
  H   H3185     1.0  0.55591  0.97907  0.31728  1.0000
  H   H3186     1.0  0.73401  0.78578  0.27368  1.0000
  H   H3187     1.0  0.50107  0.59093  0.02560  1.0000
  H   H3188     1.0  0.63606  0.79847  0.98630  1.0000
  C   C2035     1.0  0.52983  0.73327  0.12630  1.0000
  H   H3189     1.0  0.54180  0.96144  0.25305  1.0000
  H   H3190     1.0  0.56940  0.87622  0.22137  1.0000
  H   H3191     1.0  0.67506  0.88949  0.34003  1.0000
  H   H3192     1.0  0.56320  0.59393  0.98679  1.0000
  H   H3193     1.0  0.52829  0.59416  0.10613  1.0000
  H   H3194     1.0  0.52655  0.57538  0.08305  1.0000
  C   C2036     1.0  0.50628  0.89058  0.46376  1.0000
  H   H3195     1.0  0.63643  0.82724  0.11573  1.0000
  C   C2037     1.0  0.67523  0.87431  0.10638  1.0000
  H   H3196     1.0  0.55990  0.90963  0.40431  1.0000
  H   H3197     1.0  0.49501  0.85570  0.22608  1.0000
  H   H3198     1.0  0.68413  0.86373  0.11022  1.0000
  H   H3199     1.0  0.66601  0.82371  0.23371  1.0000
  H   H3200     1.0  0.67159  0.56008  0.99631  1.0000
  H   H3201     1.0  0.63982  0.89413  0.12372  1.0000
  H   H3202     1.0  0.68769  0.85286  0.20423  1.0000
  N   N195      1.0  0.58848  0.87353  0.23239  1.0000
  H   H3203     1.0  0.69314  0.90360  0.20751  1.0000
  Fe  Fe412     1.0  0.67593  0.53832  0.08955  1.0000
  C   C2038     1.0  0.71816  0.77894  0.98744  1.0000
  S   S819      1.0  0.65881  0.52029  0.98836  1.0000
  C   C2039     1.0  0.54957  0.71716  0.14065  1.0000
  H   H3204     1.0  0.61081  0.55953  0.04796  1.0000
  N   N196      1.0  0.58029  0.86496  0.33069  1.0000
  C   C2040     1.0  0.58846  0.87682  0.31915  1.0000
  C   C2041     1.0  0.58744  0.85913  0.34461  1.0000
  C   C2042     1.0  0.56343  0.87217  0.33554  1.0000
  H   H3205     1.0  0.58821  0.88662  0.32448  1.0000
  H   H3206     1.0  0.58280  0.88217  0.30890  1.0000
  H   H3207     1.0  0.60099  0.87157  0.31458  1.0000
  H   H3208     1.0  0.58128  0.85053  0.35379  1.0000
  H   H3209     1.0  0.60001  0.85314  0.34142  1.0000
  H   H3210     1.0  0.58702  0.86891  0.35005  1.0000
  H   H3211     1.0  0.55681  0.86354  0.34405  1.0000
  H   H3212     1.0  0.55773  0.87709  0.32527  1.0000
  H   H3213     1.0  0.56184  0.88208  0.34123  1.0000
  H   H3214     1.0  0.55548  0.63229  0.00050  1.0000
  H   H3215     1.0  0.71134  0.83402  0.21132  1.0000
  H   H3216     1.0  0.70342  0.83455  0.23169  1.0000
  H   H3217     1.0  0.67943  0.85375  0.22440  1.0000
  H   H3218     1.0  0.69053  0.97586  0.15931  1.0000
  H   H3219     1.0  0.54019  0.56980  0.09577  1.0000
  C   C2043     1.0  0.62820  0.55097  0.02115  1.0000
  H   H3220     1.0  0.68338  0.81087  0.23959  1.0000
  H   H3221     1.0  0.65596  0.90205  0.11042  1.0000
  C   C2044     1.0  0.52443  0.92913  0.42196  1.0000
  H   H3222     1.0  0.66320  0.49607  0.04550  1.0000
  H   H3223     1.0  0.51727  0.92957  0.44661  1.0000
  N   N197      1.0  0.66146  0.87709  0.11941  1.0000
  C   C2045     1.0  0.54983  0.96800  0.37929  1.0000
  H   H3224     1.0  0.57675  0.89445  0.24126  1.0000
  H   H3225     1.0  0.63106  0.58103  0.00998  1.0000
  S   S820      1.0  0.49726  0.92798  0.47786  1.0000
  C   C2046     1.0  0.66679  0.87852  0.13286  1.0000
  C   C2047     1.0  0.52380  0.96962  0.37611  1.0000
  H   H3226     1.0  0.54133  0.96733  0.32295  1.0000
  C   C2048     1.0  0.70968  0.91371  0.23161  1.0000
  H   H3227     1.0  0.73356  0.66127  0.18025  1.0000
  Fe  Fe413     1.0  0.70019  0.98266  0.18812  1.0000
  S   S821      1.0  0.69042  0.51352  0.08908  1.0000
  C   C2049     1.0  0.71905  0.54200  0.08753  1.0000
  H   H3228     1.0  0.53736  0.95493  0.30321  1.0000
  H   H3229     1.0  0.50735  0.59938  0.11317  1.0000
  C   C2050     1.0  0.72866  0.75311  0.98171  1.0000
  H   H3230     1.0  0.56813  0.97486  0.27567  1.0000
  H   H3231     1.0  0.57976  0.89188  0.21404  1.0000
  H   H3232     1.0  0.72881  0.53973  0.07728  1.0000
  C   C2051     1.0  0.50724  0.97102  0.24103  1.0000
  S   S822      1.0  0.49454  0.96238  0.23604  1.0000
  C   C2052     1.0  0.66050  0.88796  0.30987  1.0000
  H   H3233     1.0  0.72807  0.84247  0.09970  1.0000
  H   H3234     1.0  0.64611  0.89103  0.10398  1.0000
  H   H3235     1.0  0.63961  0.55261  0.02205  1.0000
  C   C2053     1.0  0.68080  0.49996  0.08688  1.0000
  N   N198      1.0  0.69061  0.72515  0.10828  1.0000
  C   C2054     1.0  0.69076  0.73932  0.09546  1.0000
  C   C2055     1.0  0.70285  0.72347  0.11692  1.0000
  C   C2056     1.0  0.69384  0.71120  0.10153  1.0000
  C   C2057     1.0  0.67498  0.72663  0.11918  1.0000
  H   H3236     1.0  0.70259  0.73896  0.08742  1.0000
  H   H3237     1.0  0.68769  0.75017  0.10014  1.0000
  H   H3238     1.0  0.68223  0.74053  0.08823  1.0000
  H   H3239     1.0  0.70315  0.71282  0.12667  1.0000
  H   H3240     1.0  0.71479  0.72244  0.10902  1.0000
  H   H3241     1.0  0.70080  0.73387  0.12206  1.0000
  H   H3242     1.0  0.69417  0.70023  0.11082  1.0000
  H   H3243     1.0  0.70542  0.70990  0.09306  1.0000
  H   H3244     1.0  0.68459  0.71193  0.09525  1.0000
  H   H3245     1.0  0.67473  0.71643  0.12938  1.0000
  H   H3246     1.0  0.66551  0.72724  0.11323  1.0000
  H   H3247     1.0  0.67184  0.73745  0.12391  1.0000
  C   C2058     1.0  0.73417  0.79323  0.28110  1.0000
  H   H3248     1.0  0.50340  0.87530  0.25305  1.0000
  H   H3249     1.0  0.69346  0.80928  0.21127  1.0000
  C   C2059     1.0  0.58449  0.97532  0.34942  1.0000
  C   C2060     1.0  0.73340  0.88577  0.26865  1.0000
  H   H3250     1.0  0.58344  0.87762  0.25571  1.0000
  H   H3251     1.0  0.53353  0.97428  0.29094  1.0000
  H   H3252     1.0  0.69970  0.95737  0.14127  1.0000
  H   H3253     1.0  0.56156  0.94509  0.31301  1.0000
  C   C2061     1.0  0.66554  0.86746  0.33254  1.0000
  H   H3254     1.0  0.72173  0.80164  0.11202  1.0000
  N   N199      1.0  0.67025  0.88174  0.32180  1.0000
  H   H3255     1.0  0.66855  0.84894  0.21332  1.0000
  S   S823      1.0  0.72949  0.84682  0.12940  1.0000
  C   C2062     1.0  0.53646  0.92357  0.40996  1.0000
  C   C2063     1.0  0.72156  0.90781  0.20596  1.0000
  N   N200      1.0  0.51590  0.57668  0.10713  1.0000
  C   C2064     1.0  0.66789  0.89377  0.33090  1.0000
  H   H3256     1.0  0.54228  0.69349  0.13354  1.0000
  H   H3257     1.0  0.64782  0.89150  0.31536  1.0000
  H   H3258     1.0  0.67126  0.90474  0.32313  1.0000
  H   H3259     1.0  0.56638  0.87879  0.24864  1.0000
  C   C2065     1.0  0.68704  0.87783  0.31387  1.0000
  H   H3260     1.0  0.57667  0.85575  0.31282  1.0000
  S   S824      1.0  0.52902  0.59938  0.99627  1.0000
  H   H3261     1.0  0.71197  0.55401  0.08396  1.0000
  H   H3262     1.0  0.70953  0.81608  0.22582  1.0000
  H   H3263     1.0  0.67625  0.82982  0.24444  1.0000
  H   H3264     1.0  0.70368  0.55481  0.11226  1.0000
  C   C2066     1.0  0.58190  0.85172  0.32341  1.0000
  H   H3265     1.0  0.70055  0.91164  0.24265  1.0000
  H   H3266     1.0  0.67651  0.82350  0.20580  1.0000
  H   H3267     1.0  0.71277  0.88054  0.21941  1.0000
  C   C2067     1.0  0.68845  0.82209  0.20789  1.0000
  H   H3268     1.0  0.71136  0.53356  0.08970  1.0000
  H   H3269     1.0  0.49599  0.89516  0.42917  1.0000
  C   C2068     1.0  0.67124  0.55681  0.00878  1.0000
  N   N201      1.0  0.60823  0.61996  0.09519  1.0000
  C   C2069     1.0  0.61373  0.61349  0.08083  1.0000
  C   C2070     1.0  0.59155  0.61920  0.10209  1.0000
  C   C2071     1.0  0.60973  0.63651  0.09107  1.0000
  C   C2072     1.0  0.61789  0.61068  0.10675  1.0000
  H   H3270     1.0  0.62642  0.61339  0.07559  1.0000
  H   H3271     1.0  0.60701  0.62054  0.07166  1.0000
  H   H3272     1.0  0.61227  0.60120  0.08334  1.0000
  H   H3273     1.0  0.58991  0.60691  0.10531  1.0000
  H   H3274     1.0  0.58700  0.62402  0.11292  1.0000
  H   H3275     1.0  0.58392  0.62613  0.09371  1.0000
  H   H3276     1.0  0.60505  0.64204  0.10146  1.0000
  H   H3277     1.0  0.60298  0.64365  0.08194  1.0000
  H   H3278     1.0  0.62221  0.63753  0.08626  1.0000
  H   H3279     1.0  0.61398  0.61515  0.11778  1.0000
  H   H3280     1.0  0.63056  0.61091  0.10197  1.0000
  H   H3281     1.0  0.61704  0.59813  0.11003  1.0000
  H   H3282     1.0  0.69587  0.82684  0.19648  1.0000
  H   H3283     1.0  0.57592  0.95692  0.30817  1.0000
  H   H3284     1.0  0.60187  0.82998  0.99744  1.0000
  C   C2073     1.0  0.73493  0.52474  0.10550  1.0000
  H   H3285     1.0  0.62119  0.57592  0.99802  1.0000
  C   C2074     1.0  0.65344  0.86380  0.12427  1.0000
  H   H3286     1.0  0.68423  0.90685  0.22704  1.0000
  N   N202      1.0  0.55493  0.96830  0.29928  1.0000
  H   H3287     1.0  0.60151  0.55965  0.01028  1.0000
  H   H3288     1.0  0.72132  0.91029  0.23493  1.0000
  N   N203      1.0  0.72500  0.54060  0.10160  1.0000
  H   H3289     1.0  0.72713  0.56470  0.09544  1.0000
  S   S825      1.0  0.49335  0.91578  0.24326  1.0000
  C   C2075     1.0  0.71156  0.54308  0.11499  1.0000
  H   H3290     1.0  0.70741  0.92659  0.22647  1.0000
  H   H3291     1.0  0.56250  0.70661  0.11399  1.0000
  C   C2076     1.0  0.55370  0.64495  0.99460  1.0000
  N   N204      1.0  0.61307  0.71696  0.18936  1.0000
  C   C2077     1.0  0.60004  0.71376  0.18470  1.0000
  C   C2078     1.0  0.62599  0.71951  0.17542  1.0000
  C   C2079     1.0  0.61899  0.70335  0.20121  1.0000
  C   C2080     1.0  0.60727  0.73116  0.19607  1.0000
  H   H3292     1.0  0.60390  0.70297  0.17985  1.0000
  H   H3293     1.0  0.59551  0.72361  0.17551  1.0000
  H   H3294     1.0  0.58994  0.71209  0.19484  1.0000
  H   H3295     1.0  0.62196  0.72965  0.16620  1.0000
  H   H3296     1.0  0.63602  0.72196  0.17850  1.0000
  H   H3297     1.0  0.63062  0.70900  0.17007  1.0000
  H   H3298     1.0  0.62882  0.70535  0.20502  1.0000
  H   H3299     1.0  0.62352  0.69248  0.19640  1.0000
  H   H3300     1.0  0.60954  0.70095  0.21184  1.0000
  H   H3301     1.0  0.61686  0.73427  0.19930  1.0000
  H   H3302     1.0  0.59773  0.72956  0.20679  1.0000
  H   H3303     1.0  0.60235  0.74152  0.18754  1.0000
  C   C2081     1.0  0.59013  0.85635  0.23799  1.0000
  H   H3304     1.0  0.61026  0.87307  0.23801  1.0000
  H   H3305     1.0  0.61203  0.87171  0.21823  1.0000
  H   H3306     1.0  0.59613  0.85171  0.24804  1.0000
  H   H3307     1.0  0.59715  0.85004  0.22857  1.0000
  H   H3308     1.0  0.57854  0.85297  0.24186  1.0000
  H   H3309     1.0  0.68302  0.96586  0.13246  1.0000
  H   H3310     1.0  0.72379  0.88382  0.23149  1.0000
  N   N205      1.0  0.53611  0.97853  0.37330  1.0000
  H   H3311     1.0  0.66128  0.85260  0.12870  1.0000
  C   C2082     1.0  0.71149  0.98356  0.13277  1.0000
  S   S826      1.0  0.73722  0.87206  0.15391  1.0000
  H   H3312     1.0  0.64409  0.49415  0.09134  1.0000
  N   N206      1.0  0.68768  0.83031  0.22016  1.0000
  H   H3313     1.0  0.70431  0.53412  0.11789  1.0000
  H   H3314     1.0  0.61503  0.80380  0.99168  1.0000
  S   S827      1.0  0.54288  0.90891  0.46068  1.0000
  C   C2083     1.0  0.65035  0.89174  0.11413  1.0000
  C   C2084     1.0  0.61981  0.57850  0.00972  1.0000
  H   H3315     1.0  0.72170  0.90116  0.19726  1.0000
  S   S828      1.0  0.72176  0.64185  0.12658  1.0000
  H   H3316     1.0  0.68124  0.88436  0.10203  1.0000
  C   C2085     1.0  0.71191  0.60368  0.11719  1.0000
  H   H3317     1.0  0.64897  0.80930  0.11110  1.0000
  S   S829      1.0  0.65085  0.54733  0.08690  1.0000
  C   C2086     1.0  0.66321  0.56771  0.01828  1.0000
  C   C2087     1.0  0.67793  0.82335  0.23512  1.0000
  S   S830      1.0  0.71952  0.75798  0.09600  1.0000
  H   H3318     1.0  0.72851  0.78459  0.10356  1.0000
  H   H3319     1.0  0.49784  0.58272  0.09394  1.0000
  H   H3320     1.0  0.65745  0.57938  0.01312  1.0000
  H   H3321     1.0  0.55578  0.72695  0.13793  1.0000
  H   H3322     1.0  0.73355  0.90431  0.20851  1.0000
  S   S831      1.0  0.70626  0.60257  0.14903  1.0000
  H   H3323     1.0  0.72815  0.51548  0.10777  1.0000
  H   H3324     1.0  0.72001  0.61111  0.11554  1.0000
  C   C2088     1.0  0.50315  0.58725  0.05997  1.0000
  C   C2089     1.0  0.63745  0.81433  0.11819  1.0000
  Fe  Fe414     1.0  0.71934  0.62138  0.14703  1.0000
  S   S832      1.0  0.53333  0.92854  0.39074  1.0000
  C   C2090     1.0  0.53089  0.96859  0.25002  1.0000
  H   H3325     1.0  0.49494  0.96420  0.27626  1.0000
  H   H3326     1.0  0.56408  0.64915  0.99481  1.0000
  C   C2091     1.0  0.65683  0.49181  0.08871  1.0000
  H   H3327     1.0  0.57323  0.94856  0.29347  1.0000
  H   H3328     1.0  0.51024  0.86064  0.23168  1.0000
  S   S833      1.0  0.68483  0.55793  0.07092  1.0000
  H   H3329     1.0  0.52815  0.95974  0.36988  1.0000
  H   H3330     1.0  0.62811  0.81213  0.11376  1.0000
  C   C2092     1.0  0.73472  0.81242  0.30019  1.0000
  S   S834      1.0  0.67287  0.55048  0.10911  1.0000
  C   C2093     1.0  0.68057  0.84715  0.21533  1.0000
  H   H3331     1.0  0.65314  0.87016  0.33922  1.0000
  H   H3332     1.0  0.51316  0.97722  0.37193  1.0000
  H   H3333     1.0  0.54645  0.96216  0.39189  1.0000
  C   C2094     1.0  0.49486  0.58714  0.01873  1.0000
  H   H3334     1.0  0.71908  0.98200  0.12110  1.0000
  H   H3335     1.0  0.73540  0.84648  0.27668  1.0000
  H   H3336     1.0  0.54830  0.95894  0.28326  1.0000
  C   C2095     1.0  0.51847  0.56814  0.12295  1.0000
  H   H3337     1.0  0.71692  0.97438  0.14189  1.0000
  H   H3338     1.0  0.64211  0.81818  0.00575  1.0000
  H   H3339     1.0  0.50067  0.84547  0.24439  1.0000
  H   H3340     1.0  0.73084  0.78321  0.12294  1.0000
  H   H3341     1.0  0.68646  0.49611  0.00448  1.0000
  H   H3342     1.0  0.69138  0.48584  0.04563  1.0000
  H   H3343     1.0  0.49352  0.96781  0.30285  1.0000
  C   C2096     1.0  0.61311  0.83073  0.99965  1.0000
  C   C2097     1.0  0.56255  0.97970  0.28643  1.0000
  N   N207      1.0  0.69515  0.98254  0.13402  1.0000
  H   H3344     1.0  0.52011  0.96434  0.38883  1.0000
  C   C2098     1.0  0.66620  0.49635  0.03265  1.0000
  H   H3345     1.0  0.73402  0.94068  0.15009  1.0000
  H   H3346     1.0  0.64254  0.83581  0.99054  1.0000
  C   C2099     1.0  0.73999  0.86963  0.27124  1.0000
  H   H3347     1.0  0.71553  0.54251  0.12574  1.0000
  S   S835      1.0  0.73621  0.85704  0.20061  1.0000
  N   N208      1.0  0.62686  0.82203  0.98992  1.0000
  C   C2100     1.0  0.68964  0.48580  0.08252  1.0000
  H   H3348     1.0  0.72002  0.78844  0.99188  1.0000
  C   C2101     1.0  0.73460  0.75916  0.00347  1.0000
  C   C2102     1.0  0.54724  0.97554  0.31302  1.0000
  H   H3349     1.0  0.73232  0.77924  0.06806  1.0000
  H   H3350     1.0  0.73909  0.83917  0.24451  1.0000
  H   H3351     1.0  0.49996  0.89157  0.47599  1.0000
  N   N209      1.0  0.49513  0.89410  0.45340  1.0000
  C   C2103     1.0  0.73437  0.55260  0.09838  1.0000
  C   C2104     1.0  0.69374  0.48616  0.03282  1.0000
  S   S836      1.0  0.73892  0.65463  0.14713  1.0000
  H   H3352     1.0  0.73784  0.81616  0.08859  1.0000
  H   H3353     1.0  0.73944  0.52319  0.11619  1.0000
  H   H3354     1.0  0.52706  0.64724  0.98595  1.0000
  H   H3355     1.0  0.73897  0.55198  0.10877  1.0000
  H   H3356     1.0  0.55888  0.97459  0.37830  1.0000
  H   H3357     1.0  0.53972  0.62855  0.98376  1.0000
  H   H3358     1.0  0.73867  0.68272  0.18898  1.0000
  C   C2105     1.0  0.73881  0.75823  0.08518  1.0000
  C   C2106     1.0  0.74110  0.65850  0.18848  1.0000
  H   H3359     1.0  0.56961  0.88982  0.47871  1.0000
  H   H3360     1.0  0.74102  0.81451  0.11557  1.0000
  Fe  Fe415     1.0  0.49160  0.92245  0.28447  1.0000
  Fe  Fe416     1.0  0.52218  0.91628  0.47966  1.0000
  S   S837      1.0  0.66908  0.55317  0.96691  1.0000
  S   S838      1.0  0.51564  0.89678  0.49988  1.0000
  H   H3361     1.0  0.68265  0.92640  0.63500  1.0000
  C   C2107     1.0  0.73693  0.84130  0.65883  1.0000
  H   H3362     1.0  0.50010  0.94312  0.60215  1.0000
  H   H3363     1.0  0.69813  0.84098  0.90454  1.0000
  H   H3364     1.0  0.54278  0.92714  0.68068  1.0000
  S   S839      1.0  0.52358  0.93125  0.49495  1.0000
  S   S840      1.0  0.52605  0.90268  0.53667  1.0000
  C   C2108     1.0  0.69548  0.48997  0.91140  1.0000
  C   C2109     1.0  0.69818  0.50345  0.92973  1.0000
  C   C2110     1.0  0.50938  0.96576  0.52749  1.0000
  C   C2111     1.0  0.59184  0.57126  0.94431  1.0000
  Fe  Fe417     1.0  0.52104  0.60417  0.94320  1.0000
  S   S841      1.0  0.51941  0.62180  0.95713  1.0000
  C   C2112     1.0  0.66561  0.90453  0.81099  1.0000
  C   C2113     1.0  0.55558  0.92423  0.68061  1.0000
  H   H3365     1.0  0.67775  0.85652  0.88021  1.0000
  Fe  Fe418     1.0  0.50363  0.93029  0.70238  1.0000
  H   H3366     1.0  0.60185  0.69641  0.86434  1.0000
  Fe  Fe419     1.0  0.54118  0.62816  0.94013  1.0000
  S   S842      1.0  0.54271  0.65391  0.93348  1.0000
  H   H3367     1.0  0.66640  0.69485  0.90711  1.0000
  S   S843      1.0  0.54157  0.61224  0.92479  1.0000
  C   C2114     1.0  0.60763  0.56400  0.93934  1.0000
  Fe  Fe420     1.0  0.67160  0.50918  0.96790  1.0000
  H   H3368     1.0  0.54644  0.97649  0.51073  1.0000
  C   C2115     1.0  0.73220  0.83655  0.64776  1.0000
  S   S844      1.0  0.66034  0.52887  0.95049  1.0000
  S   S845      1.0  0.55738  0.61046  0.95438  1.0000
  C   C2116     1.0  0.72046  0.75963  0.90939  1.0000
  Fe  Fe421     1.0  0.58374  0.92888  0.60460  1.0000
  S   S846      1.0  0.56144  0.92810  0.59829  1.0000
  S   S847      1.0  0.59449  0.90914  0.62279  1.0000
  Fe  Fe422     1.0  0.57201  0.94022  0.57391  1.0000
  S   S848      1.0  0.56882  0.94034  0.54991  1.0000
  Fe  Fe423     1.0  0.55270  0.95227  0.60323  1.0000
  H   H3369     1.0  0.69014  0.59738  0.91791  1.0000
  S   S849      1.0  0.59512  0.93902  0.57965  1.0000
  H   H3370     1.0  0.53179  0.88483  0.84718  1.0000
  S   S850      1.0  0.52887  0.96310  0.61588  1.0000
  Fe  Fe424     1.0  0.69172  0.80256  0.93847  1.0000
  Fe  Fe425     1.0  0.65659  0.81102  0.94107  1.0000
  S   S851      1.0  0.65322  0.78766  0.95653  1.0000
  S   S852      1.0  0.63619  0.82862  0.93251  1.0000
  Fe  Fe426     1.0  0.67462  0.77755  0.94001  1.0000
  S   S853      1.0  0.67749  0.75692  0.92942  1.0000
  S   S854      1.0  0.67181  0.81495  0.95477  1.0000
  S   S855      1.0  0.67669  0.80071  0.92351  1.0000
  S   S856      1.0  0.70151  0.64630  0.87110  1.0000
  Fe  Fe427     1.0  0.61224  0.69934  0.90120  1.0000
  S   S857      1.0  0.62050  0.71118  0.87599  1.0000
  S   S858      1.0  0.60847  0.67451  0.90627  1.0000
  Fe  Fe428     1.0  0.61577  0.72616  0.91349  1.0000
  S   S859      1.0  0.62347  0.74030  0.88938  1.0000
  S   S860      1.0  0.61571  0.73422  0.93486  1.0000
  Fe  Fe429     1.0  0.60462  0.73304  0.88322  1.0000
  S   S861      1.0  0.58735  0.74976  0.86919  1.0000
  Fe  Fe430     1.0  0.63860  0.71723  0.88462  1.0000
  S   S862      1.0  0.66452  0.71575  0.87470  1.0000
  S   S863      1.0  0.59524  0.72087  0.90802  1.0000
  S   S864      1.0  0.63188  0.70348  0.90909  1.0000
  Fe  Fe431     1.0  0.64707  0.90968  0.88296  1.0000
  S   S865      1.0  0.62843  0.92903  0.87287  1.0000
  S   S866      1.0  0.64622  0.89824  0.90853  1.0000
  Fe  Fe432     1.0  0.67093  0.91120  0.85224  1.0000
  S   S867      1.0  0.65444  0.93046  0.83970  1.0000
  S   S868      1.0  0.69517  0.90070  0.83976  1.0000
  Fe  Fe433     1.0  0.64849  0.94121  0.86061  1.0000
  S   S869      1.0  0.64685  0.96745  0.85502  1.0000
  Fe  Fe434     1.0  0.63600  0.91664  0.85270  1.0000
  S   S870      1.0  0.62238  0.91612  0.83544  1.0000
  S   S871      1.0  0.66652  0.92290  0.87221  1.0000
  S   S872      1.0  0.65306  0.89633  0.86377  1.0000
  C   C2117     1.0  0.56108  0.90512  0.66469  1.0000
  H   H3371     1.0  0.56777  0.90142  0.65349  1.0000
  H   H3372     1.0  0.68369  0.94631  0.62508  1.0000
  C   C2118     1.0  0.72429  0.57868  0.90433  1.0000
  S   S873      1.0  0.70146  0.94491  0.77288  1.0000
  S   S874      1.0  0.72595  0.95536  0.73050  1.0000
  Fe  Fe435     1.0  0.57825  0.85147  0.79378  1.0000
  S   S875      1.0  0.58827  0.87046  0.79613  1.0000
  S   S876      1.0  0.55655  0.85662  0.78381  1.0000
  Fe  Fe436     1.0  0.60400  0.82529  0.80663  1.0000
  S   S877      1.0  0.61610  0.84243  0.80967  1.0000
  S   S878      1.0  0.61668  0.80000  0.81287  1.0000
  Fe  Fe437     1.0  0.59183  0.85491  0.81939  1.0000
  S   S879      1.0  0.58685  0.86270  0.84211  1.0000
  Fe  Fe438     1.0  0.61159  0.85618  0.78615  1.0000
  S   S880      1.0  0.62864  0.86959  0.76825  1.0000
  S   S881      1.0  0.57985  0.83683  0.81806  1.0000
  S   S882      1.0  0.60141  0.83812  0.78210  1.0000
  Fe  Fe439     1.0  0.67193  0.88988  0.65450  1.0000
  S   S883      1.0  0.68180  0.86373  0.66125  1.0000
  S   S884      1.0  0.66229  0.90548  0.63343  1.0000
  Fe  Fe440     1.0  0.67927  0.89678  0.68224  1.0000
  S   S885      1.0  0.68924  0.87162  0.69181  1.0000
  S   S886      1.0  0.67705  0.91680  0.69341  1.0000
  Fe  Fe441     1.0  0.70152  0.87038  0.66686  1.0000
  S   S887      1.0  0.72748  0.85909  0.66487  1.0000
  Fe  Fe442     1.0  0.66904  0.86664  0.68577  1.0000
  S   S888      1.0  0.65618  0.84887  0.70310  1.0000
  S   S889      1.0  0.69307  0.89618  0.65774  1.0000
  S   S890      1.0  0.65764  0.89200  0.67862  1.0000
  H   H3373     1.0  0.74016  0.81151  0.90111  1.0000
  H   H3374     1.0  0.66748  0.96828  0.63783  1.0000
  H   H3375     1.0  0.62755  0.84129  0.96964  1.0000
  H   H3376     1.0  0.73759  0.81949  0.63339  1.0000
  C   C2119     1.0  0.57614  0.68483  0.87803  1.0000
  H   H3377     1.0  0.62990  0.55287  0.94601  1.0000
  H   H3378     1.0  0.72213  0.84365  0.64302  1.0000
  H   H3379     1.0  0.51311  0.96958  0.64642  1.0000
  S   S891      1.0  0.69166  0.77834  0.95353  1.0000
  C   C2120     1.0  0.63699  0.86318  0.75053  1.0000
  C   C2121     1.0  0.63582  0.84863  0.74898  1.0000
  C   C2122     1.0  0.64181  0.84419  0.73441  1.0000
  C   C2123     1.0  0.64910  0.85425  0.72141  1.0000
  C   C2124     1.0  0.65046  0.86867  0.72304  1.0000
  C   C2125     1.0  0.64442  0.87312  0.73756  1.0000
  H   H3380     1.0  0.63047  0.84072  0.75904  1.0000
  H   H3381     1.0  0.64087  0.83295  0.73325  1.0000
  H   H3382     1.0  0.65610  0.87650  0.71311  1.0000
  H   H3383     1.0  0.64542  0.88436  0.73869  1.0000
  C   C2126     1.0  0.72353  0.92081  0.70115  1.0000
  C   C2127     1.0  0.72356  0.91132  0.69126  1.0000
  C   C2128     1.0  0.70931  0.90978  0.68911  1.0000
  C   C2129     1.0  0.69497  0.91799  0.69659  1.0000
  C   C2130     1.0  0.69493  0.92754  0.70643  1.0000
  C   C2131     1.0  0.70918  0.92881  0.70886  1.0000
  C   C2132     1.0  0.67896  0.51556  0.91366  1.0000
  H   H3384     1.0  0.70946  0.90237  0.68153  1.0000
  H   H3385     1.0  0.68387  0.93389  0.71226  1.0000
  H   H3386     1.0  0.70907  0.93616  0.71649  1.0000
  N   N210      1.0  0.57669  0.70166  0.87239  1.0000
  C   C2133     1.0  0.61510  0.81770  0.87106  1.0000
  H   H3387     1.0  0.59107  0.69923  0.84953  1.0000
  H   H3388     1.0  0.65641  0.95501  0.88501  1.0000
  C   C2134     1.0  0.61316  0.90064  0.83778  1.0000
  C   C2135     1.0  0.60934  0.89868  0.82458  1.0000
  C   C2136     1.0  0.60188  0.88663  0.82582  1.0000
  C   C2137     1.0  0.59741  0.87695  0.84044  1.0000
  C   C2138     1.0  0.60098  0.87899  0.85376  1.0000
  C   C2139     1.0  0.60913  0.89066  0.85239  1.0000
  H   H3389     1.0  0.61207  0.90654  0.81332  1.0000
  H   H3390     1.0  0.59929  0.88512  0.81546  1.0000
  H   H3391     1.0  0.59751  0.87154  0.86513  1.0000
  H   H3392     1.0  0.61190  0.89221  0.86266  1.0000
  C   C2140     1.0  0.70008  0.91374  0.82176  1.0000
  C   C2141     1.0  0.69236  0.92955  0.81984  1.0000
  C   C2142     1.0  0.69346  0.93932  0.80482  1.0000
  C   C2143     1.0  0.70278  0.93347  0.79170  1.0000
  C   C2144     1.0  0.71168  0.91802  0.79372  1.0000
  C   C2145     1.0  0.71019  0.90808  0.80877  1.0000
  H   H3393     1.0  0.68526  0.93421  0.82993  1.0000
  H   H3394     1.0  0.68677  0.95133  0.80334  1.0000
  H   H3395     1.0  0.71893  0.91345  0.78361  1.0000
  H   H3396     1.0  0.71627  0.89587  0.81021  1.0000
  C   C2146     1.0  0.59546  0.76369  0.85349  1.0000
  C   C2147     1.0  0.58555  0.77742  0.84700  1.0000
  C   C2148     1.0  0.59188  0.78872  0.83454  1.0000
  C   C2149     1.0  0.60812  0.78615  0.82832  1.0000
  C   C2150     1.0  0.61798  0.77235  0.83473  1.0000
  C   C2151     1.0  0.61170  0.76124  0.84739  1.0000
  H   H3397     1.0  0.57297  0.77934  0.85166  1.0000
  H   H3398     1.0  0.58419  0.79926  0.82959  1.0000
  H   H3399     1.0  0.63055  0.77028  0.82993  1.0000
  H   H3400     1.0  0.61942  0.75066  0.85227  1.0000
  C   C2152     1.0  0.69155  0.66565  0.87223  1.0000
  C   C2153     1.0  0.67512  0.66956  0.87436  1.0000
  C   C2154     1.0  0.66678  0.68490  0.87530  1.0000
  C   C2155     1.0  0.67489  0.69650  0.87366  1.0000
  C   C2156     1.0  0.69134  0.69263  0.87157  1.0000
  C   C2157     1.0  0.69967  0.67715  0.87102  1.0000
  H   H3401     1.0  0.66878  0.66078  0.87509  1.0000
  H   H3402     1.0  0.65409  0.68782  0.87691  1.0000
  H   H3403     1.0  0.69763  0.70163  0.87028  1.0000
  C   C2158     1.0  0.67180  0.70196  0.91151  1.0000
  C   C2159     1.0  0.63913  0.84791  0.92571  1.0000
  C   C2160     1.0  0.64714  0.85368  0.93327  1.0000
  C   C2161     1.0  0.64881  0.86932  0.92817  1.0000
  C   C2162     1.0  0.64303  0.87906  0.91513  1.0000
  C   C2163     1.0  0.63526  0.87322  0.90737  1.0000
  C   C2164     1.0  0.63308  0.85772  0.91284  1.0000
  H   H3404     1.0  0.65171  0.84624  0.94328  1.0000
  H   H3405     1.0  0.65475  0.87387  0.93423  1.0000
  H   H3406     1.0  0.63070  0.88072  0.89734  1.0000
  H   H3407     1.0  0.62680  0.85331  0.90702  1.0000
  C   C2165     1.0  0.65961  0.75218  0.93042  1.0000
  C   C2166     1.0  0.65806  0.74654  0.91814  1.0000
  C   C2167     1.0  0.64441  0.74144  0.91928  1.0000
  C   C2168     1.0  0.63229  0.74181  0.93276  1.0000
  C   C2169     1.0  0.63376  0.74762  0.94497  1.0000
  C   C2170     1.0  0.64737  0.75287  0.94378  1.0000
  H   H3408     1.0  0.66746  0.74600  0.90775  1.0000
  H   H3409     1.0  0.64341  0.73697  0.90982  1.0000
  H   H3410     1.0  0.62444  0.74790  0.95544  1.0000
  H   H3411     1.0  0.64855  0.75700  0.95340  1.0000
  C   C2171     1.0  0.54701  0.90381  0.76609  1.0000
  C   C2172     1.0  0.55365  0.88883  0.77401  1.0000
  C   C2173     1.0  0.54811  0.87575  0.77444  1.0000
  C   C2174     1.0  0.53587  0.87780  0.76684  1.0000
  C   C2175     1.0  0.52930  0.89280  0.75877  1.0000
  H   H3412     1.0  0.56309  0.88746  0.77971  1.0000
  H   H3413     1.0  0.53150  0.86774  0.76710  1.0000
  H   H3414     1.0  0.59223  0.71588  0.85600  1.0000
  C   C2176     1.0  0.61327  0.90841  0.62576  1.0000
  C   C2177     1.0  0.61916  0.89676  0.63787  1.0000
  C   C2178     1.0  0.63403  0.89588  0.64056  1.0000
  C   C2179     1.0  0.64324  0.90651  0.63098  1.0000
  C   C2180     1.0  0.63730  0.91820  0.61893  1.0000
  C   C2181     1.0  0.62234  0.91922  0.61639  1.0000
  H   H3415     1.0  0.61229  0.88827  0.64509  1.0000
  H   H3416     1.0  0.63851  0.88678  0.64980  1.0000
  H   H3417     1.0  0.64435  0.92643  0.61142  1.0000
  H   H3418     1.0  0.61796  0.92823  0.60702  1.0000
  C   C2182     1.0  0.52359  0.95067  0.63416  1.0000
  C   C2183     1.0  0.52738  0.93439  0.63558  1.0000
  C   C2184     1.0  0.52374  0.92443  0.65033  1.0000
  C   C2185     1.0  0.51680  0.93069  0.66377  1.0000
  C   C2186     1.0  0.51288  0.94699  0.66234  1.0000
  C   C2187     1.0  0.51607  0.95699  0.64749  1.0000
  H   H3419     1.0  0.53310  0.92943  0.62534  1.0000
  C   C2188     1.0  0.58338  0.88114  0.50361  1.0000
  H   H3420     1.0  0.65457  0.69305  0.95038  1.0000
  C   C2189     1.0  0.56114  0.65935  0.92630  1.0000
  C   C2190     1.0  0.56197  0.67486  0.92530  1.0000
  C   C2191     1.0  0.57647  0.67955  0.91974  1.0000
  C   C2192     1.0  0.59020  0.66887  0.91470  1.0000
  C   C2193     1.0  0.58937  0.65334  0.91583  1.0000
  C   C2194     1.0  0.57493  0.64856  0.92170  1.0000
  H   H3421     1.0  0.55135  0.68325  0.92894  1.0000
  H   H3422     1.0  0.57702  0.69142  0.91933  1.0000
  H   H3423     1.0  0.59994  0.64497  0.91201  1.0000
  H   H3424     1.0  0.57444  0.63657  0.92244  1.0000
  N   N211      1.0  0.54565  0.89069  0.82377  1.0000
  C   C2195     1.0  0.58209  0.91586  0.66615  1.0000
  S   S892      1.0  0.53609  0.58462  0.95744  1.0000
  H   H3425     1.0  0.59993  0.81328  0.84262  1.0000
  H   H3426     1.0  0.66508  0.71431  0.90897  1.0000
  H   H3427     1.0  0.56205  0.70603  0.85591  1.0000
  C   C2196     1.0  0.56204  0.93214  0.65230  1.0000
  H   H3428     1.0  0.72612  0.76708  0.91305  1.0000
  H   H3429     1.0  0.56277  0.72321  0.86172  1.0000
  C   C2197     1.0  0.61773  0.55837  0.94994  1.0000
  C   C2198     1.0  0.53715  0.91358  0.54093  1.0000
  C   C2199     1.0  0.54391  0.90766  0.55417  1.0000
  C   C2200     1.0  0.55328  0.91597  0.55741  1.0000
  C   C2201     1.0  0.55614  0.93009  0.54724  1.0000
  C   C2202     1.0  0.54922  0.93603  0.53413  1.0000
  C   C2203     1.0  0.53969  0.92789  0.53106  1.0000
  H   H3430     1.0  0.54199  0.89657  0.56189  1.0000
  H   H3431     1.0  0.55866  0.91122  0.56750  1.0000
  H   H3432     1.0  0.55109  0.94704  0.52632  1.0000
  H   H3433     1.0  0.53439  0.93270  0.52098  1.0000
  C   C2204     1.0  0.65547  0.93140  0.79897  1.0000
  C   C2205     1.0  0.65902  0.96655  0.88008  1.0000
  H   H3434     1.0  0.59014  0.88807  0.49306  1.0000
  S   S893      1.0  0.57377  0.95220  0.61145  1.0000
  H   H3435     1.0  0.55896  0.87891  0.52905  1.0000
  H   H3436     1.0  0.59650  0.79707  0.87779  1.0000
  H   H3437     1.0  0.51940  0.97593  0.71567  1.0000
  H   H3438     1.0  0.67602  0.51744  0.90205  1.0000
  H   H3439     1.0  0.70312  0.83994  0.68254  1.0000
  H   H3440     1.0  0.60491  0.83041  0.84441  1.0000
  H   H3441     1.0  0.50331  0.54690  0.94276  1.0000
  H   H3442     1.0  0.58672  0.67788  0.88275  1.0000
  H   H3443     1.0  0.50576  0.94861  0.51737  1.0000
  C   C2206     1.0  0.51050  0.94813  0.59520  1.0000
  H   H3444     1.0  0.70741  0.74394  0.93788  1.0000
  H   H3445     1.0  0.55957  0.66916  0.97017  1.0000
  C   C2207     1.0  0.50084  0.57140  0.94224  1.0000
  C   C2208     1.0  0.51395  0.93402  0.57502  1.0000
  H   H3446     1.0  0.65011  0.96133  0.63981  1.0000
  C   C2209     1.0  0.58614  0.57271  0.95997  1.0000
  H   H3447     1.0  0.51331  0.57044  0.94085  1.0000
  H   H3448     1.0  0.68294  0.86357  0.91674  1.0000
  H   H3449     1.0  0.58746  0.70169  0.89063  1.0000
  H   H3450     1.0  0.70797  0.79194  0.70707  1.0000
  C   C2210     1.0  0.65522  0.69682  0.93749  1.0000
  C   C2211     1.0  0.55923  0.89814  0.81587  1.0000
  H   H3451     1.0  0.55992  0.86727  0.82663  1.0000
  H   H3452     1.0  0.67712  0.94611  0.66767  1.0000
  H   H3453     1.0  0.52863  0.91210  0.81825  1.0000
  H   H3454     1.0  0.55674  0.91039  0.81750  1.0000
  H   H3455     1.0  0.56235  0.89867  0.80300  1.0000
  H   H3456     1.0  0.56983  0.89153  0.82069  1.0000
  N   N212      1.0  0.67166  0.69602  0.92845  1.0000
  C   C2212     1.0  0.67907  0.70570  0.93371  1.0000
  C   C2213     1.0  0.68055  0.67953  0.93103  1.0000
  H   H3457     1.0  0.68395  0.70168  0.90422  1.0000
  H   H3458     1.0  0.69131  0.70581  0.92680  1.0000
  H   H3459     1.0  0.67234  0.71810  0.93234  1.0000
  H   H3460     1.0  0.67949  0.70134  0.94636  1.0000
  H   H3461     1.0  0.69300  0.67855  0.92435  1.0000
  H   H3462     1.0  0.67530  0.67198  0.92701  1.0000
  H   H3463     1.0  0.68060  0.67456  0.94370  1.0000
  H   H3464     1.0  0.56208  0.86355  0.51872  1.0000
  H   H3465     1.0  0.70467  0.73695  0.91447  1.0000
  H   H3466     1.0  0.61669  0.78655  0.87615  1.0000
  C   C2214     1.0  0.59621  0.56711  0.97055  1.0000
  H   H3467     1.0  0.54769  0.90614  0.50505  1.0000
  H   H3468     1.0  0.60629  0.78791  0.86150  1.0000
  H   H3469     1.0  0.67524  0.90801  0.81373  1.0000
  C   C2215     1.0  0.60139  0.81920  0.85120  1.0000
  H   H3470     1.0  0.68250  0.82572  0.68522  1.0000
  H   H3471     1.0  0.54932  0.93557  0.65214  1.0000
  H   H3472     1.0  0.53440  0.89995  0.80408  1.0000
  H   H3473     1.0  0.63263  0.81589  0.84190  1.0000
  H   H3474     1.0  0.54756  0.66643  0.95878  1.0000
  H   H3475     1.0  0.65563  0.90484  0.82145  1.0000
  H   H3476     1.0  0.50321  0.92925  0.58106  1.0000
  H   H3477     1.0  0.63742  0.91093  0.80377  1.0000
  H   H3478     1.0  0.72562  0.74777  0.93839  1.0000
  N   N213      1.0  0.69074  0.86461  0.89189  1.0000
  C   C2216     1.0  0.70246  0.84958  0.89383  1.0000
  C   C2217     1.0  0.69680  0.87566  0.87752  1.0000
  C   C2218     1.0  0.68767  0.87153  0.90570  1.0000
  C   C2219     1.0  0.67594  0.86171  0.89053  1.0000
  H   H3479     1.0  0.71373  0.85126  0.89509  1.0000
  H   H3480     1.0  0.70512  0.84405  0.88359  1.0000
  H   H3481     1.0  0.68822  0.88715  0.87581  1.0000
  H   H3482     1.0  0.70800  0.87813  0.87801  1.0000
  H   H3483     1.0  0.69903  0.87101  0.86676  1.0000
  H   H3484     1.0  0.67887  0.88290  0.90462  1.0000
  H   H3485     1.0  0.69857  0.87387  0.90712  1.0000
  H   H3486     1.0  0.67088  0.85355  0.90122  1.0000
  H   H3487     1.0  0.66689  0.87283  0.88904  1.0000
  Fe  Fe443     1.0  0.58343  0.96226  0.58629  1.0000
  H   H3488     1.0  0.53866  0.67114  0.97768  1.0000
  H   H3489     1.0  0.58584  0.88315  0.51420  1.0000
  H   H3490     1.0  0.58957  0.91223  0.65517  1.0000
  N   N214      1.0  0.56519  0.91934  0.66596  1.0000
  C   C2220     1.0  0.72721  0.58164  0.91749  1.0000
  H   H3491     1.0  0.62395  0.81048  0.87810  1.0000
  N   N215      1.0  0.55179  0.64735  0.97837  1.0000
  H   H3492     1.0  0.55195  0.97185  0.53684  1.0000
  C   C2221     1.0  0.65617  0.97475  0.86529  1.0000
  Fe  Fe444     1.0  0.51520  0.91262  0.51525  1.0000
  C   C2222     1.0  0.72998  0.79800  0.92331  1.0000
  H   H3493     1.0  0.56841  0.62595  0.97448  1.0000
  C   C2223     1.0  0.50272  0.96081  0.51796  1.0000
  H   H3494     1.0  0.65459  0.96420  0.65681  1.0000
  H   H3495     1.0  0.56849  0.92850  0.64105  1.0000
  N   N216      1.0  0.66898  0.94374  0.64842  1.0000
  H   H3496     1.0  0.53888  0.90257  0.84292  1.0000
  H   H3497     1.0  0.56774  0.87018  0.48910  1.0000
  C   C2224     1.0  0.56062  0.90257  0.50406  1.0000
  H   H3498     1.0  0.72221  0.57660  0.94283  1.0000
  C   C2225     1.0  0.71424  0.56857  0.90626  1.0000
  N   N217      1.0  0.56481  0.98417  0.51552  1.0000
  H   H3499     1.0  0.57736  0.72070  0.88185  1.0000
  S   S894      1.0  0.52700  0.92501  0.74867  1.0000
  S   S895      1.0  0.56146  0.96429  0.57863  1.0000
  C   C2226     1.0  0.70676  0.83096  0.69278  1.0000
  H   H3500     1.0  0.51577  0.93466  0.56220  1.0000
  C   C2227     1.0  0.65843  0.93340  0.65875  1.0000
  H   H3501     1.0  0.68884  0.93037  0.65851  1.0000
  H   H3502     1.0  0.71237  0.67421  0.86925  1.0000
  H   H3503     1.0  0.72373  0.76178  0.89633  1.0000
  C   C2228     1.0  0.69400  0.60718  0.88679  1.0000
  S   S896      1.0  0.51749  0.94389  0.70849  1.0000
  N   N218      1.0  0.59110  0.86871  0.73886  1.0000
  C   C2229     1.0  0.59162  0.87381  0.75280  1.0000
  C   C2230     1.0  0.60293  0.87473  0.72524  1.0000
  C   C2231     1.0  0.57519  0.87491  0.73548  1.0000
  C   C2232     1.0  0.59464  0.85135  0.74204  1.0000
  H   H3504     1.0  0.58317  0.86912  0.76336  1.0000
  H   H3505     1.0  0.58872  0.88684  0.75103  1.0000
  H   H3506     1.0  0.60349  0.86954  0.75556  1.0000
  H   H3507     1.0  0.61501  0.87041  0.72760  1.0000
  H   H3508     1.0  0.60317  0.87085  0.71454  1.0000
  H   H3509     1.0  0.60056  0.88779  0.72250  1.0000
  H   H3510     1.0  0.57448  0.87179  0.72470  1.0000
  H   H3511     1.0  0.57170  0.88794  0.73387  1.0000
  H   H3512     1.0  0.56615  0.87000  0.74532  1.0000
  H   H3513     1.0  0.60655  0.84626  0.74469  1.0000
  H   H3514     1.0  0.59434  0.84703  0.73180  1.0000
  H   H3515     1.0  0.58598  0.84644  0.75237  1.0000
  H   H3516     1.0  0.69006  0.95025  0.64869  1.0000
  H   H3517     1.0  0.70909  0.81917  0.66787  1.0000
  H   H3518     1.0  0.57202  0.95936  0.51624  1.0000
  H   H3519     1.0  0.54832  0.90717  0.66500  1.0000
  H   H3520     1.0  0.69983  0.83527  0.70358  1.0000
  H   H3521     1.0  0.70344  0.80716  0.71783  1.0000
  H   H3522     1.0  0.66496  0.92102  0.66100  1.0000
  H   H3523     1.0  0.71939  0.83058  0.69180  1.0000
  H   H3524     1.0  0.61206  0.56282  0.92725  1.0000
  H   H3525     1.0  0.57570  0.67963  0.86844  1.0000
  C   C2233     1.0  0.65989  0.96013  0.64558  1.0000
  C   C2234     1.0  0.55776  0.87639  0.51812  1.0000
  C   C2235     1.0  0.67590  0.62534  0.90205  1.0000
  H   H3526     1.0  0.65329  0.93658  0.67042  1.0000
  H   H3527     1.0  0.72115  0.72060  0.91662  1.0000
  N   N219      1.0  0.70422  0.81547  0.69306  1.0000
  H   H3528     1.0  0.55735  0.91473  0.69117  1.0000
  H   H3529     1.0  0.56367  0.89507  0.67457  1.0000
  H   H3530     1.0  0.66659  0.96731  0.90041  1.0000
  C   C2236     1.0  0.68181  0.94263  0.65609  1.0000
  H   H3531     1.0  0.64796  0.70900  0.93527  1.0000
  H   H3532     1.0  0.66800  0.59706  0.88927  1.0000
  H   H3533     1.0  0.65451  0.61057  0.90065  1.0000
  C   C2237     1.0  0.71775  0.73334  0.91126  1.0000
  N   N220      1.0  0.61322  0.80914  0.86022  1.0000
  Fe  Fe445     1.0  0.50904  0.93148  0.73341  1.0000
  H   H3534     1.0  0.67807  0.52736  0.91577  1.0000
  S   S897      1.0  0.73703  0.91796  0.74807  1.0000
  C   C2238     1.0  0.54191  0.89048  0.84076  1.0000
  H   H3535     1.0  0.73159  0.62942  0.94602  1.0000
  S   S898      1.0  0.51427  0.91791  0.68229  1.0000
  C   C2239     1.0  0.67573  0.93875  0.63328  1.0000
  H   H3536     1.0  0.52143  0.89441  0.82260  1.0000
  H   H3537     1.0  0.51988  0.89428  0.75295  1.0000
  Fe  Fe446     1.0  0.68094  0.53962  0.94786  1.0000
  H   H3538     1.0  0.68578  0.62669  0.90630  1.0000
  H   H3539     1.0  0.66487  0.62755  0.91111  1.0000
  H   H3540     1.0  0.72594  0.80983  0.67640  1.0000
  H   H3541     1.0  0.55133  0.91390  0.76583  1.0000
  H   H3542     1.0  0.67464  0.63481  0.89135  1.0000
  S   S899      1.0  0.57938  0.57855  0.93086  1.0000
  Fe  Fe447     1.0  0.55648  0.59395  0.94038  1.0000
  C   C2240     1.0  0.54962  0.87438  0.82156  1.0000
  H   H3543     1.0  0.68178  0.58551  0.91095  1.0000
  H   H3544     1.0  0.66915  0.59922  0.92239  1.0000
  H   H3545     1.0  0.53964  0.86838  0.82737  1.0000
  C   C2241     1.0  0.53192  0.89969  0.81690  1.0000
  H   H3546     1.0  0.55252  0.87401  0.80889  1.0000
  C   C2242     1.0  0.57695  0.70802  0.88562  1.0000
  H   H3547     1.0  0.55160  0.70943  0.87508  1.0000
  H   H3548     1.0  0.70399  0.60827  0.89106  1.0000
  H   H3549     1.0  0.66489  0.61784  0.88110  1.0000
  S   S900      1.0  0.49715  0.60337  0.93995  1.0000
  H   H3550     1.0  0.60379  0.82096  0.87947  1.0000
  C   C2243     1.0  0.53483  0.90587  0.75842  1.0000
  C   C2244     1.0  0.70981  0.80377  0.70643  1.0000
  C   C2245     1.0  0.68724  0.81659  0.69484  1.0000
  H   H3551     1.0  0.62747  0.79855  0.84096  1.0000
  H   H3552     1.0  0.53754  0.94743  0.57325  1.0000
  H   H3553     1.0  0.69696  0.59533  0.88409  1.0000
  H   H3554     1.0  0.56571  0.94285  0.65238  1.0000
  C   C2246     1.0  0.68006  0.59744  0.91309  1.0000
  S   S901      1.0  0.74000  0.59405  0.91552  1.0000
  N   N221      1.0  0.67900  0.60967  0.89852  1.0000
  C   C2247     1.0  0.59107  0.70338  0.85999  1.0000
  H   H3555     1.0  0.66970  0.51024  0.92279  1.0000
  H   H3556     1.0  0.56303  0.90534  0.51428  1.0000
  C   C2248     1.0  0.61201  0.55993  0.96557  1.0000
  C   C2249     1.0  0.56355  0.88278  0.48971  1.0000
  H   H3557     1.0  0.64867  0.93375  0.65332  1.0000
  H   H3558     1.0  0.57671  0.64309  0.96842  1.0000
  C   C2250     1.0  0.66602  0.60874  0.89210  1.0000
  H   H3559     1.0  0.58499  0.90616  0.67620  1.0000
  H   H3560     1.0  0.56632  0.70691  0.89526  1.0000
  H   H3561     1.0  0.65193  0.93975  0.78835  1.0000
  H   H3562     1.0  0.55845  0.93485  0.68204  1.0000
  C   C2251     1.0  0.52686  0.95553  0.56957  1.0000
  C   C2252     1.0  0.62845  0.80515  0.84922  1.0000
  C   C2253     1.0  0.71308  0.81062  0.67819  1.0000
  H   H3563     1.0  0.73461  0.90513  0.68525  1.0000
  H   H3564     1.0  0.64940  0.68920  0.93426  1.0000
  H   H3565     1.0  0.69352  0.61605  0.87554  1.0000
  H   H3566     1.0  0.63774  0.79766  0.85558  1.0000
  H   H3567     1.0  0.55216  0.88378  0.84618  1.0000
  H   H3568     1.0  0.71156  0.79891  0.67800  1.0000
  H   H3569     1.0  0.73461  0.62052  0.92972  1.0000
  S   S902      1.0  0.69303  0.51885  0.96367  1.0000
  C   C2254     1.0  0.55792  0.98193  0.53259  1.0000
  H   H3570     1.0  0.71219  0.56622  0.89602  1.0000
  C   C2255     1.0  0.57700  0.97007  0.51231  1.0000
  H   H3571     1.0  0.56566  0.68303  0.88772  1.0000
  C   C2256     1.0  0.56265  0.71046  0.86598  1.0000
  H   H3572     1.0  0.68482  0.80524  0.69474  1.0000
  S   S903      1.0  0.73760  0.61407  0.87039  1.0000
  H   H3573     1.0  0.58966  0.82232  0.85902  1.0000
  C   C2257     1.0  0.60795  0.79455  0.86934  1.0000
  H   H3574     1.0  0.61901  0.82882  0.86453  1.0000
  C   C2258     1.0  0.54929  0.66429  0.97096  1.0000
  H   H3575     1.0  0.58569  0.92633  0.66699  1.0000
  S   S904      1.0  0.69360  0.54963  0.92328  1.0000
  H   H3576     1.0  0.68923  0.49819  0.93939  1.0000
  C   C2259     1.0  0.70667  0.51308  0.90186  1.0000
  H   H3577     1.0  0.52662  0.91184  0.65137  1.0000
  H   H3578     1.0  0.52102  0.94039  0.59955  1.0000
  H   H3579     1.0  0.50753  0.95189  0.67267  1.0000
  C   C2260     1.0  0.49246  0.97169  0.50902  1.0000
  H   H3580     1.0  0.65833  0.49340  0.94759  1.0000
  N   N222      1.0  0.72529  0.74281  0.91666  1.0000
  H   H3581     1.0  0.52617  0.96727  0.57163  1.0000
  Fe  Fe448     1.0  0.53577  0.60276  0.97005  1.0000
  C   C2261     1.0  0.72044  0.74051  0.93396  1.0000
  S   S905      1.0  0.71298  0.81273  0.92634  1.0000
  C   C2262     1.0  0.49864  0.96064  0.57281  1.0000
  H   H3582     1.0  0.57390  0.57795  0.96399  1.0000
  H   H3583     1.0  0.53601  0.64331  0.96673  1.0000
  C   C2263     1.0  0.70683  0.56156  0.92135  1.0000
  H   H3584     1.0  0.49762  0.97271  0.57427  1.0000
  H   H3585     1.0  0.66988  0.89213  0.80969  1.0000
  H   H3586     1.0  0.72977  0.68061  0.92627  1.0000
  C   C2264     1.0  0.73195  0.78375  0.93434  1.0000
  H   H3587     1.0  0.68024  0.81995  0.70610  1.0000
  C   C2265     1.0  0.62679  0.82870  0.97309  1.0000
  C   C2266     1.0  0.49513  0.55808  0.94329  1.0000
  N   N223      1.0  0.56634  0.88570  0.50387  1.0000
  Fe  Fe449     1.0  0.64939  0.54098  0.97077  1.0000
  C   C2267     1.0  0.71995  0.57446  0.93258  1.0000
  Fe  Fe450     1.0  0.72715  0.63923  0.87199  1.0000
  H   H3588     1.0  0.54490  0.87924  0.51842  1.0000
  H   H3589     1.0  0.73907  0.66603  0.90461  1.0000
  H   H3590     1.0  0.70407  0.55920  0.94620  1.0000
  H   H3591     1.0  0.51784  0.95746  0.53378  1.0000
  H   H3592     1.0  0.72323  0.78203  0.94514  1.0000
  H   H3593     1.0  0.72119  0.73475  0.89825  1.0000
  H   H3594     1.0  0.72262  0.80259  0.70538  1.0000
  N   N224      1.0  0.66080  0.91508  0.79668  1.0000
  C   C2268     1.0  0.64776  0.91024  0.79373  1.0000
  H   H3595     1.0  0.59268  0.97243  0.61126  1.0000
  H   H3596     1.0  0.67116  0.92220  0.77213  1.0000
  C   C2269     1.0  0.66472  0.97355  0.88881  1.0000
  H   H3597     1.0  0.52414  0.92533  0.57914  1.0000
  H   H3598     1.0  0.71881  0.50592  0.90199  1.0000
  H   H3599     1.0  0.64381  0.91792  0.78302  1.0000
  H   H3600     1.0  0.65125  0.89790  0.79215  1.0000
  C   C2270     1.0  0.67429  0.91416  0.78308  1.0000
  N   N225      1.0  0.51248  0.94958  0.57815  1.0000
  Fe  Fe451     1.0  0.49471  0.96156  0.71217  1.0000
  H   H3601     1.0  0.52870  0.95682  0.55666  1.0000
  Fe  Fe452     1.0  0.72402  0.94071  0.75512  1.0000
  N   N226      1.0  0.69482  0.50550  0.91415  1.0000
  C   C2271     1.0  0.50546  0.98154  0.52838  1.0000
  H   H3602     1.0  0.66497  0.93536  0.80144  1.0000
  H   H3603     1.0  0.68435  0.91763  0.78500  1.0000
  C   C2272     1.0  0.70969  0.56456  0.93451  1.0000
  H   H3604     1.0  0.70454  0.51482  0.88992  1.0000
  H   H3605     1.0  0.64517  0.93253  0.80906  1.0000
  H   H3606     1.0  0.67856  0.90204  0.78093  1.0000
  H   H3607     1.0  0.66634  0.93912  0.62733  1.0000
  H   H3608     1.0  0.70748  0.76397  0.91282  1.0000
  H   H3609     1.0  0.58814  0.86848  0.50339  1.0000
  H   H3610     1.0  0.72669  0.75746  0.96952  1.0000
  H   H3611     1.0  0.49947  0.96158  0.56013  1.0000
  H   H3612     1.0  0.69820  0.51493  0.93191  1.0000
  Fe  Fe453     1.0  0.67039  0.79057  0.96876  1.0000
  H   H3613     1.0  0.70638  0.52486  0.90364  1.0000
  S   S906      1.0  0.73319  0.63682  0.89500  1.0000
  H   H3614     1.0  0.70989  0.49563  0.93072  1.0000
  H   H3615     1.0  0.72422  0.72799  0.93983  1.0000
  Fe  Fe454     1.0  0.49781  0.94084  0.49550  1.0000
  H   H3616     1.0  0.73004  0.58390  0.89266  1.0000
  H   H3617     1.0  0.69274  0.49105  0.89987  1.0000
  H   H3618     1.0  0.58247  0.97131  0.49955  1.0000
  H   H3619     1.0  0.58654  0.96778  0.51874  1.0000
  C   C2273     1.0  0.56611  0.63877  0.96915  1.0000
  H   H3620     1.0  0.50880  0.95977  0.59800  1.0000
  H   H3621     1.0  0.63692  0.82230  0.96544  1.0000
  H   H3622     1.0  0.61595  0.82790  0.97008  1.0000
  H   H3623     1.0  0.56496  0.64017  0.95690  1.0000
  S   S907      1.0  0.62427  0.55304  0.97919  1.0000
  C   C2274     1.0  0.73925  0.62815  0.93430  1.0000
  H   H3624     1.0  0.56619  0.91009  0.49313  1.0000
  H   H3625     1.0  0.55079  0.88612  0.48956  1.0000
  C   C2275     1.0  0.74099  0.82290  0.64231  1.0000
  S   S908      1.0  0.49653  0.91658  0.72706  1.0000
  H   H3626     1.0  0.56710  0.97946  0.53950  1.0000
  Fe  Fe455     1.0  0.74078  0.93294  0.72365  1.0000
  H   H3627     1.0  0.73787  0.63996  0.92627  1.0000
  C   C2276     1.0  0.53803  0.64138  0.97874  1.0000
  H   H3628     1.0  0.71579  0.78417  0.97545  1.0000
  C   C2277     1.0  0.88401  0.27463  0.46183  1.0000
  Fe  Fe456     1.0  0.74328  0.31508  0.19428  1.0000
  S   S909      1.0  0.88060  0.46411  0.37651  1.0000
  N   N227      1.0  0.98150  0.25073  0.12546  1.0000
  H   H3629     1.0  0.90923  0.22568  0.46684  1.0000
  H   H3630     1.0  0.79306  0.28366  0.35689  1.0000
  S   S910      1.0  0.89864  0.47352  0.40459  1.0000
  H   H3631     1.0  0.78258  0.27083  0.10582  1.0000
  H   H3632     1.0  0.88424  0.24403  0.47491  1.0000
  Fe  Fe457     1.0  0.97980  0.16968  0.25486  1.0000
  S   S911      1.0  0.96468  0.15828  0.27675  1.0000
  S   S912      1.0  0.96780  0.18948  0.23797  1.0000
  Fe  Fe458     1.0  0.97775  0.13560  0.26945  1.0000
  S   S913      1.0  0.96804  0.11739  0.26458  1.0000
  H   H3633     1.0  0.77555  0.99130  0.24211  1.0000
  C   C2278     1.0  0.75850  0.04645  0.33034  1.0000
  S   S914      1.0  0.77827  0.18825  0.98974  1.0000
  H   H3634     1.0  0.93200  0.34430  0.40096  1.0000
  C   C2279     1.0  0.98561  0.23795  0.13883  1.0000
  C   C2280     1.0  0.74165  0.16850  0.11646  1.0000
  S   S915      1.0  0.76543  0.22531  0.09298  1.0000
  S   S916      1.0  0.75347  0.26074  0.11085  1.0000
  C   C2281     1.0  0.77159  0.26447  0.31496  1.0000
  Fe  Fe459     1.0  0.97506  0.27932  0.16507  1.0000
  S   S917      1.0  0.95038  0.28645  0.16075  1.0000
  C   C2282     1.0  0.92157  0.31940  0.42132  1.0000
  C   C2283     1.0  0.79858  0.25247  0.35814  1.0000
  H   H3635     1.0  0.93771  0.25725  0.43560  1.0000
  Fe  Fe460     1.0  0.88046  0.11736  0.27508  1.0000
  S   S918      1.0  0.88735  0.10624  0.25428  1.0000
  S   S919      1.0  0.89640  0.11368  0.29159  1.0000
  Fe  Fe461     1.0  0.84757  0.13306  0.26928  1.0000
  S   S920      1.0  0.85178  0.12324  0.24797  1.0000
  S   S921      1.0  0.82354  0.14723  0.27747  1.0000
  Fe  Fe462     1.0  0.86316  0.10076  0.26240  1.0000
  S   S922      1.0  0.85960  0.07606  0.26620  1.0000
  Fe  Fe463     1.0  0.87528  0.12972  0.24206  1.0000
  S   S923      1.0  0.88608  0.14314  0.21860  1.0000
  S   S924      1.0  0.85712  0.11024  0.28423  1.0000
  S   S925      1.0  0.87022  0.14129  0.26232  1.0000
  Fe  Fe464     1.0  0.88531  0.24321  0.17193  1.0000
  S   S926      1.0  0.87036  0.22896  0.16808  1.0000
  S   S927      1.0  0.91182  0.23558  0.16729  1.0000
  Fe  Fe465     1.0  0.85711  0.26531  0.18697  1.0000
  S   S928      1.0  0.84001  0.25299  0.18467  1.0000
  S   S929      1.0  0.84732  0.28710  0.19658  1.0000
  Fe  Fe466     1.0  0.85690  0.23092  0.19253  1.0000
  S   S930      1.0  0.84572  0.21265  0.21094  1.0000
  Fe  Fe467     1.0  0.85474  0.25239  0.16052  1.0000
  S   S931      1.0  0.84015  0.26065  0.14215  1.0000
  S   S932      1.0  0.87290  0.24331  0.19708  1.0000
  S   S933      1.0  0.87086  0.26653  0.16212  1.0000
  H   H3636     1.0  0.91301  0.35715  0.40092  1.0000
  C   C2284     1.0  0.82616  0.22222  0.39964  1.0000
  Fe  Fe468     1.0  0.86976  0.25004  0.42614  1.0000
  S   S934      1.0  0.82134  0.19239  0.32017  1.0000
  Fe  Fe469     1.0  0.81379  0.29843  0.27805  1.0000
  S   S935      1.0  0.82525  0.27545  0.27053  1.0000
  S   S936      1.0  0.81241  0.30212  0.30193  1.0000
  H   H3637     1.0  0.89249  0.23707  0.38755  1.0000
  S   S937      1.0  0.79655  0.19816  0.10044  1.0000
  S   S938      1.0  0.74372  0.04719  0.23073  1.0000
  C   C2285     1.0  0.91969  0.34662  0.40794  1.0000
  S   S939      1.0  0.85421  0.26234  0.44499  1.0000
  Fe  Fe470     1.0  0.80082  0.21436  0.11290  1.0000
  S   S940      1.0  0.82288  0.20693  0.12243  1.0000
  S   S941      1.0  0.93506  0.23790  0.46727  1.0000
  H   H3638     1.0  0.91347  0.21520  0.37825  1.0000
  S   S942      1.0  0.79001  0.03774  0.22705  1.0000
  S   S943      1.0  0.84342  0.22380  0.40417  1.0000
  H   H3639     1.0  0.93408  0.31621  0.41507  1.0000
  Fe  Fe471     1.0  0.79397  0.04787  0.24538  1.0000
  S   S944      1.0  0.80455  0.06923  0.23930  1.0000
  S   S945      1.0  0.80101  0.02427  0.26083  1.0000
  Fe  Fe472     1.0  0.87571  0.38515  0.34764  1.0000
  S   S946      1.0  0.87411  0.38255  0.37334  1.0000
  S   S947      1.0  0.89735  0.39241  0.33122  1.0000
  Fe  Fe473     1.0  0.84355  0.37806  0.35303  1.0000
  S   S948      1.0  0.83951  0.37478  0.37921  1.0000
  S   S949      1.0  0.82267  0.37668  0.34473  1.0000
  Fe  Fe474     1.0  0.84943  0.39629  0.37371  1.0000
  S   S950      1.0  0.83778  0.41556  0.38714  1.0000
  Fe  Fe475     1.0  0.86452  0.36135  0.37640  1.0000
  S   S951      1.0  0.87375  0.33847  0.39203  1.0000
  S   S952      1.0  0.85167  0.40063  0.34772  1.0000
  S   S953      1.0  0.86797  0.36279  0.35055  1.0000
  S   S954      1.0  0.85313  0.25945  0.40989  1.0000
  Fe  Fe476     1.0  0.83670  0.26982  0.42959  1.0000
  S   S955      1.0  0.82447  0.29513  0.42337  1.0000
  H   H3640     1.0  0.96104  0.38478  0.33306  1.0000
  S   S956      1.0  0.75678  0.21153  0.36187  1.0000
  C   C2286     1.0  0.74778  0.06141  0.17250  1.0000
  H   H3641     1.0  0.76664  0.34011  0.10050  1.0000
  H   H3642     1.0  0.84890  0.21683  0.09376  1.0000
  H   H3643     1.0  0.76843  0.27078  0.38338  1.0000
  Fe  Fe477     1.0  0.96403  0.37989  0.37334  1.0000
  S   S957      1.0  0.94170  0.37154  0.37889  1.0000
  S   S958      1.0  0.97131  0.38497  0.39272  1.0000
  H   H3644     1.0  0.76695  0.31952  0.10653  1.0000
  Fe  Fe478     1.0  0.96584  0.28081  0.44972  1.0000
  S   S959      1.0  0.95596  0.30567  0.43812  1.0000
  S   S960      1.0  0.96658  0.26260  0.43692  1.0000
  H   H3645     1.0  0.98668  0.35447  0.31172  1.0000
  Fe  Fe479     1.0  0.77118  0.20484  0.11246  1.0000
  H   H3646     1.0  0.97655  0.23880  0.20128  1.0000
  C   C2287     1.0  0.96917  0.31828  0.42930  1.0000
  C   C2288     1.0  0.96530  0.33124  0.41736  1.0000
  C   C2289     1.0  0.97596  0.34097  0.40936  1.0000
  C   C2290     1.0  0.85290  0.31435  0.36751  1.0000
  H   H3647     1.0  0.77693  0.15271  0.01139  1.0000
  H   H3648     1.0  0.95416  0.33364  0.41405  1.0000
  H   H3649     1.0  0.97293  0.35071  0.39994  1.0000
  C   C2291     1.0  0.91138  0.38606  0.34278  1.0000
  C   C2292     1.0  0.92145  0.39563  0.34216  1.0000
  C   C2293     1.0  0.93140  0.39100  0.35283  1.0000
  C   C2294     1.0  0.93112  0.37692  0.36409  1.0000
  C   C2295     1.0  0.92155  0.36716  0.36420  1.0000
  C   C2296     1.0  0.91170  0.37170  0.35359  1.0000
  H   H3650     1.0  0.92106  0.40682  0.33386  1.0000
  H   H3651     1.0  0.93883  0.39853  0.35270  1.0000
  H   H3652     1.0  0.92160  0.35616  0.37265  1.0000
  H   H3653     1.0  0.90402  0.36425  0.35401  1.0000
  C   C2297     1.0  0.85994  0.32673  0.40186  1.0000
  C   C2298     1.0  0.84378  0.33325  0.40433  1.0000
  C   C2299     1.0  0.83291  0.32353  0.41127  1.0000
  C   C2300     1.0  0.83818  0.30726  0.41578  1.0000
  C   C2301     1.0  0.85436  0.30077  0.41363  1.0000
  C   C2302     1.0  0.86522  0.31051  0.40680  1.0000
  H   H3654     1.0  0.83961  0.34578  0.40098  1.0000
  H   H3655     1.0  0.82040  0.32862  0.41308  1.0000
  H   H3656     1.0  0.85856  0.28823  0.41700  1.0000
  H   H3657     1.0  0.87771  0.30537  0.40492  1.0000
  C   C2303     1.0  0.83080  0.34681  0.30857  1.0000
  C   C2304     1.0  0.81559  0.35200  0.31698  1.0000
  C   C2305     1.0  0.81320  0.36128  0.32795  1.0000
  C   C2306     1.0  0.82599  0.36529  0.33067  1.0000
  C   C2307     1.0  0.84119  0.35997  0.32237  1.0000
  C   C2308     1.0  0.84356  0.35084  0.31131  1.0000
  H   H3658     1.0  0.80568  0.34899  0.31492  1.0000
  H   H3659     1.0  0.80139  0.36537  0.33432  1.0000
  H   H3660     1.0  0.85112  0.36308  0.32427  1.0000
  H   H3661     1.0  0.92206  0.26222  0.41557  1.0000
  C   C2309     1.0  0.81417  0.21373  0.38315  1.0000
  C   C2310     1.0  0.82760  0.21534  0.38703  1.0000
  H   H3662     1.0  0.94981  0.47780  0.40836  1.0000
  H   H3663     1.0  0.81544  0.20843  0.37341  1.0000
  H   H3664     1.0  0.83917  0.21118  0.38025  1.0000
  C   C2311     1.0  0.83550  0.24573  0.13653  1.0000
  C   C2312     1.0  0.82169  0.24883  0.13102  1.0000
  C   C2313     1.0  0.81768  0.23695  0.12670  1.0000
  C   C2314     1.0  0.82763  0.22203  0.12764  1.0000
  C   C2315     1.0  0.84161  0.21905  0.13279  1.0000
  C   C2316     1.0  0.84549  0.23084  0.13735  1.0000
  H   H3665     1.0  0.81396  0.26037  0.13031  1.0000
  H   H3666     1.0  0.80684  0.23935  0.12278  1.0000
  H   H3667     1.0  0.84949  0.20762  0.13321  1.0000
  H   H3668     1.0  0.85634  0.22854  0.14122  1.0000
  C   C2317     1.0  0.83996  0.28334  0.21700  1.0000
  C   C2318     1.0  0.84343  0.26822  0.22630  1.0000
  C   C2319     1.0  0.83891  0.26580  0.24276  1.0000
  C   C2320     1.0  0.83042  0.27839  0.24992  1.0000
  C   C2321     1.0  0.82625  0.29329  0.24054  1.0000
  C   C2322     1.0  0.83122  0.29583  0.22414  1.0000
  H   H3669     1.0  0.84995  0.25846  0.22087  1.0000
  H   H3670     1.0  0.84216  0.25422  0.24991  1.0000
  H   H3671     1.0  0.81928  0.30296  0.24587  1.0000
  H   H3672     1.0  0.82832  0.30751  0.21702  1.0000
  C   C2323     1.0  0.84431  0.07404  0.25875  1.0000
  C   C2324     1.0  0.83615  0.08688  0.24937  1.0000
  C   C2325     1.0  0.82415  0.08510  0.24339  1.0000
  C   C2326     1.0  0.82007  0.07050  0.24683  1.0000
  C   C2327     1.0  0.82805  0.05762  0.25640  1.0000
  C   C2328     1.0  0.84020  0.05939  0.26228  1.0000
  H   H3673     1.0  0.83922  0.09817  0.24648  1.0000
  H   H3674     1.0  0.81806  0.09510  0.23599  1.0000
  H   H3675     1.0  0.82500  0.04631  0.25909  1.0000
  H   H3676     1.0  0.84647  0.04938  0.26951  1.0000
  C   C2329     1.0  0.82362  0.16072  0.28798  1.0000
  C   C2330     1.0  0.83714  0.16043  0.29277  1.0000
  C   C2331     1.0  0.83650  0.17055  0.30229  1.0000
  C   C2332     1.0  0.82229  0.18071  0.30726  1.0000
  C   C2333     1.0  0.80894  0.18125  0.30208  1.0000
  C   C2334     1.0  0.80963  0.17136  0.29238  1.0000
  H   H3677     1.0  0.84796  0.15215  0.28951  1.0000
  H   H3678     1.0  0.84690  0.17013  0.30620  1.0000
  H   H3679     1.0  0.79806  0.18926  0.30543  1.0000
  H   H3680     1.0  0.79922  0.17173  0.28851  1.0000
  C   C2335     1.0  0.87503  0.16252  0.21620  1.0000
  C   C2336     1.0  0.88104  0.17458  0.20470  1.0000
  C   C2337     1.0  0.87227  0.19015  0.20317  1.0000
  C   C2338     1.0  0.85741  0.19357  0.21304  1.0000
  C   C2339     1.0  0.85136  0.18149  0.22437  1.0000
  C   C2340     1.0  0.86016  0.16602  0.22597  1.0000
  H   H3681     1.0  0.89255  0.17192  0.19712  1.0000
  H   H3682     1.0  0.87701  0.19946  0.19439  1.0000
  H   H3683     1.0  0.83986  0.18407  0.23199  1.0000
  H   H3684     1.0  0.85533  0.15679  0.23475  1.0000
  H   H3685     1.0  0.82490  0.31268  0.38748  1.0000
  C   C2341     1.0  0.94022  0.27204  0.16205  1.0000
  C   C2342     1.0  0.92573  0.27673  0.15750  1.0000
  C   C2343     1.0  0.91688  0.26563  0.15915  1.0000
  C   C2344     1.0  0.92266  0.24973  0.16505  1.0000
  C   C2345     1.0  0.93735  0.24497  0.16921  1.0000
  C   C2346     1.0  0.94603  0.25612  0.16790  1.0000
  H   H3686     1.0  0.92127  0.28902  0.15282  1.0000
  H   H3687     1.0  0.90569  0.26935  0.15566  1.0000
  H   H3688     1.0  0.94184  0.23267  0.17383  1.0000
  H   H3689     1.0  0.95705  0.25242  0.17170  1.0000
  H   H3690     1.0  0.81960  0.30524  0.16143  1.0000
  N   N228      1.0  0.74441  0.33417  0.10342  1.0000
  H   H3691     1.0  0.75841  0.35463  0.22800  1.0000
  S   S961      1.0  0.82531  0.24896  0.44028  1.0000
  C   C2347     1.0  0.82563  0.31242  0.37507  1.0000
  Fe  Fe480     1.0  0.79727  0.19913  0.33521  1.0000
  Fe  Fe481     1.0  0.76640  0.22264  0.33691  1.0000
  H   H3692     1.0  0.78953  0.15533  0.31625  1.0000
  S   S962      1.0  0.86144  0.22765  0.43656  1.0000
  H   H3693     1.0  0.76559  0.12948  0.01808  1.0000
  C   C2348     1.0  0.94779  0.11771  0.27167  1.0000
  C   C2349     1.0  0.93990  0.12111  0.28635  1.0000
  C   C2350     1.0  0.92406  0.12000  0.29229  1.0000
  C   C2351     1.0  0.91587  0.11611  0.28334  1.0000
  C   C2352     1.0  0.92356  0.11347  0.26833  1.0000
  C   C2353     1.0  0.93958  0.11394  0.26266  1.0000
  H   H3694     1.0  0.94616  0.12399  0.29339  1.0000
  H   H3695     1.0  0.91816  0.12207  0.30391  1.0000
  H   H3696     1.0  0.91731  0.11071  0.26122  1.0000
  H   H3697     1.0  0.94561  0.11138  0.25125  1.0000
  C   C2354     1.0  0.75254  0.15834  0.09265  1.0000
  N   N229      1.0  0.80101  0.29419  0.17675  1.0000
  H   H3698     1.0  0.89372  0.26660  0.45539  1.0000
  H   H3699     1.0  0.78531  0.43635  0.37388  1.0000
  H   H3700     1.0  0.77318  0.16629  0.07776  1.0000
  C   C2355     1.0  0.97258  0.21714  0.21752  1.0000
  N   N230      1.0  0.80482  0.42414  0.35888  1.0000
  H   H3701     1.0  0.96372  0.21600  0.21223  1.0000
  C   C2356     1.0  0.77009  0.20372  0.03711  1.0000
  H   H3702     1.0  0.89891  0.20724  0.37481  1.0000
  H   H3703     1.0  0.78812  0.31614  0.18312  1.0000
  C   C2357     1.0  0.79772  0.22568  0.40461  1.0000
  C   C2358     1.0  0.77997  0.20495  0.05897  1.0000
  C   C2359     1.0  0.77022  0.19945  0.05314  1.0000
  H   H3704     1.0  0.77980  0.20178  0.07139  1.0000
  S   S963      1.0  0.81927  0.32192  0.26509  1.0000
  H   H3705     1.0  0.84654  0.32708  0.33905  1.0000
  C   C2360     1.0  0.90633  0.24728  0.43009  1.0000
  S   S964      1.0  0.96595  0.48206  0.45316  1.0000
  Fe  Fe482     1.0  0.79451  0.01433  0.24383  1.0000
  Fe  Fe483     1.0  0.98098  0.40431  0.37442  1.0000
  H   H3706     1.0  0.80607  0.42938  0.33394  1.0000
  H   H3707     1.0  0.79701  0.29183  0.20173  1.0000
  C   C2361     1.0  0.79739  0.28503  0.19305  1.0000
  C   C2362     1.0  0.86833  0.45085  0.37985  1.0000
  C   C2363     1.0  0.85549  0.44987  0.39266  1.0000
  C   C2364     1.0  0.84607  0.43908  0.39482  1.0000
  C   C2365     1.0  0.84965  0.42902  0.38440  1.0000
  C   C2366     1.0  0.86253  0.42996  0.37167  1.0000
  C   C2367     1.0  0.87168  0.44098  0.36930  1.0000
  H   H3708     1.0  0.85278  0.45747  0.40083  1.0000
  H   H3709     1.0  0.83610  0.43840  0.40469  1.0000
  H   H3710     1.0  0.86533  0.42235  0.36350  1.0000
  H   H3711     1.0  0.88135  0.44186  0.35917  1.0000
  H   H3712     1.0  0.76962  0.09284  0.26969  1.0000
  C   C2368     1.0  0.77967  0.26250  0.37972  1.0000
  H   H3713     1.0  0.80455  0.12795  0.31996  1.0000
  H   H3714     1.0  0.82059  0.41278  0.34070  1.0000
  H   H3715     1.0  0.74225  0.31995  0.08897  1.0000
  H   H3716     1.0  0.74314  0.32417  0.12797  1.0000
  H   H3717     1.0  0.80396  0.29144  0.15318  1.0000
  H   H3718     1.0  0.82896  0.29985  0.37432  1.0000
  C   C2369     1.0  0.98630  0.28535  0.22539  1.0000
  N   N231      1.0  0.90162  0.06568  0.28811  1.0000
  C   C2370     1.0  0.90622  0.05150  0.30003  1.0000
  C   C2371     1.0  0.89798  0.06109  0.27528  1.0000
  C   C2372     1.0  0.91466  0.07410  0.28164  1.0000
  C   C2373     1.0  0.88754  0.07613  0.29550  1.0000
  H   H3719     1.0  0.89654  0.04499  0.30521  1.0000
  H   H3720     1.0  0.90907  0.05461  0.30983  1.0000
  H   H3721     1.0  0.91678  0.04331  0.29484  1.0000
  H   H3722     1.0  0.89433  0.07154  0.26613  1.0000
  H   H3723     1.0  0.90831  0.05323  0.26935  1.0000
  H   H3724     1.0  0.88801  0.05492  0.27969  1.0000
  H   H3725     1.0  0.91162  0.08470  0.27241  1.0000
  H   H3726     1.0  0.92565  0.06655  0.27625  1.0000
  H   H3727     1.0  0.91728  0.07833  0.29089  1.0000
  H   H3728     1.0  0.88421  0.08709  0.28689  1.0000
  H   H3729     1.0  0.88969  0.07972  0.30539  1.0000
  H   H3730     1.0  0.87719  0.07052  0.29997  1.0000
  N   N232      1.0  0.78442  0.08122  0.28627  1.0000
  C   C2374     1.0  0.78420  0.06537  0.28503  1.0000
  C   C2375     1.0  0.80006  0.08118  0.28834  1.0000
  C   C2376     1.0  0.77218  0.08563  0.29991  1.0000
  C   C2377     1.0  0.78124  0.09267  0.27174  1.0000
  S   S965      1.0  0.75634  0.19800  0.03063  1.0000
  H   H3731     1.0  0.97078  0.46045  0.38288  1.0000
  H   H3732     1.0  0.77265  0.06507  0.28323  1.0000
  H   H3733     1.0  0.77838  0.25054  0.38665  1.0000
  H   H3734     1.0  0.80955  0.07789  0.27824  1.0000
  H   H3735     1.0  0.96051  0.46343  0.43217  1.0000
  H   H3736     1.0  0.78040  0.21626  0.01434  1.0000
  C   C2378     1.0  0.76026  0.03537  0.30829  1.0000
  C   C2379     1.0  0.99053  0.33792  0.41336  1.0000
  H   H3737     1.0  0.74717  0.16405  0.04619  1.0000
  C   C2380     1.0  0.88422  0.47336  0.46493  1.0000
  H   H3738     1.0  0.79030  0.08973  0.26122  1.0000
  C   C2381     1.0  0.77077  0.25823  0.35883  1.0000
  Fe  Fe484     1.0  0.79125  0.22023  0.08229  1.0000
  H   H3739     1.0  0.81334  0.44547  0.34821  1.0000
  H   H3740     1.0  0.76983  0.16696  0.02357  1.0000
  C   C2382     1.0  0.88811  0.28653  0.18703  1.0000
  C   C2383     1.0  0.74747  0.31945  0.26743  1.0000
  H   H3741     1.0  0.89418  0.21622  0.41995  1.0000
  C   C2384     1.0  0.90237  0.21231  0.40940  1.0000
  H   H3742     1.0  0.75976  0.05990  0.16471  1.0000
  H   H3743     1.0  0.80287  0.07262  0.29916  1.0000
  H   H3744     1.0  0.91077  0.29557  0.19400  1.0000
  C   C2385     1.0  0.79040  0.21826  0.03259  1.0000
  H   H3745     1.0  0.83125  0.23093  0.09077  1.0000
  H   H3746     1.0  0.78045  0.25621  0.30887  1.0000
  H   H3747     1.0  0.98507  0.38325  0.30340  1.0000
  H   H3748     1.0  0.82610  0.28739  0.17472  1.0000
  H   H3749     1.0  0.76199  0.04551  0.34111  1.0000
  H   H3750     1.0  0.78740  0.28016  0.34093  1.0000
  C   C2386     1.0  0.75500  0.13579  0.02537  1.0000
  C   C2387     1.0  0.93202  0.48250  0.43638  1.0000
  H   H3751     1.0  0.80198  0.25321  0.34522  1.0000
  H   H3752     1.0  0.76019  0.08599  0.29863  1.0000
  H   H3753     1.0  0.98598  0.22625  0.13690  1.0000
  C   C2388     1.0  0.76627  0.15855  0.01901  1.0000
  H   H3754     1.0  0.74223  0.35911  0.09459  1.0000
  C   C2389     1.0  0.97401  0.35670  0.31146  1.0000
  H   H3755     1.0  0.74340  0.30977  0.10873  1.0000
  C   C2390     1.0  0.98021  0.43599  0.39179  1.0000
  C   C2391     1.0  0.74739  0.29512  0.28689  1.0000
  S   S966      1.0  0.97158  0.40041  0.35546  1.0000
  H   H3756     1.0  0.76943  0.24624  0.36572  1.0000
  S   S967      1.0  0.76070  0.22577  0.98645  1.0000
  S   S968      1.0  0.75188  0.14757  0.07954  1.0000
  H   H3757     1.0  0.77259  0.28772  0.35632  1.0000
  H   H3758     1.0  0.88898  0.34695  0.41327  1.0000
  H   H3759     1.0  0.92009  0.34983  0.41880  1.0000
  H   H3760     1.0  0.92177  0.32212  0.43251  1.0000
  C   C2392     1.0  0.75987  0.01429  0.20424  1.0000
  N   N233      1.0  0.92967  0.16476  0.24514  1.0000
  C   C2393     1.0  0.92719  0.17716  0.25383  1.0000
  C   C2394     1.0  0.91824  0.15462  0.25326  1.0000
  C   C2395     1.0  0.94588  0.15520  0.24454  1.0000
  C   C2396     1.0  0.92743  0.17208  0.22897  1.0000
  H   H3761     1.0  0.93562  0.18505  0.24798  1.0000
  H   H3762     1.0  0.92900  0.17203  0.26603  1.0000
  H   H3763     1.0  0.91507  0.18459  0.25461  1.0000
  H   H3764     1.0  0.91978  0.14511  0.24703  1.0000
  H   H3765     1.0  0.91962  0.14889  0.26550  1.0000
  H   H3766     1.0  0.90587  0.16142  0.25392  1.0000
  H   H3767     1.0  0.95482  0.16246  0.23835  1.0000
  H   H3768     1.0  0.94817  0.14548  0.23837  1.0000
  H   H3769     1.0  0.94804  0.14975  0.25655  1.0000
  H   H3770     1.0  0.92924  0.16303  0.22208  1.0000
  H   H3771     1.0  0.93588  0.17983  0.22254  1.0000
  H   H3772     1.0  0.91530  0.17937  0.22897  1.0000
  H   H3773     1.0  0.83608  0.18815  0.15587  1.0000
  H   H3774     1.0  0.74219  0.04665  0.12521  1.0000
  C   C2397     1.0  0.81114  0.22748  0.40836  1.0000
  H   H3775     1.0  0.87791  0.22905  0.38394  1.0000
  S   S969      1.0  0.76935  0.01599  0.25668  1.0000
  H   H3776     1.0  0.81977  0.13899  0.34079  1.0000
  H   H3777     1.0  0.79818  0.22559  0.02464  1.0000
  C   C2398     1.0  0.81112  0.14718  0.33400  1.0000
  H   H3778     1.0  0.78775  0.15045  0.35894  1.0000
  S   S970      1.0  0.77600  0.21882  0.12685  1.0000
  H   H3779     1.0  0.74522  0.18579  0.33249  1.0000
  H   H3780     1.0  0.78555  0.44312  0.35323  1.0000
  H   H3781     1.0  0.88911  0.18933  0.40862  1.0000
  S   S971      1.0  0.97877  0.23648  0.46657  1.0000
  H   H3782     1.0  0.87401  0.20519  0.41518  1.0000
  C   C2399     1.0  0.84342  0.22610  0.08469  1.0000
  C   C2400     1.0  0.81655  0.29815  0.17356  1.0000
  N   N234      1.0  0.78329  0.26315  0.36265  1.0000
  C   C2401     1.0  0.80131  0.28483  0.16560  1.0000
  H   H3783     1.0  0.80896  0.15897  0.33670  1.0000
  H   H3784     1.0  0.75793  0.16553  0.01136  1.0000
  N   N235      1.0  0.81026  0.23170  0.28321  1.0000
  C   C2402     1.0  0.81742  0.23724  0.29291  1.0000
  C   C2403     1.0  0.79661  0.22518  0.29323  1.0000
  C   C2404     1.0  0.82208  0.21935  0.27594  1.0000
  C   C2405     1.0  0.80497  0.24499  0.27076  1.0000
  H   H3785     1.0  0.82792  0.24200  0.28573  1.0000
  H   H3786     1.0  0.82133  0.22753  0.30259  1.0000
  H   H3787     1.0  0.80901  0.24683  0.29830  1.0000
  H   H3788     1.0  0.79153  0.21995  0.28653  1.0000
  H   H3789     1.0  0.80002  0.21584  0.30330  1.0000
  H   H3790     1.0  0.78702  0.23431  0.29821  1.0000
  H   H3791     1.0  0.83246  0.22392  0.26813  1.0000
  H   H3792     1.0  0.81710  0.21463  0.26873  1.0000
  H   H3793     1.0  0.82650  0.20927  0.28504  1.0000
  H   H3794     1.0  0.79639  0.25472  0.27583  1.0000
  H   H3795     1.0  0.79931  0.24130  0.26335  1.0000
  H   H3796     1.0  0.81501  0.25004  0.26286  1.0000
  N   N236      1.0  0.96540  0.37226  0.31479  1.0000
  C   C2406     1.0  0.97259  0.38464  0.30296  1.0000
  C   C2407     1.0  0.75168  0.28869  0.13904  1.0000
  C   C2408     1.0  0.94873  0.37487  0.31407  1.0000
  C   C2409     1.0  0.96632  0.37285  0.33064  1.0000
  S   S972      1.0  0.75591  0.16744  0.36112  1.0000
  Fe  Fe485     1.0  0.74918  0.31354  0.16023  1.0000
  H   H3797     1.0  0.78126  0.13208  0.03568  1.0000
  H   H3798     1.0  0.74298  0.14097  0.36399  1.0000
  S   S973      1.0  0.75443  0.16230  0.98129  1.0000
  H   H3799     1.0  0.74846  0.05242  0.18367  1.0000
  C   C2410     1.0  0.76447  0.03415  0.32235  1.0000
  H   H3800     1.0  0.74416  0.34443  0.12226  1.0000
  C   C2411     1.0  0.74796  0.27858  0.13214  1.0000
  S   S974      1.0  0.98618  0.36270  0.36622  1.0000
  H   H3801     1.0  0.74641  0.14187  0.01769  1.0000
  H   H3802     1.0  0.92965  0.47923  0.40854  1.0000
  N   N237      1.0  0.84335  0.21970  0.07136  1.0000
  C   C2412     1.0  0.85971  0.21339  0.06371  1.0000
  Fe  Fe486     1.0  0.75917  0.20325  0.00439  1.0000
  C   C2413     1.0  0.83565  0.23229  0.05983  1.0000
  C   C2414     1.0  0.90265  0.23705  0.44461  1.0000
  H   H3803     1.0  0.86669  0.22268  0.05914  1.0000
  H   H3804     1.0  0.86002  0.20847  0.05361  1.0000
  H   H3805     1.0  0.95436  0.44647  0.43173  1.0000
  C   C2415     1.0  0.76515  0.31795  0.22118  1.0000
  H   H3806     1.0  0.87603  0.23257  0.40284  1.0000
  H   H3807     1.0  0.80534  0.41337  0.38315  1.0000
  H   H3808     1.0  0.82326  0.23730  0.06522  1.0000
  H   H3809     1.0  0.83508  0.22777  0.04979  1.0000
  H   H3810     1.0  0.84196  0.24210  0.05500  1.0000
  C   C2416     1.0  0.88471  0.22848  0.39269  1.0000
  H   H3811     1.0  0.84996  0.23572  0.08078  1.0000
  H   H3812     1.0  0.80987  0.23269  0.41816  1.0000
  C   C2417     1.0  0.90644  0.26611  0.20043  1.0000
  H   H3813     1.0  0.86578  0.20380  0.07210  1.0000
  H   H3814     1.0  0.91684  0.26849  0.19092  1.0000
  C   C2418     1.0  0.83458  0.20696  0.07723  1.0000
  H   H3815     1.0  0.88335  0.27756  0.18463  1.0000
  C   C2419     1.0  0.78999  0.21445  0.04877  1.0000
  H   H3816     1.0  0.97811  0.27594  0.11877  1.0000
  H   H3817     1.0  0.79764  0.13014  0.36169  1.0000
  H   H3818     1.0  0.79035  0.31258  0.24506  1.0000
  H   H3819     1.0  0.78166  0.29793  0.23087  1.0000
  H   H3820     1.0  0.90206  0.25702  0.19772  1.0000
  C   C2420     1.0  0.77478  0.27875  0.31487  1.0000
  H   H3821     1.0  0.81687  0.30494  0.18197  1.0000
  Fe  Fe487     1.0  0.77529  0.02770  0.27225  1.0000
  C   C2421     1.0  0.74546  0.27175  0.33078  1.0000
  H   H3822     1.0  0.79096  0.31600  0.16262  1.0000
  C   C2422     1.0  0.77749  0.28642  0.12168  1.0000
  C   C2423     1.0  0.78876  0.30881  0.17482  1.0000
  H   H3823     1.0  0.92870  0.48024  0.44945  1.0000
  H   H3824     1.0  0.77209  0.09743  0.30139  1.0000
  H   H3825     1.0  0.91423  0.41975  0.36500  1.0000
  H   H3826     1.0  0.85389  0.20083  0.16228  1.0000
  C   C2424     1.0  0.79915  0.21884  0.39198  1.0000
  C   C2425     1.0  0.79962  0.12656  0.33287  1.0000
  H   H3827     1.0  0.78209  0.16488  0.33258  1.0000
  H   H3828     1.0  0.77254  0.02375  0.32700  1.0000
  C   C2426     1.0  0.98126  0.45770  0.40247  1.0000
  H   H3829     1.0  0.87835  0.29713  0.18778  1.0000
  H   H3830     1.0  0.76266  0.19201  0.06112  1.0000
  H   H3831     1.0  0.83420  0.20182  0.06753  1.0000
  Fe  Fe488     1.0  0.95556  0.24979  0.46063  1.0000
  H   H3832     1.0  0.80073  0.09299  0.28919  1.0000
  C   C2427     1.0  0.74876  0.28592  0.33094  1.0000
  H   H3833     1.0  0.86180  0.32109  0.35969  1.0000
  H   H3834     1.0  0.94094  0.42532  0.35212  1.0000
  C   C2428     1.0  0.76336  0.28947  0.32286  1.0000
  H   H3835     1.0  0.77376  0.18302  0.09494  1.0000
  H   H3836     1.0  0.83818  0.16625  0.18801  1.0000
  H   H3837     1.0  0.74665  0.31387  0.25826  1.0000
  H   H3838     1.0  0.87583  0.26795  0.21368  1.0000
  S   S975      1.0  0.78792  0.30651  0.27956  1.0000
  S   S976      1.0  0.78998  0.33727  0.29099  1.0000
  H   H3839     1.0  0.80640  0.27393  0.19500  1.0000
  H   H3840     1.0  0.89183  0.30377  0.20493  1.0000
  H   H3841     1.0  0.85453  0.17237  0.17322  1.0000
  H   H3842     1.0  0.87585  0.20165  0.39631  1.0000
  H   H3843     1.0  0.76622  0.32947  0.08658  1.0000
  C   C2429     1.0  0.74467  0.03393  0.21940  1.0000
  H   H3844     1.0  0.90549  0.28861  0.21493  1.0000
  S   S977      1.0  0.78952  0.22289  0.34120  1.0000
  H   H3845     1.0  0.93353  0.44598  0.35133  1.0000
  N   N238      1.0  0.93637  0.46779  0.43063  1.0000
  C   C2430     1.0  0.74171  0.31972  0.29498  1.0000
  C   C2431     1.0  0.92311  0.45968  0.43662  1.0000
  C   C2432     1.0  0.95039  0.45749  0.43625  1.0000
  C   C2433     1.0  0.93996  0.47152  0.41325  1.0000
  H   H3846     1.0  0.94760  0.37396  0.30245  1.0000
  C   C2434     1.0  0.74619  0.01341  0.20052  1.0000
  C   C2435     1.0  0.74453  0.15536  0.04119  1.0000
  H   H3847     1.0  0.92592  0.44856  0.43246  1.0000
  H   H3848     1.0  0.91998  0.45672  0.44970  1.0000
  H   H3849     1.0  0.91235  0.46719  0.43264  1.0000
  C   C2436     1.0  0.97686  0.20566  0.23046  1.0000
  H   H3850     1.0  0.74216  0.33222  0.26428  1.0000
  H   H3851     1.0  0.94812  0.45419  0.44930  1.0000
  C   C2437     1.0  0.98967  0.26470  0.24840  1.0000
  H   H3852     1.0  0.95652  0.25310  0.13445  1.0000
  H   H3853     1.0  0.97362  0.28930  0.23063  1.0000
  N   N239      1.0  0.83498  0.19124  0.17891  1.0000
  C   C2438     1.0  0.84471  0.20319  0.17291  1.0000
  C   C2439     1.0  0.82727  0.19116  0.16653  1.0000
  C   C2440     1.0  0.82283  0.19506  0.19285  1.0000
  N   N240      1.0  0.75900  0.14702  0.03196  1.0000
  H   H3854     1.0  0.85087  0.20339  0.18185  1.0000
  H   H3855     1.0  0.83742  0.21521  0.16978  1.0000
  H   H3856     1.0  0.81963  0.18244  0.17067  1.0000
  H   H3857     1.0  0.81978  0.20289  0.16265  1.0000
  H   H3858     1.0  0.81516  0.18637  0.19766  1.0000
  H   H3859     1.0  0.81518  0.20693  0.18999  1.0000
  H   H3860     1.0  0.82827  0.19507  0.20247  1.0000
  H   H3861     1.0  0.77113  0.00725  0.19967  1.0000
  C   C2441     1.0  0.81519  0.43471  0.35761  1.0000
  Fe  Fe489     1.0  0.77156  0.23901  0.10663  1.0000
  C   C2442     1.0  0.76360  0.34228  0.22849  1.0000
  C   C2443     1.0  0.77397  0.27580  0.11511  1.0000
  H   H3862     1.0  0.81048  0.27372  0.16664  1.0000
  C   C2444     1.0  0.76623  0.29302  0.13353  1.0000
  H   H3863     1.0  0.78007  0.42478  0.36368  1.0000
  S   S978      1.0  0.76853  0.05192  0.25807  1.0000
  H   H3864     1.0  0.76971  0.02496  0.21664  1.0000
  C   C2445     1.0  0.77485  0.33456  0.23769  1.0000
  H   H3865     1.0  0.77396  0.07705  0.31107  1.0000
  H   H3866     1.0  0.74994  0.33999  0.21336  1.0000
  H   H3867     1.0  0.81319  0.43841  0.36888  1.0000
  S   S979      1.0  0.88054  0.46630  0.45030  1.0000
  H   H3868     1.0  0.76016  0.31850  0.26656  1.0000
  C   C2446     1.0  0.75877  0.33402  0.22022  1.0000
  C   C2447     1.0  0.98816  0.42542  0.40300  1.0000
  S   S980      1.0  0.74707  0.29521  0.18240  1.0000
  N   N241      1.0  0.91253  0.33286  0.41161  1.0000
  C   C2448     1.0  0.91285  0.32873  0.39684  1.0000
  C   C2449     1.0  0.89603  0.33672  0.42030  1.0000
  H   H3869     1.0  0.90741  0.31847  0.39915  1.0000
  H   H3870     1.0  0.92509  0.32585  0.38987  1.0000
  H   H3871     1.0  0.90604  0.33862  0.38931  1.0000
  H   H3872     1.0  0.91652  0.30878  0.42437  1.0000
  H   H3873     1.0  0.89528  0.33973  0.43161  1.0000
  H   H3874     1.0  0.89011  0.32675  0.42289  1.0000
  H   H3875     1.0  0.98723  0.28675  0.39717  1.0000
  C   C2450     1.0  0.76432  0.16692  0.08854  1.0000
  C   C2451     1.0  0.75691  0.26100  0.32285  1.0000
  Fe  Fe490     1.0  0.98969  0.25095  0.44385  1.0000
  C   C2452     1.0  0.97989  0.23001  0.21126  1.0000
  H   H3876     1.0  0.88796  0.28571  0.45993  1.0000
  H   H3877     1.0  0.99021  0.22604  0.42390  1.0000
  H   H3878     1.0  0.96633  0.39656  0.30502  1.0000
  H   H3879     1.0  0.78628  0.05640  0.29587  1.0000
  H   H3880     1.0  0.97297  0.26819  0.13951  1.0000
  C   C2453     1.0  0.80773  0.41015  0.37158  1.0000
  C   C2454     1.0  0.96568  0.25094  0.12370  1.0000
  Fe  Fe491     1.0  0.76712  0.18865  0.35402  1.0000
  H   H3881     1.0  0.74487  0.07318  0.17540  1.0000
  C   C2455     1.0  0.76466  0.17641  0.09823  1.0000
  S   S981      1.0  0.74685  0.33326  0.17170  1.0000
  H   H3882     1.0  0.92544  0.41320  0.39524  1.0000
  C   C2456     1.0  0.74792  0.05987  0.32457  1.0000
  H   H3883     1.0  0.97886  0.47017  0.40198  1.0000
  Fe  Fe492     1.0  0.76516  0.03990  0.24110  1.0000
  H   H3884     1.0  0.81361  0.31738  0.37271  1.0000
  C   C2457     1.0  0.92808  0.25148  0.43812  1.0000
  C   C2458     1.0  0.91915  0.25434  0.42681  1.0000
  H   H3885     1.0  0.78127  0.10479  0.27224  1.0000
  H   H3886     1.0  0.94206  0.38676  0.31588  1.0000
  C   C2459     1.0  0.98145  0.26595  0.12844  1.0000
  S   S982      1.0  0.83456  0.33507  0.29474  1.0000
  S   S983      1.0  0.80871  0.99151  0.23672  1.0000
  H   H3887     1.0  0.97710  0.26822  0.25429  1.0000
  S   S984      1.0  0.79687  0.23614  0.09402  1.0000
  H   H3888     1.0  0.82060  0.34362  0.36281  1.0000
  H   H3889     1.0  0.84083  0.30851  0.34600  1.0000
  H   H3890     1.0  0.78566  0.28196  0.19591  1.0000
  Fe  Fe493     1.0  0.84346  0.23780  0.42150  1.0000
  S   S985      1.0  0.89508  0.25137  0.41591  1.0000
  C   C2460     1.0  0.88102  0.27712  0.21510  1.0000
  C   C2461     1.0  0.83236  0.33786  0.36560  1.0000
  H   H3891     1.0  0.83169  0.33880  0.37774  1.0000
  H   H3892     1.0  0.85280  0.31428  0.37981  1.0000
  H   H3893     1.0  0.85705  0.30197  0.36610  1.0000
  H   H3894     1.0  0.97688  0.23947  0.14999  1.0000
  C   C2462     1.0  0.83767  0.32079  0.34766  1.0000
  H   H3895     1.0  0.84087  0.34490  0.35751  1.0000
  Fe  Fe494     1.0  0.88088  0.48082  0.42552  1.0000
  N   N242      1.0  0.83714  0.32134  0.36396  1.0000
  H   H3896     1.0  0.77691  0.30618  0.17725  1.0000
  H   H3897     1.0  0.82611  0.32649  0.34435  1.0000
  C   C2463     1.0  0.77661  0.31034  0.23011  1.0000
  H   H3898     1.0  0.78884  0.28962  0.11749  1.0000
  C   C2464     1.0  0.98359  0.31535  0.43358  1.0000
  H   H3899     1.0  0.82022  0.40386  0.36922  1.0000
  S   S986      1.0  0.75270  0.24343  0.32258  1.0000
  C   C2465     1.0  0.75908  0.02440  0.21382  1.0000
  H   H3900     1.0  0.82786  0.42878  0.35489  1.0000
  S   S987      1.0  0.97395  0.42952  0.37815  1.0000
  H   H3901     1.0  0.89750  0.28980  0.17668  1.0000
  H   H3902     1.0  0.90935  0.20038  0.41347  1.0000
  H   H3903     1.0  0.91058  0.22051  0.40451  1.0000
  S   S988      1.0  0.76965  0.30765  0.14061  1.0000
  H   H3904     1.0  0.80044  0.40165  0.37270  1.0000
  H   H3905     1.0  0.78617  0.28136  0.30880  1.0000
  H   H3906     1.0  0.91070  0.26087  0.21153  1.0000
  Fe  Fe495     1.0  0.81582  0.32644  0.28922  1.0000
  Fe  Fe496     1.0  0.78694  0.31264  0.30209  1.0000
  C   C2466     1.0  0.90507  0.20726  0.38387  1.0000
  S   S989      1.0  0.98333  0.16161  0.31051  1.0000
  S   S990      1.0  0.78182  0.21777  0.38717  1.0000
  C   C2467     1.0  0.78412  0.27938  0.35386  1.0000
  H   H3907     1.0  0.80072  0.41096  0.34448  1.0000
  H   H3908     1.0  0.90699  0.44060  0.36305  1.0000
  Fe  Fe497     1.0  0.84430  0.24065  0.45436  1.0000
  H   H3909     1.0  0.79337  0.06160  0.27490  1.0000
  H   H3910     1.0  0.91210  0.19516  0.38720  1.0000
  C   C2468     1.0  0.91218  0.42968  0.37083  1.0000
  H   H3911     1.0  0.90305  0.42769  0.38187  1.0000
  C   C2469     1.0  0.84511  0.17560  0.18340  1.0000
  N   N243      1.0  0.89411  0.28060  0.20164  1.0000
  C   C2470     1.0  0.78818  0.43248  0.36258  1.0000
  C   C2471     1.0  0.78036  0.21297  0.02676  1.0000
  C   C2472     1.0  0.91190  0.23383  0.45574  1.0000
  H   H3912     1.0  0.85535  0.34693  0.30478  1.0000
  H   H3913     1.0  0.85105  0.17529  0.19277  1.0000
  N   N244      1.0  0.92685  0.43111  0.37394  1.0000
  C   C2473     1.0  0.93371  0.41622  0.38380  1.0000
  H   H3914     1.0  0.91482  0.44171  0.39372  1.0000
  H   H3915     1.0  0.93655  0.40621  0.37791  1.0000
  C   C2474     1.0  0.92450  0.24120  0.45261  1.0000
  N   N245      1.0  0.89374  0.21240  0.39769  1.0000
  Fe  Fe498     1.0  0.78085  0.20988  0.36573  1.0000
  H   H3916     1.0  0.89282  0.23146  0.44718  1.0000
  H   H3917     1.0  0.74317  0.22704  0.12391  1.0000
  C   C2475     1.0  0.90084  0.29268  0.20400  1.0000
  H   H3918     1.0  0.88496  0.27283  0.22642  1.0000
  H   H3919     1.0  0.87132  0.28772  0.21618  1.0000
  S   S991      1.0  0.76729  0.30731  0.32272  1.0000
  Fe  Fe499     1.0  0.79300  0.33027  0.26810  1.0000
  Fe  Fe500     1.0  0.97693  0.25658  0.47750  1.0000
  C   C2476     1.0  0.92330  0.44401  0.38225  1.0000
  H   H3920     1.0  0.91782  0.45538  0.37525  1.0000
  H   H3921     1.0  0.94954  0.43551  0.36082  1.0000
  C   C2477     1.0  0.93821  0.43463  0.35888  1.0000
  H   H3922     1.0  0.93419  0.44557  0.38456  1.0000
  H   H3923     1.0  0.94482  0.41692  0.38635  1.0000
  C   C2478     1.0  0.75327  0.17734  0.11214  1.0000
  H   H3924     1.0  0.78617  0.22959  0.41157  1.0000
  S   S992      1.0  0.75311  0.19000  0.12378  1.0000
  C   C2479     1.0  0.88278  0.20162  0.40475  1.0000
  C   C2480     1.0  0.98823  0.20727  0.23732  1.0000
  S   S993      1.0  0.79045  0.18592  0.36006  1.0000
  H   H3925     1.0  0.83973  0.19735  0.08625  1.0000
  S   S994      1.0  0.95293  0.26890  0.47297  1.0000
  H   H3926     1.0  0.96009  0.36442  0.34003  1.0000
  C   C2481     1.0  0.78493  0.15337  0.32918  1.0000
  H   H3927     1.0  0.77363  0.14956  0.33175  1.0000
  C   C2482     1.0  0.77017  0.13848  0.04225  1.0000
  H   H3928     1.0  0.78973  0.28170  0.16761  1.0000
  H   H3929     1.0  0.75435  0.31885  0.29444  1.0000
  H   H3930     1.0  0.81685  0.14821  0.32132  1.0000
  H   H3931     1.0  0.80832  0.11744  0.33896  1.0000
  H   H3932     1.0  0.77805  0.13611  0.35802  1.0000
  N   N246      1.0  0.79635  0.14163  0.33773  1.0000
  H   H3933     1.0  0.76499  0.12977  0.05226  1.0000
  S   S995      1.0  0.98107  0.28578  0.18458  1.0000
  H   H3934     1.0  0.78869  0.12204  0.33563  1.0000
  C   C2483     1.0  0.78970  0.13942  0.35484  1.0000
  S   S996      1.0  0.80155  0.22184  0.05648  1.0000
  H   H3935     1.0  0.82220  0.21145  0.08280  1.0000
  C   C2484     1.0  0.80815  0.41917  0.34384  1.0000
  C   C2485     1.0  0.78153  0.31861  0.23822  1.0000
  H   H3936     1.0  0.98651  0.30555  0.44303  1.0000
  C   C2486     1.0  0.75905  0.27218  0.12014  1.0000
  S   S997      1.0  0.77483  0.20002  0.32876  1.0000
  S   S998      1.0  0.77940  0.34471  0.24937  1.0000
  H   H3937     1.0  0.78917  0.26544  0.38325  1.0000
  H   H3938     1.0  0.74958  0.12682  0.03484  1.0000
  Fe  Fe501     1.0  0.75844  0.18574  0.98094  1.0000
  C   C2487     1.0  0.97676  0.45216  0.39162  1.0000
  H   H3939     1.0  0.76151  0.99409  0.28935  1.0000
  H   H3940     1.0  0.97356  0.35578  0.29961  1.0000
  Fe  Fe502     1.0  0.98516  0.15527  0.28769  1.0000
  Fe  Fe503     1.0  0.87809  0.47973  0.39310  1.0000
  H   H3941     1.0  0.94350  0.46070  0.40845  1.0000
  H   H3942     1.0  0.79808  0.24004  0.36381  1.0000
  H   H3943     1.0  0.78964  0.99573  0.28407  1.0000
  H   H3944     1.0  0.98591  0.29232  0.41509  1.0000
  H   H3945     1.0  0.75914  0.26637  0.36140  1.0000
  H   H3946     1.0  0.77331  0.14668  0.04748  1.0000
  H   H3947     1.0  0.97243  0.38437  0.29081  1.0000
  H   H3948     1.0  0.76011  0.29332  0.28665  1.0000
  Fe  Fe504     1.0  0.98860  0.47670  0.43553  1.0000
  H   H3949     1.0  0.74652  0.28899  0.27819  1.0000
  S   S999      1.0  0.74741  0.00142  0.18777  1.0000
  H   H3950     1.0  0.96224  0.26040  0.11367  1.0000
  H   H3951     1.0  0.98192  0.29443  0.25238  1.0000
  C   C2488     1.0  0.76181  0.33069  0.09902  1.0000
  H   H3952     1.0  0.80820  0.25515  0.36170  1.0000
  H   H3953     1.0  0.97873  0.36991  0.33190  1.0000
  H   H3954     1.0  0.77593  0.98514  0.31078  1.0000
  S   S1000     1.0  0.76840  0.01985  0.29843  1.0000
  S   S1001     1.0  0.98969  0.25477  0.16883  1.0000
  H   H3955     1.0  0.74318  0.29319  0.14855  1.0000
  S   S1002     1.0  0.75877  0.30659  0.21215  1.0000
  C   C2489     1.0  0.98911  0.44710  0.41376  1.0000
  H   H3956     1.0  0.96902  0.34707  0.32029  1.0000
  H   H3957     1.0  0.94266  0.36619  0.32329  1.0000
  N   N247      1.0  0.87985  0.26738  0.47876  1.0000
  H   H3958     1.0  0.87380  0.27745  0.45620  1.0000
  H   H3959     1.0  0.96519  0.23956  0.12164  1.0000
  H   H3960     1.0  0.74690  0.07037  0.14143  1.0000
  H   H3961     1.0  0.77349  0.25785  0.34623  1.0000
  H   H3962     1.0  0.86450  0.25487  0.47534  1.0000
  C   C2490     1.0  0.74342  0.06105  0.31062  1.0000
  S   S1003     1.0  0.98982  0.27017  0.45515  1.0000
  H   H3963     1.0  0.98715  0.27680  0.21829  1.0000
  C   C2491     1.0  0.74974  0.04884  0.30237  1.0000
  H   H3964     1.0  0.75191  0.04218  0.15287  1.0000
  H   H3965     1.0  0.74629  0.04973  0.29160  1.0000
  C   C2492     1.0  0.74513  0.16381  0.34937  1.0000
  H   H3966     1.0  0.79368  0.98537  0.26876  1.0000
  H   H3967     1.0  0.99081  0.25769  0.10063  1.0000
  H   H3968     1.0  0.99047  0.25555  0.24196  1.0000
  H   H3969     1.0  0.99041  0.29572  0.21710  1.0000
  H   H3970     1.0  0.99093  0.41296  0.40329  1.0000
  C   C2493     1.0  0.74162  0.17468  0.33582  1.0000
  H   H3971     1.0  0.74184  0.28908  0.29878  1.0000
  S   S1004     1.0  0.74142  0.07524  0.33466  1.0000
  H   H3972     1.0  0.74164  0.34860  0.08069  1.0000
  C   C2494     1.0  0.80815  0.23106  0.54250  1.0000
  S   S1005     1.0  0.96367  0.13951  0.74682  1.0000
  Fe  Fe505     1.0  0.97528  0.13884  0.78510  1.0000
  S   S1006     1.0  0.96186  0.16041  0.77174  1.0000
  S   S1007     1.0  0.97927  0.13994  0.80806  1.0000
  Fe  Fe506     1.0  0.94806  0.14426  0.76979  1.0000
  S   S1008     1.0  0.92203  0.15400  0.77622  1.0000
  Fe  Fe507     1.0  0.97870  0.15371  0.75029  1.0000
  S   S1009     1.0  0.96044  0.12295  0.78473  1.0000
  C   C2495     1.0  0.92063  0.46865  0.59856  1.0000
  H   H3973     1.0  0.78951  0.25091  0.90704  1.0000
  H   H3974     1.0  0.75987  0.25989  0.94315  1.0000
  H   H3975     1.0  0.77040  0.24017  0.94911  1.0000
  H   H3976     1.0  0.76797  0.22731  0.67622  1.0000
  N   N248      1.0  0.75636  0.11678  0.70133  1.0000
  H   H3977     1.0  0.77295  0.24288  0.79152  1.0000
  H   H3978     1.0  0.79642  0.21578  0.67571  1.0000
  H   H3979     1.0  0.82877  0.26071  0.48075  1.0000
  S   S1010     1.0  0.95926  0.19920  0.86933  1.0000
  C   C2496     1.0  0.89373  0.26379  0.48573  1.0000
  H   H3980     1.0  0.75419  0.17411  0.76385  1.0000
  Fe  Fe508     1.0  0.83068  0.15700  0.74861  1.0000
  S   S1011     1.0  0.80989  0.16140  0.76830  1.0000
  S   S1012     1.0  0.82891  0.17123  0.72442  1.0000
  Fe  Fe509     1.0  0.85076  0.13407  0.77047  1.0000
  S   S1013     1.0  0.83163  0.13663  0.79205  1.0000
  S   S1014     1.0  0.87393  0.11706  0.77195  1.0000
  Fe  Fe510     1.0  0.81590  0.13537  0.77731  1.0000
  S   S1015     1.0  0.79751  0.12080  0.78801  1.0000
  Fe  Fe511     1.0  0.82755  0.16233  0.78094  1.0000
  S   S1016     1.0  0.82206  0.18205  0.79345  1.0000
  S   S1017     1.0  0.83539  0.13081  0.75652  1.0000
  S   S1018     1.0  0.84801  0.15997  0.76046  1.0000
  Fe  Fe512     1.0  0.86500  0.19804  0.84365  1.0000
  S   S1019     1.0  0.86867  0.22258  0.83495  1.0000
  S   S1020     1.0  0.87375  0.17931  0.82943  1.0000
  Fe  Fe513     1.0  0.84675  0.20322  0.87577  1.0000
  S   S1021     1.0  0.84843  0.22850  0.87025  1.0000
  S   S1022     1.0  0.83289  0.18870  0.89648  1.0000
  Fe  Fe514     1.0  0.84347  0.22988  0.84700  1.0000
  S   S1023     1.0  0.82740  0.25129  0.83599  1.0000
  Fe  Fe515     1.0  0.87361  0.21990  0.85855  1.0000
  S   S1024     1.0  0.89137  0.23371  0.85692  1.0000
  S   S1025     1.0  0.83924  0.20558  0.85356  1.0000
  S   S1026     1.0  0.87253  0.19434  0.86622  1.0000
  C   C2497     1.0  0.75764  0.25719  0.91516  1.0000
  H   H3981     1.0  0.86935  0.40716  0.60237  1.0000
  C   C2498     1.0  0.79892  0.24630  0.56255  1.0000
  H   H3982     1.0  0.79842  0.24665  0.57484  1.0000
  Fe  Fe516     1.0  0.86587  0.46713  0.55999  1.0000
  Fe  Fe517     1.0  0.77819  0.21038  0.97095  1.0000
  S   S1027     1.0  0.79909  0.21973  0.95510  1.0000
  C   C2499     1.0  0.79132  0.24734  0.64554  1.0000
  C   C2500     1.0  0.84056  0.23893  0.79402  1.0000
  C   C2501     1.0  0.82436  0.22850  0.56059  1.0000
  H   H3983     1.0  0.81556  0.22003  0.53897  1.0000
  H   H3984     1.0  0.77960  0.15472  0.76406  1.0000
  C   C2502     1.0  0.82099  0.32671  0.68707  1.0000
  H   H3985     1.0  0.98198  0.15546  0.83056  1.0000
  N   N249      1.0  0.88315  0.27572  0.62267  1.0000
  H   H3986     1.0  0.84975  0.21122  0.76226  1.0000
  H   H3987     1.0  0.82055  0.39764  0.57358  1.0000
  S   S1028     1.0  0.84309  0.22806  0.47989  1.0000
  H   H3988     1.0  0.85904  0.29658  0.69527  1.0000
  H   H3989     1.0  0.78961  0.26000  0.81450  1.0000
  H   H3990     1.0  0.74604  0.25374  0.91903  1.0000
  C   C2503     1.0  0.83038  0.43652  0.59535  1.0000
  H   H3991     1.0  0.85018  0.46717  0.60016  1.0000
  H   H3992     1.0  0.89096  0.25833  0.49850  1.0000
  Fe  Fe518     1.0  0.86148  0.37263  0.62625  1.0000
  S   S1029     1.0  0.87524  0.36366  0.64543  1.0000
  S   S1030     1.0  0.84238  0.39472  0.62425  1.0000
  Fe  Fe519     1.0  0.87691  0.34474  0.61108  1.0000
  S   S1031     1.0  0.89192  0.33366  0.62862  1.0000
  S   S1032     1.0  0.88202  0.33303  0.59080  1.0000
  Fe  Fe520     1.0  0.87027  0.34021  0.64683  1.0000
  S   S1033     1.0  0.86824  0.32034  0.66835  1.0000
  Fe  Fe521     1.0  0.89567  0.35772  0.62577  1.0000
  S   S1034     1.0  0.92074  0.36030  0.62045  1.0000
  S   S1035     1.0  0.85476  0.34956  0.62933  1.0000
  S   S1036     1.0  0.88232  0.36842  0.60656  1.0000
  Fe  Fe522     1.0  0.87396  0.25363  0.56521  1.0000
  S   S1037     1.0  0.85856  0.27622  0.55540  1.0000
  S   S1038     1.0  0.90014  0.25258  0.55770  1.0000
  Fe  Fe523     1.0  0.84584  0.23915  0.58377  1.0000
  S   S1039     1.0  0.82835  0.26064  0.57551  1.0000
  S   S1040     1.0  0.83914  0.21724  0.60059  1.0000
  Fe  Fe524     1.0  0.84478  0.26088  0.55176  1.0000
  S   S1041     1.0  0.83476  0.26843  0.52987  1.0000
  Fe  Fe525     1.0  0.84380  0.27384  0.57988  1.0000
  S   S1042     1.0  0.83362  0.29334  0.59308  1.0000
  S   S1043     1.0  0.86136  0.23833  0.55960  1.0000
  S   S1044     1.0  0.86012  0.25233  0.59005  1.0000
  C   C2504     1.0  0.86683  0.27832  0.48683  1.0000
  H   H3993     1.0  0.77132  0.22510  0.80610  1.0000
  H   H3994     1.0  0.97994  0.42556  0.62844  1.0000
  H   H3995     1.0  0.93181  0.32224  0.57058  1.0000
  H   H3996     1.0  0.94261  0.40206  0.63628  1.0000
  H   H3997     1.0  0.74997  0.16490  0.75073  1.0000
  H   H3998     1.0  0.97396  0.29706  0.51948  1.0000
  S   S1045     1.0  0.94900  0.36321  0.67575  1.0000
  C   C2505     1.0  0.75807  0.23008  0.71967  1.0000
  H   H3999     1.0  0.87013  0.28960  0.48565  1.0000
  C   C2506     1.0  0.97325  0.40084  0.62284  1.0000
  S   S1046     1.0  0.98282  0.47791  0.61381  1.0000
  H   H4000     1.0  0.96129  0.39272  0.65397  1.0000
  Fe  Fe526     1.0  0.95358  0.25719  0.60628  1.0000
  S   S1047     1.0  0.94985  0.28281  0.59514  1.0000
  S   S1048     1.0  0.93295  0.24553  0.61337  1.0000
  Fe  Fe527     1.0  0.97250  0.27594  0.57820  1.0000
  C   C2507     1.0  0.93634  0.46553  0.59958  1.0000
  Fe  Fe528     1.0  0.96493  0.28408  0.61050  1.0000
  S   S1049     1.0  0.95827  0.30361  0.62365  1.0000
  H   H4001     1.0  0.77390  0.19509  0.73891  1.0000
  S   S1050     1.0  0.96656  0.25894  0.62339  1.0000
  C   C2508     1.0  0.97684  0.27583  0.51159  1.0000
  H   H4002     1.0  0.74275  0.03632  0.70323  1.0000
  S   S1051     1.0  0.98169  0.47141  0.57976  1.0000
  C   C2509     1.0  0.97418  0.30878  0.62727  1.0000
  C   C2510     1.0  0.97115  0.32120  0.63482  1.0000
  C   C2511     1.0  0.74787  0.28226  0.79560  1.0000
  C   C2512     1.0  0.76131  0.01362  0.74707  1.0000
  H   H4003     1.0  0.97744  0.25442  0.55499  1.0000
  H   H4004     1.0  0.95924  0.32754  0.63832  1.0000
  H   H4005     1.0  0.77146  0.22762  0.65565  1.0000
  C   C2513     1.0  0.90918  0.25062  0.57323  1.0000
  C   C2514     1.0  0.92184  0.25780  0.57055  1.0000
  C   C2515     1.0  0.92939  0.25606  0.58273  1.0000
  C   C2516     1.0  0.92438  0.24702  0.59764  1.0000
  C   C2517     1.0  0.91188  0.23965  0.60025  1.0000
  C   C2518     1.0  0.90418  0.24158  0.58813  1.0000
  H   H4006     1.0  0.92566  0.26497  0.55912  1.0000
  H   H4007     1.0  0.93903  0.26179  0.58058  1.0000
  H   H4008     1.0  0.90817  0.23238  0.61165  1.0000
  H   H4009     1.0  0.89462  0.23575  0.59022  1.0000
  C   C2519     1.0  0.92810  0.36251  0.63554  1.0000
  C   C2520     1.0  0.94437  0.36066  0.63338  1.0000
  C   C2521     1.0  0.95080  0.36116  0.64558  1.0000
  C   C2522     1.0  0.94101  0.36369  0.65997  1.0000
  C   C2523     1.0  0.92465  0.36615  0.66194  1.0000
  C   C2524     1.0  0.91820  0.36541  0.64979  1.0000
  H   H4010     1.0  0.95211  0.35838  0.62240  1.0000
  H   H4011     1.0  0.96335  0.35933  0.64390  1.0000
  H   H4012     1.0  0.91699  0.36827  0.67300  1.0000
  H   H4013     1.0  0.90560  0.36702  0.65149  1.0000
  C   C2525     1.0  0.86822  0.32251  0.59114  1.0000
  C   C2526     1.0  0.85342  0.32429  0.60137  1.0000
  C   C2527     1.0  0.84265  0.31566  0.60152  1.0000
  C   C2528     1.0  0.84683  0.30485  0.59182  1.0000
  C   C2529     1.0  0.86168  0.30300  0.58168  1.0000
  C   C2530     1.0  0.87225  0.31201  0.58115  1.0000
  H   H4014     1.0  0.85022  0.33222  0.60923  1.0000
  H   H4015     1.0  0.83121  0.31702  0.60948  1.0000
  H   H4016     1.0  0.86504  0.29464  0.57420  1.0000
  H   H4017     1.0  0.88368  0.31058  0.57319  1.0000
  Fe  Fe529     1.0  0.98830  0.25432  0.60456  1.0000
  H   H4018     1.0  0.74944  0.18561  0.74547  1.0000
  H   H4019     1.0  0.78663  0.16988  0.72023  1.0000
  C   C2531     1.0  0.76235  0.21781  0.71166  1.0000
  H   H4020     1.0  0.95377  0.21113  0.52618  1.0000
  C   C2532     1.0  0.94784  0.45590  0.59039  1.0000
  C   C2533     1.0  0.84050  0.23920  0.49390  1.0000
  C   C2534     1.0  0.83324  0.25515  0.49132  1.0000
  C   C2535     1.0  0.83153  0.26387  0.50253  1.0000
  C   C2536     1.0  0.83741  0.25685  0.51621  1.0000
  C   C2537     1.0  0.84491  0.24094  0.51871  1.0000
  C   C2538     1.0  0.84615  0.23207  0.50772  1.0000
  C   C2539     1.0  0.84471  0.43994  0.58614  1.0000
  H   H4021     1.0  0.82564  0.27615  0.50057  1.0000
  H   H4022     1.0  0.84971  0.23544  0.52908  1.0000
  H   H4023     1.0  0.85187  0.21974  0.50971  1.0000
  H   H4024     1.0  0.82558  0.20581  0.73033  1.0000
  H   H4025     1.0  0.85509  0.38702  0.59171  1.0000
  H   H4026     1.0  0.94679  0.47817  0.51308  1.0000
  C   C2540     1.0  0.94146  0.46248  0.49457  1.0000
  C   C2541     1.0  0.84845  0.30499  0.69288  1.0000
  H   H4027     1.0  0.82476  0.22793  0.57290  1.0000
  H   H4028     1.0  0.95987  0.45284  0.59164  1.0000
  C   C2542     1.0  0.94377  0.45020  0.57950  1.0000
  H   H4029     1.0  0.89116  0.26330  0.83124  1.0000
  C   C2543     1.0  0.75514  0.29321  0.79744  1.0000
  S   S1052     1.0  0.98168  0.24789  0.50213  1.0000
  H   H4030     1.0  0.94786  0.30447  0.65813  1.0000
  C   C2544     1.0  0.85849  0.41535  0.60042  1.0000
  C   C2545     1.0  0.98117  0.20537  0.67298  1.0000
  C   C2546     1.0  0.84949  0.31799  0.68019  1.0000
  C   C2547     1.0  0.83569  0.32883  0.67728  1.0000
  C   C2548     1.0  0.95216  0.44679  0.51713  1.0000
  H   H4031     1.0  0.83633  0.33892  0.66760  1.0000
  H   H4032     1.0  0.75095  0.24368  0.94605  1.0000
  S   S1053     1.0  0.80047  0.23564  0.72157  1.0000
  C   C2549     1.0  0.80685  0.22857  0.60629  1.0000
  C   C2550     1.0  0.81944  0.21640  0.61019  1.0000
  C   C2551     1.0  0.81631  0.20296  0.62162  1.0000
  C   C2552     1.0  0.88021  0.46575  0.48077  1.0000
  H   H4033     1.0  0.88593  0.24901  0.82466  1.0000
  H   H4034     1.0  0.80914  0.23912  0.59783  1.0000
  H   H4035     1.0  0.82599  0.19350  0.62473  1.0000
  H   H4036     1.0  0.87409  0.29216  0.81020  1.0000
  C   C2553     1.0  0.82370  0.19733  0.91280  1.0000
  C   C2554     1.0  0.81258  0.19042  0.92490  1.0000
  C   C2555     1.0  0.80507  0.19713  0.93803  1.0000
  C   C2556     1.0  0.80880  0.21069  0.93916  1.0000
  C   C2557     1.0  0.81998  0.21754  0.92711  1.0000
  C   C2558     1.0  0.82736  0.21093  0.91390  1.0000
  H   H4037     1.0  0.80975  0.17985  0.92413  1.0000
  H   H4038     1.0  0.79649  0.19174  0.94732  1.0000
  H   H4039     1.0  0.82296  0.22799  0.92799  1.0000
  H   H4040     1.0  0.83606  0.21622  0.90472  1.0000
  C   C2559     1.0  0.82891  0.25130  0.81630  1.0000
  C   C2560     1.0  0.81999  0.26360  0.80706  1.0000
  C   C2561     1.0  0.82108  0.26337  0.79135  1.0000
  N   N250      1.0  0.80803  0.23100  0.55887  1.0000
  C   C2562     1.0  0.83918  0.23901  0.80974  1.0000
  H   H4041     1.0  0.81216  0.27325  0.81206  1.0000
  C   C2563     1.0  0.86080  0.26793  0.81393  1.0000
  H   H4042     1.0  0.84607  0.22954  0.81677  1.0000
  C   C2564     1.0  0.79131  0.11324  0.77540  1.0000
  C   C2565     1.0  0.79784  0.11591  0.75926  1.0000
  C   C2566     1.0  0.79316  0.10923  0.74953  1.0000
  C   C2567     1.0  0.78185  0.09998  0.75583  1.0000
  C   C2568     1.0  0.77516  0.09746  0.77194  1.0000
  C   C2569     1.0  0.77994  0.10405  0.78172  1.0000
  H   H4043     1.0  0.80656  0.12301  0.75426  1.0000
  H   H4044     1.0  0.79838  0.11115  0.73707  1.0000
  H   H4045     1.0  0.76641  0.09035  0.77690  1.0000
  H   H4046     1.0  0.77483  0.10196  0.79421  1.0000
  C   C2570     1.0  0.82083  0.16333  0.71367  1.0000
  C   C2571     1.0  0.81777  0.14822  0.71921  1.0000
  C   C2572     1.0  0.81026  0.14259  0.71094  1.0000
  C   C2573     1.0  0.80568  0.15212  0.69723  1.0000
  C   C2574     1.0  0.80922  0.16700  0.69144  1.0000
  C   C2575     1.0  0.81678  0.17260  0.69964  1.0000
  H   H4047     1.0  0.82104  0.14093  0.72989  1.0000
  H   H4048     1.0  0.80767  0.13102  0.71534  1.0000
  H   H4049     1.0  0.80632  0.17413  0.68053  1.0000
  H   H4050     1.0  0.81932  0.18421  0.69522  1.0000
  C   C2576     1.0  0.83688  0.18127  0.80285  1.0000
  C   C2577     1.0  0.84938  0.16818  0.80414  1.0000
  C   C2578     1.0  0.86100  0.16772  0.81193  1.0000
  C   C2579     1.0  0.86003  0.18030  0.81854  1.0000
  C   C2580     1.0  0.84762  0.19341  0.81706  1.0000
  C   C2581     1.0  0.83608  0.19392  0.80925  1.0000
  H   H4051     1.0  0.84999  0.15836  0.79928  1.0000
  H   H4052     1.0  0.87064  0.15756  0.81291  1.0000
  H   H4053     1.0  0.84698  0.20324  0.82184  1.0000
  H   H4054     1.0  0.82658  0.20415  0.80813  1.0000
  H   H4055     1.0  0.78155  0.23628  0.60991  1.0000
  H   H4056     1.0  0.75228  0.11770  0.72562  1.0000
  H   H4057     1.0  0.85656  0.39089  0.57090  1.0000
  H   H4058     1.0  0.76213  0.25668  0.90253  1.0000
  H   H4059     1.0  0.81413  0.27281  0.78422  1.0000
  C   C2582     1.0  0.94043  0.20851  0.86562  1.0000
  C   C2583     1.0  0.93757  0.22415  0.85741  1.0000
  C   C2584     1.0  0.92246  0.23170  0.85481  1.0000
  C   C2585     1.0  0.91021  0.22358  0.86009  1.0000
  C   C2586     1.0  0.91310  0.20783  0.86805  1.0000
  C   C2587     1.0  0.92817  0.20035  0.87097  1.0000
  H   H4060     1.0  0.94691  0.23055  0.85336  1.0000
  H   H4061     1.0  0.92028  0.24389  0.84871  1.0000
  H   H4062     1.0  0.90366  0.20155  0.87229  1.0000
  H   H4063     1.0  0.93034  0.18827  0.87737  1.0000
  C   C2588     1.0  0.86014  0.26504  0.84138  1.0000
  C   C2589     1.0  0.90910  0.14315  0.77529  1.0000
  C   C2590     1.0  0.91458  0.12851  0.77112  1.0000
  C   C2591     1.0  0.90378  0.12030  0.77033  1.0000
  C   C2592     1.0  0.88756  0.12681  0.77358  1.0000
  C   C2593     1.0  0.88218  0.14130  0.77798  1.0000
  C   C2594     1.0  0.89289  0.14943  0.77885  1.0000
  H   H4064     1.0  0.92709  0.12359  0.76838  1.0000
  H   H4065     1.0  0.90801  0.10908  0.76693  1.0000
  H   H4066     1.0  0.86974  0.14623  0.78078  1.0000
  H   H4067     1.0  0.88860  0.16070  0.78218  1.0000
  H   H4068     1.0  0.90370  0.25545  0.47995  1.0000
  C   C2595     1.0  0.76221  0.24769  0.94148  1.0000
  H   H4069     1.0  0.98313  0.07768  0.78693  1.0000
  H   H4070     1.0  0.77360  0.12852  0.68428  1.0000
  C   C2596     1.0  0.91662  0.46316  0.58753  1.0000
  C   C2597     1.0  0.78400  0.25174  0.91948  1.0000
  S   S1054     1.0  0.74739  0.06519  0.77735  1.0000
  H   H4071     1.0  0.79262  0.18150  0.73807  1.0000
  C   C2598     1.0  0.84073  0.22487  0.73495  1.0000
  C   C2599     1.0  0.86792  0.28755  0.82239  1.0000
  S   S1055     1.0  0.75959  0.05810  0.74153  1.0000
  Fe  Fe530     1.0  0.97781  0.21109  0.85202  1.0000
  S   S1056     1.0  0.88740  0.45717  0.54330  1.0000
  H   H4072     1.0  0.93827  0.32998  0.66656  1.0000
  H   H4073     1.0  0.80434  0.25616  0.55466  1.0000
  H   H4074     1.0  0.94181  0.22570  0.50311  1.0000
  H   H4075     1.0  0.89798  0.27459  0.48441  1.0000
  H   H4076     1.0  0.81142  0.22173  0.75038  1.0000
  H   H4077     1.0  0.75544  0.26963  0.91606  1.0000
  H   H4078     1.0  0.98108  0.33523  0.64358  1.0000
  H   H4079     1.0  0.95021  0.44364  0.53021  1.0000
  H   H4080     1.0  0.81294  0.24101  0.53405  1.0000
  H   H4081     1.0  0.93417  0.29356  0.65811  1.0000
  C   C2600     1.0  0.98969  0.17662  0.90880  1.0000
  H   H4082     1.0  0.76217  0.24531  0.66276  1.0000
  C   C2601     1.0  0.98042  0.47617  0.52243  1.0000
  H   H4083     1.0  0.85554  0.29444  0.82412  1.0000
  C   C2602     1.0  0.77999  0.18320  0.74435  1.0000
  C   C2603     1.0  0.88508  0.26186  0.82275  1.0000
  N   N251      1.0  0.86849  0.27059  0.82510  1.0000
  H   H4084     1.0  0.85206  0.22152  0.72665  1.0000
  H   H4085     1.0  0.86102  0.25524  0.81566  1.0000
  H   H4086     1.0  0.79971  0.21601  0.65520  1.0000
  H   H4087     1.0  0.83178  0.21731  0.55746  1.0000
  H   H4088     1.0  0.86669  0.27203  0.80150  1.0000
  H   H4089     1.0  0.81980  0.37775  0.57467  1.0000
  N   N252      1.0  0.83602  0.21097  0.74645  1.0000
  H   H4090     1.0  0.86040  0.25231  0.84382  1.0000
  H   H4091     1.0  0.83548  0.38615  0.56102  1.0000
  H   H4092     1.0  0.84818  0.27416  0.81554  1.0000
  H   H4093     1.0  0.89184  0.26580  0.81065  1.0000
  H   H4094     1.0  0.77013  0.16080  0.72560  1.0000
  C   C2604     1.0  0.86631  0.28167  0.62225  1.0000
  C   C2605     1.0  0.98354  0.32566  0.63776  1.0000
  N   N253      1.0  0.84645  0.15313  0.86852  1.0000
  C   C2606     1.0  0.85911  0.15800  0.87215  1.0000
  C   C2607     1.0  0.83771  0.14449  0.88315  1.0000
  C   C2608     1.0  0.85344  0.14297  0.85698  1.0000
  C   C2609     1.0  0.83552  0.16716  0.86179  1.0000
  H   H4095     1.0  0.86588  0.16465  0.86142  1.0000
  H   H4096     1.0  0.86760  0.14771  0.87723  1.0000
  H   H4097     1.0  0.85428  0.16574  0.88076  1.0000
  H   H4098     1.0  0.82800  0.14069  0.88091  1.0000
  H   H4099     1.0  0.84558  0.13383  0.88862  1.0000
  H   H4100     1.0  0.83236  0.15200  0.89200  1.0000
  H   H4101     1.0  0.84422  0.13926  0.85376  1.0000
  H   H4102     1.0  0.86172  0.13219  0.86164  1.0000
  H   H4103     1.0  0.86018  0.14926  0.84588  1.0000
  H   H4104     1.0  0.82575  0.16396  0.85900  1.0000
  H   H4105     1.0  0.84171  0.17387  0.85065  1.0000
  H   H4106     1.0  0.83017  0.17522  0.87011  1.0000
  Fe  Fe531     1.0  0.75407  0.19553  0.69043  1.0000
  C   C2610     1.0  0.97899  0.25946  0.51587  1.0000
  S   S1057     1.0  0.79298  0.25049  0.76004  1.0000
  H   H4107     1.0  0.94631  0.34416  0.59875  1.0000
  H   H4108     1.0  0.79847  0.19107  0.63761  1.0000
  H   H4109     1.0  0.93603  0.31321  0.60380  1.0000
  C   C2611     1.0  0.79125  0.22697  0.61322  1.0000
  H   H4110     1.0  0.93767  0.29436  0.67645  1.0000
  C   C2612     1.0  0.82789  0.38563  0.57306  1.0000
  H   H4111     1.0  0.93296  0.32798  0.64218  1.0000
  C   C2613     1.0  0.92820  0.32470  0.60007  1.0000
  Fe  Fe532     1.0  0.96501  0.48103  0.59984  1.0000
  H   H4112     1.0  0.91955  0.31655  0.64274  1.0000
  H   H4113     1.0  0.91467  0.34696  0.57859  1.0000
  H   H4114     1.0  0.91746  0.32236  0.59824  1.0000
  S   S1058     1.0  0.97445  0.28779  0.55244  1.0000
  H   H4115     1.0  0.95433  0.43580  0.51294  1.0000
  H   H4116     1.0  0.92460  0.33072  0.61008  1.0000
  C   C2614     1.0  0.82085  0.21590  0.75707  1.0000
  H   H4117     1.0  0.82172  0.22420  0.76365  1.0000
  H   H4118     1.0  0.81696  0.20568  0.76588  1.0000
  H   H4119     1.0  0.83170  0.23118  0.72784  1.0000
  H   H4120     1.0  0.84221  0.23343  0.74089  1.0000
  C   C2615     1.0  0.78071  0.15534  0.75137  1.0000
  H   H4121     1.0  0.77574  0.14567  0.75065  1.0000
  Fe  Fe533     1.0  0.88628  0.48215  0.52970  1.0000
  C   C2616     1.0  0.97918  0.25184  0.53159  1.0000
  H   H4122     1.0  0.75351  0.13822  0.68379  1.0000
  N   N254      1.0  0.93858  0.45851  0.51193  1.0000
  C   C2617     1.0  0.78983  0.21624  0.71059  1.0000
  H   H4123     1.0  0.76747  0.12725  0.71271  1.0000
  S   S1059     1.0  0.97850  0.47509  0.49317  1.0000
  S   S1060     1.0  0.94152  0.47489  0.61128  1.0000
  H   H4124     1.0  0.78288  0.24057  0.68544  1.0000
  H   H4125     1.0  0.81106  0.22537  0.66174  1.0000
  H   H4126     1.0  0.77948  0.18324  0.75674  1.0000
  H   H4127     1.0  0.79831  0.24942  0.67208  1.0000
  H   H4128     1.0  0.93829  0.42139  0.64012  1.0000
  C   C2618     1.0  0.74671  0.99603  0.76724  1.0000
  H   H4129     1.0  0.94339  0.45191  0.48975  1.0000
  C   C2619     1.0  0.85884  0.42939  0.58873  1.0000
  S   S1061     1.0  0.81589  0.26680  0.72878  1.0000
  H   H4130     1.0  0.82026  0.39164  0.60243  1.0000
  C   C2620     1.0  0.74756  0.98746  0.75614  1.0000
  C   C2621     1.0  0.97731  0.26046  0.54296  1.0000
  H   H4131     1.0  0.95207  0.46760  0.48930  1.0000
  S   S1062     1.0  0.75376  0.17001  0.69805  1.0000
  H   H4132     1.0  0.97242  0.40590  0.61035  1.0000
  C   C2622     1.0  0.75543  0.99187  0.74052  1.0000
  N   N255      1.0  0.78254  0.24046  0.81146  1.0000
  C   C2623     1.0  0.94999  0.33767  0.58907  1.0000
  H   H4133     1.0  0.98039  0.33420  0.76471  1.0000
  H   H4134     1.0  0.81885  0.42040  0.61423  1.0000
  S   S1063     1.0  0.97625  0.22315  0.82712  1.0000
  C   C2624     1.0  0.88628  0.25848  0.62834  1.0000
  Fe  Fe534     1.0  0.98829  0.24005  0.83068  1.0000
  H   H4135     1.0  0.95850  0.32665  0.59286  1.0000
  N   N256      1.0  0.93889  0.23430  0.52391  1.0000
  C   C2625     1.0  0.92428  0.22855  0.53185  1.0000
  C   C2626     1.0  0.94116  0.23671  0.50668  1.0000
  C   C2627     1.0  0.95245  0.22259  0.52916  1.0000
  C   C2628     1.0  0.93772  0.24933  0.52800  1.0000
  H   H4136     1.0  0.92236  0.22647  0.54488  1.0000
  H   H4137     1.0  0.92460  0.21734  0.52888  1.0000
  H   H4138     1.0  0.91374  0.23729  0.52850  1.0000
  H   H4139     1.0  0.95231  0.24066  0.50041  1.0000
  H   H4140     1.0  0.77953  0.10282  0.70292  1.0000
  H   H4141     1.0  0.93137  0.24576  0.50220  1.0000
  H   H4142     1.0  0.90458  0.46599  0.58661  1.0000
  S   S1064     1.0  0.87880  0.47131  0.57564  1.0000
  H   H4143     1.0  0.98861  0.21507  0.69493  1.0000
  H   H4144     1.0  0.94827  0.25435  0.52174  1.0000
  H   H4145     1.0  0.74605  0.01560  0.71166  1.0000
  H   H4146     1.0  0.92718  0.25825  0.52494  1.0000
  C   C2629     1.0  0.80075  0.21821  0.56980  1.0000
  H   H4147     1.0  0.78832  0.21980  0.56904  1.0000
  H   H4148     1.0  0.80068  0.21771  0.58224  1.0000
  H   H4149     1.0  0.80731  0.20654  0.56724  1.0000
  H   H4150     1.0  0.78659  0.24872  0.56115  1.0000
  H   H4151     1.0  0.79608  0.23232  0.54091  1.0000
  N   N257      1.0  0.92846  0.16759  0.81424  1.0000
  C   C2630     1.0  0.93228  0.15112  0.81255  1.0000
  C   C2631     1.0  0.91769  0.16895  0.82962  1.0000
  C   C2632     1.0  0.92071  0.17787  0.80151  1.0000
  C   C2633     1.0  0.94312  0.17236  0.81329  1.0000
  H   H4152     1.0  0.94036  0.14971  0.80107  1.0000
  H   H4153     1.0  0.92152  0.14719  0.81293  1.0000
  H   H4154     1.0  0.93819  0.14296  0.82189  1.0000
  H   H4155     1.0  0.91432  0.18129  0.83118  1.0000
  H   H4156     1.0  0.90660  0.16527  0.83073  1.0000
  H   H4157     1.0  0.92320  0.16149  0.83951  1.0000
  H   H4158     1.0  0.90971  0.17441  0.80179  1.0000
  H   H4159     1.0  0.92849  0.17715  0.78971  1.0000
  H   H4160     1.0  0.91748  0.19038  0.80246  1.0000
  H   H4161     1.0  0.94072  0.18466  0.81471  1.0000
  H   H4162     1.0  0.95147  0.17159  0.80177  1.0000
  H   H4163     1.0  0.94944  0.16462  0.82253  1.0000
  H   H4164     1.0  0.92605  0.48197  0.51406  1.0000
  Fe  Fe535     1.0  0.81233  0.26320  0.75480  1.0000
  H   H4165     1.0  0.81943  0.44456  0.59342  1.0000
  Fe  Fe536     1.0  0.74271  0.22028  0.97723  1.0000
  H   H4166     1.0  0.86998  0.43195  0.58166  1.0000
  C   C2634     1.0  0.76255  0.00479  0.73611  1.0000
  C   C2635     1.0  0.92818  0.45419  0.57777  1.0000
  H   H4167     1.0  0.83370  0.37479  0.61036  1.0000
  H   H4168     1.0  0.80162  0.23908  0.79114  1.0000
  H   H4169     1.0  0.76006  0.22633  0.92697  1.0000
  Fe  Fe537     1.0  0.90029  0.46346  0.55780  1.0000
  H   H4170     1.0  0.76847  0.09498  0.69430  1.0000
  H   H4171     1.0  0.93088  0.35676  0.57020  1.0000
  S   S1065     1.0  0.92343  0.44875  0.56280  1.0000
  H   H4172     1.0  0.85499  0.36368  0.57251  1.0000
  H   H4173     1.0  0.97716  0.40236  0.65061  1.0000
  C   C2636     1.0  0.82692  0.37964  0.60092  1.0000
  C   C2637     1.0  0.77152  0.23441  0.66417  1.0000
  C   C2638     1.0  0.88300  0.47108  0.49272  1.0000
  H   H4174     1.0  0.86570  0.26666  0.85019  1.0000
  C   C2639     1.0  0.79859  0.23328  0.80379  1.0000
  H   H4175     1.0  0.87363  0.28992  0.83065  1.0000
  C   C2640     1.0  0.75333  0.00930  0.76265  1.0000
  H   H4176     1.0  0.98491  0.18338  0.91829  1.0000
  S   S1066     1.0  0.77653  0.09165  0.74323  1.0000
  H   H4177     1.0  0.84483  0.19273  0.76479  1.0000
  C   C2641     1.0  0.83005  0.42281  0.60714  1.0000
  H   H4178     1.0  0.98381  0.20014  0.88428  1.0000
  C   C2642     1.0  0.92432  0.45192  0.51835  1.0000
  H   H4179     1.0  0.81038  0.33520  0.68483  1.0000
  H   H4180     1.0  0.91381  0.46051  0.51479  1.0000
  S   S1067     1.0  0.79619  0.28672  0.75652  1.0000
  C   C2643     1.0  0.84402  0.41209  0.60969  1.0000
  H   H4181     1.0  0.92905  0.31960  0.68528  1.0000
  H   H4182     1.0  0.85975  0.19898  0.74827  1.0000
  C   C2644     1.0  0.78815  0.21346  0.62456  1.0000
  S   S1068     1.0  0.98835  0.36363  0.68573  1.0000
  H   H4183     1.0  0.98080  0.23919  0.53501  1.0000
  S   S1069     1.0  0.98853  0.09612  0.75545  1.0000
  Fe  Fe538     1.0  0.79822  0.28934  0.73050  1.0000
  Fe  Fe539     1.0  0.74159  0.17341  0.67853  1.0000
  H   H4184     1.0  0.87485  0.45570  0.48382  1.0000
  H   H4185     1.0  0.98274  0.47656  0.54539  1.0000
  N   N258      1.0  0.92355  0.31552  0.66530  1.0000
  H   H4186     1.0  0.86337  0.27321  0.49965  1.0000
  N   N259      1.0  0.77268  0.17083  0.74346  1.0000
  H   H4187     1.0  0.78257  0.26404  0.92044  1.0000
  C   C2645     1.0  0.98695  0.15640  0.80570  1.0000
  C   C2646     1.0  0.97557  0.27678  0.53864  1.0000
  Fe  Fe540     1.0  0.75738  0.07790  0.75297  1.0000
  N   N260      1.0  0.83744  0.37998  0.58515  1.0000
  C   C2647     1.0  0.98135  0.48347  0.53386  1.0000
  H   H4188     1.0  0.95115  0.22054  0.54210  1.0000
  H   H4189     1.0  0.96366  0.22661  0.52345  1.0000
  S   S1070     1.0  0.99050  0.36507  0.64820  1.0000
  H   H4190     1.0  0.76216  0.12082  0.67607  1.0000
  H   H4191     1.0  0.76376  0.09376  0.71513  1.0000
  H   H4192     1.0  0.74576  0.23545  0.72326  1.0000
  C   C2648     1.0  0.92522  0.34916  0.58098  1.0000
  H   H4193     1.0  0.75864  0.24361  0.80949  1.0000
  C   C2649     1.0  0.97530  0.28443  0.52293  1.0000
  H   H4194     1.0  0.86344  0.29469  0.61874  1.0000
  H   H4195     1.0  0.92092  0.35602  0.59038  1.0000
  C   C2650     1.0  0.93635  0.30132  0.66452  1.0000
  C   C2651     1.0  0.94175  0.32558  0.57293  1.0000
  H   H4196     1.0  0.76909  0.26328  0.81497  1.0000
  H   H4197     1.0  0.84142  0.40294  0.58273  1.0000
  H   H4198     1.0  0.81829  0.37216  0.60318  1.0000
  C   C2652     1.0  0.92200  0.32407  0.64921  1.0000
  S   S1071     1.0  0.79433  0.14597  0.68820  1.0000
  S   S1072     1.0  0.83319  0.25020  0.76538  1.0000
  H   H4199     1.0  0.95276  0.44309  0.57213  1.0000
  S   S1073     1.0  0.98794  0.17254  0.73068  1.0000
  S   S1074     1.0  0.80122  0.31159  0.71190  1.0000
  N   N261      1.0  0.76879  0.24677  0.92482  1.0000
  C   C2653     1.0  0.76753  0.10141  0.70346  1.0000
  H   H4200     1.0  0.77946  0.22224  0.93055  1.0000
  C   C2654     1.0  0.78106  0.25753  0.80926  1.0000
  S   S1075     1.0  0.76030  0.20636  0.96054  1.0000
  H   H4201     1.0  0.83924  0.35553  0.58631  1.0000
  C   C2655     1.0  0.77960  0.23325  0.82845  1.0000
  Fe  Fe541     1.0  0.79526  0.25566  0.73403  1.0000
  S   S1076     1.0  0.77745  0.19193  0.67378  1.0000
  C   C2656     1.0  0.77086  0.23783  0.80439  1.0000
  C   C2657     1.0  0.84687  0.36399  0.58421  1.0000
  H   H4202     1.0  0.94462  0.41880  0.62022  1.0000
  H   H4203     1.0  0.98049  0.19626  0.66724  1.0000
  C   C2658     1.0  0.92731  0.32579  0.67326  1.0000
  H   H4204     1.0  0.97951  0.17626  0.90433  1.0000
  H   H4205     1.0  0.78814  0.23520  0.83415  1.0000
  H   H4206     1.0  0.98583  0.39879  0.62336  1.0000
  H   H4207     1.0  0.95062  0.31458  0.57585  1.0000
  N   N262      1.0  0.84100  0.08377  0.78085  1.0000
  C   C2659     1.0  0.84302  0.06733  0.78985  1.0000
  C   C2660     1.0  0.82982  0.08660  0.77066  1.0000
  C   C2661     1.0  0.85638  0.08671  0.77104  1.0000
  C   C2662     1.0  0.83474  0.09447  0.79190  1.0000
  H   H4208     1.0  0.85135  0.06486  0.79769  1.0000
  H   H4209     1.0  0.84775  0.05892  0.78189  1.0000
  H   H4210     1.0  0.83160  0.06477  0.79736  1.0000
  H   H4211     1.0  0.82826  0.09882  0.76351  1.0000
  H   H4212     1.0  0.83394  0.07856  0.76234  1.0000
  H   H4213     1.0  0.81792  0.08498  0.77771  1.0000
  H   H4214     1.0  0.86503  0.08507  0.77834  1.0000
  H   H4215     1.0  0.85529  0.09899  0.76401  1.0000
  H   H4216     1.0  0.86158  0.07878  0.76262  1.0000
  H   H4217     1.0  0.83279  0.10692  0.78547  1.0000
  H   H4218     1.0  0.84300  0.09302  0.79953  1.0000
  H   H4219     1.0  0.82315  0.09260  0.79957  1.0000
  H   H4220     1.0  0.84751  0.27118  0.84359  1.0000
  N   N263      1.0  0.93631  0.33428  0.58574  1.0000
  C   C2663     1.0  0.84810  0.39067  0.58246  1.0000
  C   C2664     1.0  0.83422  0.20001  0.73800  1.0000
  H   H4221     1.0  0.90569  0.27532  0.60659  1.0000
  H   H4222     1.0  0.89094  0.29270  0.60212  1.0000
  H   H4223     1.0  0.82999  0.23823  0.55292  1.0000
  H   H4224     1.0  0.84855  0.22933  0.78903  1.0000
  H   H4225     1.0  0.87983  0.28038  0.64554  1.0000
  H   H4226     1.0  0.88496  0.29603  0.62938  1.0000
  H   H4227     1.0  0.80215  0.21076  0.70716  1.0000
  C   C2665     1.0  0.76165  0.12649  0.68567  1.0000
  C   C2666     1.0  0.89291  0.27976  0.60670  1.0000
  N   N264      1.0  0.96296  0.41137  0.63323  1.0000
  C   C2667     1.0  0.83877  0.47271  0.60705  1.0000
  H   H4228     1.0  0.78249  0.25857  0.64348  1.0000
  S   S1077     1.0  0.98964  0.33195  0.67502  1.0000
  H   H4229     1.0  0.89019  0.27457  0.59821  1.0000
  C   C2668     1.0  0.84815  0.20312  0.75582  1.0000
  H   H4230     1.0  0.82981  0.18982  0.74631  1.0000
  H   H4231     1.0  0.85429  0.35947  0.59312  1.0000
  H   H4232     1.0  0.91231  0.33475  0.64936  1.0000
  C   C2669     1.0  0.88710  0.28300  0.63341  1.0000
  C   C2670     1.0  0.83145  0.25103  0.78484  1.0000
  H   H4233     1.0  0.90515  0.30341  0.66836  1.0000
  C   C2671     1.0  0.98240  0.33574  0.77573  1.0000
  H   H4234     1.0  0.80762  0.23435  0.80940  1.0000
  H   H4235     1.0  0.80303  0.25028  0.64323  1.0000
  C   C2672     1.0  0.76964  0.23562  0.72291  1.0000
  Fe  Fe542     1.0  0.97745  0.11950  0.76199  1.0000
  H   H4236     1.0  0.77803  0.25851  0.67165  1.0000
  C   C2673     1.0  0.81993  0.31370  0.69976  1.0000
  S   S1078     1.0  0.97549  0.25007  0.58853  1.0000
  H   H4237     1.0  0.74713  0.13641  0.71260  1.0000
  H   H4238     1.0  0.78173  0.20124  0.70119  1.0000
  H   H4239     1.0  0.86303  0.27706  0.61367  1.0000
  H   H4240     1.0  0.89972  0.27862  0.63409  1.0000
  H   H4241     1.0  0.96314  0.45137  0.51258  1.0000
  H   H4242     1.0  0.89862  0.32145  0.67494  1.0000
  C   C2674     1.0  0.83374  0.30283  0.70260  1.0000
  H   H4243     1.0  0.84555  0.19533  0.73038  1.0000
  H   H4244     1.0  0.89894  0.25355  0.62864  1.0000
  H   H4245     1.0  0.91766  0.33638  0.67446  1.0000
  C   C2675     1.0  0.80073  0.20156  0.62893  1.0000
  H   H4246     1.0  0.79193  0.24079  0.63660  1.0000
  H   H4247     1.0  0.94745  0.33269  0.56178  1.0000
  H   H4248     1.0  0.83312  0.29287  0.71242  1.0000
  H   H4249     1.0  0.87143  0.24698  0.49328  1.0000
  H   H4250     1.0  0.92185  0.44871  0.53143  1.0000
  S   S1079     1.0  0.75453  0.27318  0.77923  1.0000
  H   H4251     1.0  0.78311  0.26343  0.79655  1.0000
  H   H4252     1.0  0.97004  0.38916  0.62629  1.0000
  C   C2676     1.0  0.90852  0.31096  0.67415  1.0000
  S   S1080     1.0  0.84406  0.45747  0.57149  1.0000
  H   H4253     1.0  0.76723  0.18182  0.72080  1.0000
  H   H4254     1.0  0.90916  0.30442  0.68638  1.0000
  H   H4255     1.0  0.85856  0.27833  0.63396  1.0000
  H   H4256     1.0  0.88327  0.25269  0.62053  1.0000
  H   H4257     1.0  0.87925  0.25500  0.64042  1.0000
  C   C2677     1.0  0.77131  0.23043  0.92320  1.0000
  Fe  Fe543     1.0  0.77602  0.16658  0.67986  1.0000
  H   H4258     1.0  0.76887  0.00815  0.72411  1.0000
  H   H4259     1.0  0.76669  0.02367  0.74350  1.0000
  C   C2678     1.0  0.94639  0.41349  0.63242  1.0000
  H   H4260     1.0  0.78077  0.22033  0.83055  1.0000
  C   C2679     1.0  0.78659  0.24702  0.67317  1.0000
  H   H4261     1.0  0.97798  0.21705  0.66512  1.0000
  H   H4262     1.0  0.96001  0.43508  0.63558  1.0000
  S   S1081     1.0  0.77745  0.27854  0.73388  1.0000
  Fe  Fe544     1.0  0.77678  0.27423  0.75986  1.0000
  H   H4263     1.0  0.95643  0.34491  0.57856  1.0000
  N   N265      1.0  0.78713  0.23798  0.66165  1.0000
  H   H4264     1.0  0.76754  0.23835  0.83458  1.0000
  H   H4265     1.0  0.95731  0.41200  0.65777  1.0000
  S   S1082     1.0  0.76410  0.16832  0.66059  1.0000
  C   C2680     1.0  0.77828  0.21088  0.70714  1.0000
  C   C2681     1.0  0.78555  0.22875  0.71831  1.0000
  H   H4266     1.0  0.76625  0.24526  0.72888  1.0000
  S   S1083     1.0  0.76847  0.21174  0.63290  1.0000
  H   H4267     1.0  0.87980  0.46517  0.50490  1.0000
  C   C2682     1.0  0.96748  0.42678  0.62803  1.0000
  C   C2683     1.0  0.77421  0.17082  0.72681  1.0000
  Fe  Fe545     1.0  0.76355  0.19428  0.65599  1.0000
  C   C2684     1.0  0.75582  0.17399  0.75126  1.0000
  H   H4268     1.0  0.79350  0.15276  0.74587  1.0000
  H   H4269     1.0  0.93667  0.24776  0.54083  1.0000
  Fe  Fe546     1.0  0.97554  0.35667  0.67167  1.0000
  C   C2685     1.0  0.79910  0.22314  0.66367  1.0000
  H   H4270     1.0  0.79255  0.24416  0.92674  1.0000
  H   H4271     1.0  0.75499  0.30847  0.81210  1.0000
  H   H4272     1.0  0.96632  0.43244  0.61572  1.0000
  H   H4273     1.0  0.92561  0.44112  0.51415  1.0000
  H   H4274     1.0  0.79988  0.22055  0.80445  1.0000
  H   H4275     1.0  0.77656  0.22922  0.91084  1.0000
  H   H4276     1.0  0.76505  0.29663  0.78849  1.0000
  C   C2686     1.0  0.75574  0.12492  0.71362  1.0000
  C   C2687     1.0  0.74940  0.29990  0.81083  1.0000
  Fe  Fe547     1.0  0.74752  0.04647  0.76534  1.0000
  H   H4277     1.0  0.97669  0.28182  0.49951  1.0000
  C   C2688     1.0  0.93625  0.47287  0.51774  1.0000
  C   C2689     1.0  0.98975  0.30075  0.62278  1.0000
  H   H4278     1.0  0.98113  0.46363  0.52528  1.0000
  C   C2690     1.0  0.96474  0.40431  0.64959  1.0000
  H   H4279     1.0  0.93406  0.47028  0.53082  1.0000
  C   C2691     1.0  0.98691  0.16154  0.81891  1.0000
  S   S1084     1.0  0.75129  0.02058  0.77636  1.0000
  C   C2692     1.0  0.87479  0.25269  0.48066  1.0000
  H   H4280     1.0  0.97447  0.34694  0.77834  1.0000
  H   H4281     1.0  0.97200  0.20490  0.68412  1.0000
  S   S1085     1.0  0.98376  0.26578  0.81989  1.0000
  S   S1086     1.0  0.98734  0.27968  0.59250  1.0000
  H   H4282     1.0  0.83949  0.46916  0.61964  1.0000
  H   H4283     1.0  0.97862  0.32598  0.78541  1.0000
  H   H4284     1.0  0.82965  0.46739  0.60566  1.0000
  S   S1087     1.0  0.98752  0.22946  0.85631  1.0000
  H   H4285     1.0  0.93133  0.47131  0.49042  1.0000
  H   H4286     1.0  0.98927  0.20751  0.89804  1.0000
  H   H4287     1.0  0.91165  0.47584  0.60587  1.0000
  S   S1088     1.0  0.74752  0.21121  0.70779  1.0000
  H   H4288     1.0  0.85611  0.28110  0.48195  1.0000
  C   C2693     1.0  0.89003  0.48396  0.48886  1.0000
  H   H4289     1.0  0.96515  0.80639  0.18652  1.0000
  S   S1089     1.0  0.94341  0.52447  0.43541  1.0000
  S   S1090     1.0  0.84769  0.53329  0.40788  1.0000
  H   H4290     1.0  0.74460  0.79897  0.08038  1.0000
  Fe  Fe548     1.0  0.86355  0.63770  0.31723  1.0000
  S   S1091     1.0  0.84348  0.63278  0.33739  1.0000
  S   S1092     1.0  0.86060  0.65236  0.29314  1.0000
  Fe  Fe549     1.0  0.88824  0.62012  0.33741  1.0000
  S   S1093     1.0  0.86994  0.61419  0.35918  1.0000
  S   S1094     1.0  0.91419  0.61023  0.33613  1.0000
  Fe  Fe550     1.0  0.85850  0.60846  0.34302  1.0000
  S   S1095     1.0  0.85227  0.58553  0.34462  1.0000
  Fe  Fe551     1.0  0.85702  0.63912  0.35131  1.0000
  S   S1096     1.0  0.84579  0.65814  0.36498  1.0000
  S   S1097     1.0  0.87762  0.61300  0.32162  1.0000
  S   S1098     1.0  0.87631  0.64543  0.33075  1.0000
  Fe  Fe552     1.0  0.89324  0.69879  0.39400  1.0000
  S   S1099     1.0  0.90401  0.71581  0.37362  1.0000
  S   S1100     1.0  0.89697  0.67471  0.38954  1.0000
  Fe  Fe553     1.0  0.88482  0.72111  0.41633  1.0000
  S   S1101     1.0  0.89557  0.73952  0.39748  1.0000
  C   C2694     1.0  0.94504  0.75478  0.13583  1.0000
  Fe  Fe554     1.0  0.88318  0.73389  0.38209  1.0000
  S   S1102     1.0  0.86963  0.75415  0.36670  1.0000
  Fe  Fe555     1.0  0.91517  0.71954  0.39114  1.0000
  S   S1103     1.0  0.94125  0.71844  0.38404  1.0000
  S   S1104     1.0  0.87132  0.71651  0.40117  1.0000
  S   S1105     1.0  0.90555  0.70148  0.41120  1.0000
  H   H4291     1.0  0.82636  0.78002  0.40809  1.0000
  C   C2695     1.0  0.97589  0.80446  0.17707  1.0000
  C   C2696     1.0  0.75752  0.63938  0.20505  1.0000
  Fe  Fe556     1.0  0.80870  0.88220  0.24670  1.0000
  S   S1106     1.0  0.78901  0.88983  0.26633  1.0000
  S   S1107     1.0  0.82947  0.86566  0.25594  1.0000
  N   N266      1.0  0.83742  0.75554  0.41354  1.0000
  Fe  Fe557     1.0  0.78324  0.91220  0.24861  1.0000
  S   S1108     1.0  0.77252  0.93629  0.25402  1.0000
  S   S1109     1.0  0.79427  0.87129  0.23806  1.0000
  S   S1110     1.0  0.80414  0.90555  0.22955  1.0000
  Fe  Fe558     1.0  0.94054  0.80795  0.23774  1.0000
  S   S1111     1.0  0.93723  0.81629  0.21292  1.0000
  S   S1112     1.0  0.95892  0.81070  0.24851  1.0000
  Fe  Fe559     1.0  0.91204  0.79346  0.24917  1.0000
  S   S1113     1.0  0.90588  0.80060  0.22553  1.0000
  S   S1114     1.0  0.89829  0.77961  0.27031  1.0000
  Fe  Fe560     1.0  0.93173  0.79271  0.21633  1.0000
  S   S1115     1.0  0.94037  0.77952  0.19679  1.0000
  Fe  Fe561     1.0  0.91162  0.82346  0.22410  1.0000
  S   S1116     1.0  0.89701  0.84627  0.21345  1.0000
  S   S1117     1.0  0.93751  0.78359  0.24014  1.0000
  S   S1118     1.0  0.91537  0.81712  0.24869  1.0000
  Fe  Fe562     1.0  0.88375  0.73909  0.13940  1.0000
  S   S1119     1.0  0.90286  0.71787  0.13574  1.0000
  S   S1120     1.0  0.86648  0.75052  0.12360  1.0000
  Fe  Fe563     1.0  0.89248  0.74037  0.16913  1.0000
  S   S1121     1.0  0.91227  0.71923  0.16773  1.0000
  S   S1122     1.0  0.88667  0.75084  0.19046  1.0000
  Fe  Fe564     1.0  0.91784  0.73014  0.14205  1.0000
  S   S1123     1.0  0.94280  0.72834  0.12818  1.0000
  Fe  Fe565     1.0  0.89540  0.70908  0.16162  1.0000
  S   S1124     1.0  0.89486  0.68365  0.17111  1.0000
  S   S1125     1.0  0.89931  0.75231  0.14376  1.0000
  S   S1126     1.0  0.87502  0.72932  0.16501  1.0000
  Fe  Fe566     1.0  0.80046  0.74666  0.28999  1.0000
  S   S1127     1.0  0.79300  0.77200  0.27820  1.0000
  S   S1128     1.0  0.79976  0.72393  0.28510  1.0000
  Fe  Fe567     1.0  0.81324  0.75376  0.31417  1.0000
  S   S1129     1.0  0.80689  0.77989  0.30505  1.0000
  S   S1130     1.0  0.82513  0.73741  0.33346  1.0000
  Fe  Fe568     1.0  0.78414  0.77616  0.30268  1.0000
  S   S1131     1.0  0.76262  0.79530  0.30798  1.0000
  Fe  Fe569     1.0  0.81592  0.77458  0.28102  1.0000
  S   S1132     1.0  0.82877  0.79153  0.26222  1.0000
  S   S1133     1.0  0.78943  0.75053  0.31437  1.0000
  S   S1134     1.0  0.82438  0.74880  0.29017  1.0000
  Fe  Fe570     1.0  0.80542  0.69734  0.21535  1.0000
  S   S1135     1.0  0.82418  0.67570  0.21983  1.0000
  S   S1136     1.0  0.80969  0.72078  0.21456  1.0000
  Fe  Fe571     1.0  0.78202  0.67902  0.21450  1.0000
  S   S1137     1.0  0.79879  0.65582  0.21949  1.0000
  S   S1138     1.0  0.75823  0.68269  0.20907  1.0000
  Fe  Fe572     1.0  0.80450  0.66559  0.23718  1.0000
  S   S1139     1.0  0.80480  0.65353  0.26274  1.0000
  Fe  Fe573     1.0  0.81658  0.66845  0.20181  1.0000
  S   S1140     1.0  0.83324  0.65920  0.18140  1.0000
  S   S1141     1.0  0.78604  0.68783  0.23359  1.0000
  S   S1142     1.0  0.79958  0.69103  0.19578  1.0000
  Fe  Fe574     1.0  0.81985  0.70885  0.05054  1.0000
  S   S1143     1.0  0.82827  0.73096  0.04691  1.0000
  S   S1144     1.0  0.82145  0.69741  0.03059  1.0000
  Fe  Fe575     1.0  0.80977  0.70576  0.08619  1.0000
  S   S1145     1.0  0.81663  0.72785  0.08536  1.0000
  S   S1146     1.0  0.80063  0.69242  0.11033  1.0000
  Fe  Fe576     1.0  0.80580  0.73762  0.06430  1.0000
  S   S1147     1.0  0.78941  0.76118  0.06021  1.0000
  Fe  Fe577     1.0  0.83835  0.71897  0.06842  1.0000
  S   S1148     1.0  0.86244  0.71701  0.07241  1.0000
  S   S1149     1.0  0.79675  0.71625  0.06667  1.0000
  S   S1150     1.0  0.83206  0.69608  0.07050  1.0000
  H   H4292     1.0  0.82409  0.73900  0.42961  1.0000
  H   H4293     1.0  0.77771  0.82084  0.22206  1.0000
  H   H4294     1.0  0.83631  0.76237  0.38908  1.0000
  H   H4295     1.0  0.74562  0.70188  0.29348  1.0000
  H   H4296     1.0  0.82704  0.77214  0.42845  1.0000
  C   C2697     1.0  0.74787  0.64283  0.19428  1.0000
  H   H4297     1.0  0.77474  0.66843  0.17349  1.0000
  N   N267      1.0  0.78114  0.97436  0.29105  1.0000
  H   H4298     1.0  0.86846  0.73900  0.46762  1.0000
  H   H4299     1.0  0.76299  0.66979  0.28637  1.0000
  H   H4300     1.0  0.79899  0.66922  0.14240  1.0000
  C   C2698     1.0  0.79126  0.67841  0.10926  1.0000
  C   C2699     1.0  0.77505  0.67999  0.11527  1.0000
  C   C2700     1.0  0.76762  0.66827  0.11543  1.0000
  C   C2701     1.0  0.77641  0.65480  0.10992  1.0000
  C   C2702     1.0  0.79260  0.65337  0.10364  1.0000
  C   C2703     1.0  0.80003  0.66520  0.10327  1.0000
  H   H4301     1.0  0.76823  0.69028  0.11978  1.0000
  H   H4302     1.0  0.75502  0.66990  0.11943  1.0000
  H   H4303     1.0  0.79943  0.64301  0.09927  1.0000
  H   H4304     1.0  0.81260  0.66393  0.09870  1.0000
  C   C2704     1.0  0.76999  0.75962  0.06945  1.0000
  C   C2705     1.0  0.75748  0.77118  0.06441  1.0000
  H   H4305     1.0  0.79386  0.68127  0.27693  1.0000
  C   C2706     1.0  0.78725  0.66249  0.17358  1.0000
  N   N268      1.0  0.97200  0.80902  0.16140  1.0000
  C   C2707     1.0  0.76690  0.74721  0.08222  1.0000
  H   H4306     1.0  0.85953  0.53479  0.45423  1.0000
  H   H4307     1.0  0.81334  0.76746  0.42032  1.0000
  H   H4308     1.0  0.81124  0.63752  0.17559  1.0000
  H   H4309     1.0  0.77652  0.73841  0.08636  1.0000
  C   C2708     1.0  0.75401  0.66718  0.20388  1.0000
  H   H4310     1.0  0.84694  0.51970  0.47968  1.0000
  H   H4311     1.0  0.75766  0.68643  0.07274  1.0000
  H   H4312     1.0  0.83088  0.53392  0.44326  1.0000
  H   H4313     1.0  0.77961  0.69641  0.04091  1.0000
  C   C2709     1.0  0.76074  0.65151  0.20970  1.0000
  H   H4314     1.0  0.82478  0.71851  0.98224  1.0000
  H   H4315     1.0  0.85902  0.49564  0.44937  1.0000
  H   H4316     1.0  0.74854  0.97193  0.21271  1.0000
  C   C2710     1.0  0.78622  0.95846  0.28765  1.0000
  C   C2711     1.0  0.80490  0.72348  0.26511  1.0000
  C   C2712     1.0  0.80951  0.70892  0.26086  1.0000
  C   C2713     1.0  0.81112  0.70811  0.24530  1.0000
  C   C2714     1.0  0.80876  0.72190  0.23379  1.0000
  C   C2715     1.0  0.80531  0.73652  0.23779  1.0000
  C   C2716     1.0  0.80322  0.73732  0.25352  1.0000
  H   H4317     1.0  0.81154  0.69823  0.26966  1.0000
  H   H4318     1.0  0.81400  0.69677  0.24229  1.0000
  H   H4319     1.0  0.80355  0.74720  0.22888  1.0000
  H   H4320     1.0  0.79973  0.74861  0.25675  1.0000
  C   C2717     1.0  0.86535  0.74091  0.10960  1.0000
  C   C2718     1.0  0.85290  0.74679  0.10174  1.0000
  C   C2719     1.0  0.85180  0.73947  0.09040  1.0000
  C   C2720     1.0  0.86334  0.72639  0.08666  1.0000
  C   C2721     1.0  0.87585  0.72057  0.09443  1.0000
  C   C2722     1.0  0.87675  0.72769  0.10600  1.0000
  H   H4321     1.0  0.84408  0.75708  0.10440  1.0000
  H   H4322     1.0  0.84223  0.74418  0.08430  1.0000
  H   H4323     1.0  0.88476  0.71039  0.09163  1.0000
  H   H4324     1.0  0.88621  0.72290  0.11213  1.0000
  C   C2723     1.0  0.87753  0.67789  0.17222  1.0000
  C   C2724     1.0  0.86271  0.68788  0.17538  1.0000
  C   C2725     1.0  0.84900  0.68221  0.17815  1.0000
  C   C2726     1.0  0.85016  0.66679  0.17704  1.0000
  C   C2727     1.0  0.86495  0.65716  0.17300  1.0000
  C   C2728     1.0  0.87860  0.66259  0.17092  1.0000
  H   H4325     1.0  0.86180  0.69973  0.17630  1.0000
  H   H4326     1.0  0.83755  0.68971  0.18125  1.0000
  H   H4327     1.0  0.86589  0.64524  0.17220  1.0000
  H   H4328     1.0  0.89004  0.65483  0.16851  1.0000
  C   C2729     1.0  0.87876  0.78344  0.26855  1.0000
  C   C2730     1.0  0.87239  0.79727  0.25879  1.0000
  C   C2731     1.0  0.85684  0.79998  0.25715  1.0000
  C   C2732     1.0  0.84775  0.78879  0.26517  1.0000
  C   C2733     1.0  0.85400  0.77522  0.27524  1.0000
  C   C2734     1.0  0.86950  0.77250  0.27686  1.0000
  H   H4329     1.0  0.87938  0.80593  0.25265  1.0000
  H   H4330     1.0  0.85187  0.81074  0.24975  1.0000
  H   H4331     1.0  0.84704  0.76661  0.28155  1.0000
  H   H4332     1.0  0.87439  0.76168  0.28423  1.0000
  C   C2735     1.0  0.92596  0.77069  0.19528  1.0000
  C   C2736     1.0  0.91385  0.76716  0.20824  1.0000
  C   C2737     1.0  0.90205  0.76071  0.20675  1.0000
  C   C2738     1.0  0.90232  0.75769  0.19232  1.0000
  C   C2739     1.0  0.91471  0.76075  0.17947  1.0000
  C   C2740     1.0  0.92649  0.76728  0.18095  1.0000
  H   H4333     1.0  0.91366  0.76921  0.21948  1.0000
  H   H4334     1.0  0.89274  0.75798  0.21683  1.0000
  H   H4335     1.0  0.91503  0.75843  0.16829  1.0000
  H   H4336     1.0  0.93583  0.77000  0.17089  1.0000
  H   H4337     1.0  0.77287  0.68049  0.08364  1.0000
  C   C2741     1.0  0.78297  0.95147  0.24753  1.0000
  C   C2742     1.0  0.77444  0.96700  0.24701  1.0000
  C   C2743     1.0  0.74189  0.77040  0.07217  1.0000
  C   C2744     1.0  0.97343  0.72228  0.40535  1.0000
  C   C2745     1.0  0.83501  0.75231  0.39934  1.0000
  C   C2746     1.0  0.82549  0.76941  0.41778  1.0000
  C   C2747     1.0  0.79871  0.97635  0.23976  1.0000
  Fe  Fe578     1.0  0.96989  0.61974  0.38106  1.0000
  C   C2748     1.0  0.95608  0.65761  0.42368  1.0000
  C   C2749     1.0  0.84774  0.86000  0.24346  1.0000
  C   C2750     1.0  0.85163  0.86815  0.22788  1.0000
  C   C2751     1.0  0.86675  0.86380  0.21862  1.0000
  C   C2752     1.0  0.87790  0.85117  0.22485  1.0000
  C   C2753     1.0  0.87384  0.84280  0.24028  1.0000
  C   C2754     1.0  0.85885  0.84726  0.24958  1.0000
  H   H4338     1.0  0.84313  0.87802  0.22310  1.0000
  H   H4339     1.0  0.86984  0.87032  0.20667  1.0000
  H   H4340     1.0  0.88234  0.83309  0.24520  1.0000
  H   H4341     1.0  0.85589  0.84091  0.26162  1.0000
  C   C2755     1.0  0.78494  0.71768  0.99976  1.0000
  C   C2756     1.0  0.79643  0.70408  0.99755  1.0000
  C   C2757     1.0  0.80757  0.69798  0.00709  1.0000
  C   C2758     1.0  0.80745  0.70556  0.01871  1.0000
  C   C2759     1.0  0.79600  0.71920  0.02086  1.0000
  C   C2760     1.0  0.78470  0.72515  0.01151  1.0000
  S   S1151     1.0  0.86000  0.48539  0.41470  1.0000
  H   H4342     1.0  0.75736  0.95783  0.22782  1.0000
  H   H4343     1.0  0.79581  0.72516  0.02977  1.0000
  H   H4344     1.0  0.77583  0.73566  0.01332  1.0000
  C   C2761     1.0  0.74846  0.86934  0.20017  1.0000
  C   C2762     1.0  0.95308  0.74072  0.13112  1.0000
  C   C2763     1.0  0.96956  0.73660  0.12839  1.0000
  C   C2764     1.0  0.97799  0.74643  0.13055  1.0000
  C   C2765     1.0  0.79943  0.94843  0.24357  1.0000
  H   H4345     1.0  0.97581  0.72577  0.12463  1.0000
  H   H4346     1.0  0.75024  0.79628  0.12642  1.0000
  H   H4347     1.0  0.78826  0.63035  0.16054  1.0000
  C   C2766     1.0  0.77746  0.68429  0.04443  1.0000
  C   C2767     1.0  0.96995  0.83386  0.22425  1.0000
  C   C2768     1.0  0.97028  0.82495  0.23950  1.0000
  H   H4348     1.0  0.77939  0.65428  0.07662  1.0000
  C   C2769     1.0  0.98012  0.84433  0.21711  1.0000
  N   N269      1.0  0.78056  0.67640  0.06022  1.0000
  H   H4349     1.0  0.96217  0.83242  0.21785  1.0000
  C   C2770     1.0  0.85998  0.52502  0.44880  1.0000
  H   H4350     1.0  0.95065  0.64125  0.34719  1.0000
  C   C2771     1.0  0.85735  0.74948  0.35738  1.0000
  C   C2772     1.0  0.85582  0.73401  0.35993  1.0000
  C   C2773     1.0  0.84589  0.73054  0.35249  1.0000
  C   C2774     1.0  0.83760  0.74244  0.34228  1.0000
  C   C2775     1.0  0.83926  0.75791  0.33958  1.0000
  C   C2776     1.0  0.84901  0.76143  0.34724  1.0000
  H   H4351     1.0  0.86219  0.72470  0.36772  1.0000
  H   H4352     1.0  0.84460  0.71856  0.35472  1.0000
  H   H4353     1.0  0.83283  0.76715  0.33179  1.0000
  H   H4354     1.0  0.85005  0.77345  0.34531  1.0000
  C   C2777     1.0  0.79283  0.98380  0.28153  1.0000
  H   H4355     1.0  0.78784  0.65643  0.18596  1.0000
  C   C2778     1.0  0.78388  0.63914  0.16810  1.0000
  H   H4356     1.0  0.80611  0.93648  0.24391  1.0000
  H   H4357     1.0  0.88971  0.69731  0.44928  1.0000
  C   C2779     1.0  0.94982  0.72240  0.39738  1.0000
  C   C2780     1.0  0.96626  0.71966  0.39469  1.0000
  C   C2781     1.0  0.75011  0.80356  0.11435  1.0000
  H   H4358     1.0  0.95613  0.72296  0.16944  1.0000
  C   C2782     1.0  0.94775  0.73033  0.42152  1.0000
  C   C2783     1.0  0.94056  0.72762  0.41089  1.0000
  H   H4359     1.0  0.97349  0.71553  0.38432  1.0000
  C   C2784     1.0  0.83592  0.74178  0.42675  1.0000
  H   H4360     1.0  0.94054  0.73454  0.43185  1.0000
  H   H4361     1.0  0.92786  0.72968  0.41312  1.0000
  C   C2785     1.0  0.84447  0.65353  0.28520  1.0000
  C   C2786     1.0  0.83123  0.64776  0.29440  1.0000
  C   C2787     1.0  0.81906  0.64799  0.28740  1.0000
  C   C2788     1.0  0.81996  0.65412  0.27122  1.0000
  C   C2789     1.0  0.83296  0.66037  0.26217  1.0000
  C   C2790     1.0  0.84515  0.66006  0.26914  1.0000
  H   H4362     1.0  0.83046  0.64297  0.30684  1.0000
  H   H4363     1.0  0.80895  0.64329  0.29451  1.0000
  H   H4364     1.0  0.83378  0.66518  0.24975  1.0000
  H   H4365     1.0  0.85532  0.66463  0.26196  1.0000
  C   C2791     1.0  0.92236  0.61181  0.35097  1.0000
  C   C2792     1.0  0.93878  0.60814  0.34908  1.0000
  H   H4366     1.0  0.85981  0.53009  0.43614  1.0000
  C   C2793     1.0  0.91976  0.61793  0.37614  1.0000
  C   C2794     1.0  0.91285  0.61663  0.36458  1.0000
  H   H4367     1.0  0.94620  0.60433  0.33860  1.0000
  H   H4368     1.0  0.90018  0.61937  0.36621  1.0000
  C   C2795     1.0  0.85998  0.66315  0.37148  1.0000
  C   C2796     1.0  0.87471  0.65300  0.37170  1.0000
  C   C2797     1.0  0.88589  0.65670  0.37732  1.0000
  C   C2798     1.0  0.88259  0.67073  0.38242  1.0000
  C   C2799     1.0  0.86801  0.68116  0.38180  1.0000
  C   C2800     1.0  0.85665  0.67728  0.37647  1.0000
  H   H4369     1.0  0.87735  0.64209  0.36789  1.0000
  H   H4370     1.0  0.89707  0.64857  0.37784  1.0000
  H   H4371     1.0  0.86537  0.69201  0.38571  1.0000
  H   H4372     1.0  0.84527  0.68519  0.37629  1.0000
  N   N270      1.0  0.74690  0.79505  0.10422  1.0000
  Fe  Fe579     1.0  0.98053  0.48643  0.46729  1.0000
  C   C2801     1.0  0.84917  0.54786  0.39034  1.0000
  C   C2802     1.0  0.84720  0.56363  0.39088  1.0000
  C   C2803     1.0  0.84855  0.57529  0.37690  1.0000
  C   C2804     1.0  0.85132  0.57128  0.36238  1.0000
  C   C2805     1.0  0.85315  0.55555  0.36189  1.0000
  C   C2806     1.0  0.85232  0.54385  0.37578  1.0000
  H   H4373     1.0  0.84471  0.56682  0.40211  1.0000
  H   H4374     1.0  0.84699  0.58742  0.37740  1.0000
  H   H4375     1.0  0.85517  0.55237  0.35072  1.0000
  H   H4376     1.0  0.85358  0.53179  0.37525  1.0000
  N   N271      1.0  0.95093  0.67266  0.41303  1.0000
  H   H4377     1.0  0.96178  0.82975  0.14619  1.0000
  C   C2807     1.0  0.96478  0.67769  0.40160  1.0000
  H   H4378     1.0  0.78529  0.67786  0.03530  1.0000
  H   H4379     1.0  0.96487  0.65850  0.42972  1.0000
  H   H4380     1.0  0.84686  0.50903  0.43662  1.0000
  C   C2808     1.0  0.75735  0.69640  0.29646  1.0000
  H   H4381     1.0  0.89443  0.49217  0.44893  1.0000
  H   H4382     1.0  0.75648  0.97526  0.29413  1.0000
  C   C2809     1.0  0.77074  0.70618  0.27001  1.0000
  H   H4383     1.0  0.95226  0.50523  0.38768  1.0000
  H   H4384     1.0  0.76611  0.80600  0.26520  1.0000
  N   N272      1.0  0.76154  0.82291  0.24421  1.0000
  N   N273      1.0  0.89695  0.76490  0.31925  1.0000
  C   C2810     1.0  0.91065  0.76915  0.30698  1.0000
  C   C2811     1.0  0.89028  0.77709  0.32868  1.0000
  C   C2812     1.0  0.90196  0.74956  0.32959  1.0000
  C   C2813     1.0  0.88486  0.76382  0.31172  1.0000
  H   H4385     1.0  0.91573  0.76044  0.29933  1.0000
  H   H4386     1.0  0.92014  0.76985  0.31219  1.0000
  H   H4387     1.0  0.90726  0.78075  0.29906  1.0000
  H   H4388     1.0  0.88664  0.78886  0.32119  1.0000
  H   H4389     1.0  0.87970  0.77444  0.33780  1.0000
  H   H4390     1.0  0.89894  0.77794  0.33490  1.0000
  H   H4391     1.0  0.90725  0.74014  0.32280  1.0000
  H   H4392     1.0  0.89182  0.74590  0.33880  1.0000
  H   H4393     1.0  0.91082  0.75001  0.33578  1.0000
  H   H4394     1.0  0.87447  0.76026  0.32059  1.0000
  H   H4395     1.0  0.88964  0.75505  0.30414  1.0000
  H   H4396     1.0  0.88056  0.77529  0.30408  1.0000
  N   N274      1.0  0.83606  0.69208  0.32295  1.0000
  C   C2814     1.0  0.84332  0.69566  0.33394  1.0000
  C   C2815     1.0  0.82367  0.70574  0.31817  1.0000
  C   C2816     1.0  0.82904  0.67825  0.33083  1.0000
  C   C2817     1.0  0.84822  0.68864  0.30889  1.0000
  H   H4397     1.0  0.85271  0.68559  0.33785  1.0000
  H   H4398     1.0  0.83446  0.69822  0.34473  1.0000
  H   H4399     1.0  0.84859  0.70616  0.32848  1.0000
  H   H4400     1.0  0.81781  0.70349  0.30997  1.0000
  H   H4401     1.0  0.81444  0.70887  0.32853  1.0000
  H   H4402     1.0  0.82862  0.71635  0.31210  1.0000
  H   H4403     1.0  0.82329  0.67528  0.32298  1.0000
  H   H4404     1.0  0.82012  0.68023  0.34176  1.0000
  H   H4405     1.0  0.83817  0.66774  0.33435  1.0000
  H   H4406     1.0  0.84315  0.68578  0.30040  1.0000
  H   H4407     1.0  0.85774  0.67835  0.31206  1.0000
  H   H4408     1.0  0.85377  0.69883  0.30262  1.0000
  H   H4409     1.0  0.89647  0.68314  0.47501  1.0000
  C   C2818     1.0  0.83168  0.52869  0.45577  1.0000
  S   S1152     1.0  0.98704  0.61387  0.35939  1.0000
  C   C2819     1.0  0.88680  0.70343  0.45873  1.0000
  H   H4410     1.0  0.77355  0.67655  0.26696  1.0000
  H   H4411     1.0  0.98074  0.81996  0.25949  1.0000
  H   H4412     1.0  0.75859  0.80834  0.08273  1.0000
  S   S1153     1.0  0.87223  0.72906  0.43904  1.0000
  H   H4413     1.0  0.94726  0.77579  0.14100  1.0000
  H   H4414     1.0  0.97034  0.70911  0.47212  1.0000
  H   H4415     1.0  0.79652  0.69810  0.98872  1.0000
  H   H4416     1.0  0.94918  0.80317  0.16949  1.0000
  Fe  Fe580     1.0  0.96545  0.50712  0.44029  1.0000
  C   C2820     1.0  0.85330  0.75869  0.41031  1.0000
  H   H4417     1.0  0.85506  0.76883  0.40026  1.0000
  H   H4418     1.0  0.86250  0.74840  0.40726  1.0000
  H   H4419     1.0  0.85565  0.76107  0.42078  1.0000
  H   H4420     1.0  0.83792  0.74374  0.43759  1.0000
  H   H4421     1.0  0.84483  0.73110  0.42402  1.0000
  C   C2821     1.0  0.95350  0.76481  0.13756  1.0000
  H   H4422     1.0  0.88019  0.55425  0.37836  1.0000
  C   C2822     1.0  0.74699  0.80509  0.08829  1.0000
  H   H4423     1.0  0.76828  0.64873  0.21792  1.0000
  H   H4424     1.0  0.77119  0.96617  0.31549  1.0000
  N   N275      1.0  0.76929  0.69196  0.28265  1.0000
  H   H4425     1.0  0.74884  0.78001  0.98078  1.0000
  C   C2823     1.0  0.98702  0.73076  0.46811  1.0000
  C   C2824     1.0  0.93619  0.61474  0.37400  1.0000
  C   C2825     1.0  0.80728  0.96085  0.23979  1.0000
  H   H4426     1.0  0.90446  0.52575  0.40718  1.0000
  N   N276      1.0  0.80093  0.83139  0.28405  1.0000
  C   C2826     1.0  0.79712  0.84652  0.28892  1.0000
  C   C2827     1.0  0.81550  0.82155  0.28888  1.0000
  C   C2828     1.0  0.80334  0.83434  0.26678  1.0000
  C   C2829     1.0  0.78778  0.82321  0.29153  1.0000
  H   H4427     1.0  0.78624  0.85430  0.28539  1.0000
  H   H4428     1.0  0.80677  0.85304  0.28340  1.0000
  H   H4429     1.0  0.79517  0.84476  0.30189  1.0000
  H   H4430     1.0  0.82566  0.82736  0.28320  1.0000
  H   H4431     1.0  0.81418  0.81913  0.30184  1.0000
  H   H4432     1.0  0.81869  0.81002  0.28545  1.0000
  H   H4433     1.0  0.80645  0.82314  0.26268  1.0000
  H   H4434     1.0  0.81309  0.84062  0.26074  1.0000
  H   H4435     1.0  0.79254  0.84172  0.26277  1.0000
  H   H4436     1.0  0.77650  0.83052  0.28846  1.0000
  H   H4437     1.0  0.78582  0.82036  0.30458  1.0000
  H   H4438     1.0  0.79005  0.81194  0.28778  1.0000
  H   H4439     1.0  0.80026  0.66859  0.07145  1.0000
  H   H4440     1.0  0.96104  0.51154  0.40825  1.0000
  H   H4441     1.0  0.97334  0.83308  0.15773  1.0000
  H   H4442     1.0  0.92941  0.66709  0.41266  1.0000
  H   H4443     1.0  0.94602  0.66134  0.39756  1.0000
  H   H4444     1.0  0.92447  0.65053  0.37420  1.0000
  H   H4445     1.0  0.75597  0.68599  0.30628  1.0000
  H   H4446     1.0  0.91832  0.68417  0.35480  1.0000
  C   C2830     1.0  0.96746  0.74320  0.18937  1.0000
  H   H4447     1.0  0.78869  0.69307  0.29136  1.0000
  H   H4448     1.0  0.78023  0.93668  0.22084  1.0000
  C   C2831     1.0  0.78463  0.68476  0.28713  1.0000
  C   C2832     1.0  0.76790  0.80680  0.25236  1.0000
  H   H4449     1.0  0.75883  0.96951  0.18483  1.0000
  H   H4450     1.0  0.79086  0.96262  0.19347  1.0000
  H   H4451     1.0  0.94198  0.48862  0.43253  1.0000
  H   H4452     1.0  0.75700  0.77373  0.09589  1.0000
  N   N277      1.0  0.86018  0.71122  0.21355  1.0000
  C   C2833     1.0  0.87660  0.70678  0.20486  1.0000
  C   C2834     1.0  0.86011  0.71587  0.22797  1.0000
  C   C2835     1.0  0.85260  0.69768  0.21782  1.0000
  C   C2836     1.0  0.85137  0.72459  0.20356  1.0000
  H   H4453     1.0  0.87707  0.70304  0.19401  1.0000
  H   H4454     1.0  0.88361  0.69677  0.21206  1.0000
  H   H4455     1.0  0.88267  0.71677  0.20125  1.0000
  H   H4456     1.0  0.84786  0.71918  0.23484  1.0000
  H   H4457     1.0  0.86670  0.70610  0.23579  1.0000
  H   H4458     1.0  0.86566  0.72615  0.22507  1.0000
  H   H4459     1.0  0.84011  0.70073  0.22408  1.0000
  H   H4460     1.0  0.85874  0.68742  0.22557  1.0000
  H   H4461     1.0  0.85260  0.69377  0.20721  1.0000
  H   H4462     1.0  0.85734  0.73469  0.19924  1.0000
  H   H4463     1.0  0.83925  0.72888  0.21010  1.0000
  H   H4464     1.0  0.85009  0.72121  0.19315  1.0000
  N   N278      1.0  0.92356  0.86507  0.23321  1.0000
  C   C2837     1.0  0.92942  0.85955  0.21833  1.0000
  C   C2838     1.0  0.92497  0.88155  0.23025  1.0000
  C   C2839     1.0  0.93304  0.85510  0.24472  1.0000
  C   C2840     1.0  0.90685  0.86411  0.23948  1.0000
  H   H4465     1.0  0.92847  0.84719  0.22018  1.0000
  H   H4466     1.0  0.94200  0.86012  0.21321  1.0000
  H   H4467     1.0  0.92242  0.86667  0.20941  1.0000
  H   H4468     1.0  0.93744  0.88270  0.22545  1.0000
  H   H4469     1.0  0.91796  0.88938  0.22161  1.0000
  H   H4470     1.0  0.92069  0.88610  0.24125  1.0000
  H   H4471     1.0  0.92871  0.85863  0.25626  1.0000
  H   H4472     1.0  0.94565  0.85588  0.24052  1.0000
  H   H4473     1.0  0.93271  0.84248  0.24687  1.0000
  H   H4474     1.0  0.90190  0.86832  0.25064  1.0000
  H   H4475     1.0  0.90534  0.85184  0.24188  1.0000
  H   H4476     1.0  0.89941  0.87125  0.23094  1.0000
  N   N279      1.0  0.84900  0.59980  0.29707  1.0000
  C   C2841     1.0  0.83770  0.60625  0.31021  1.0000
  C   C2842     1.0  0.84055  0.59383  0.28892  1.0000
  C   C2843     1.0  0.86118  0.58681  0.30333  1.0000
  C   C2844     1.0  0.85653  0.61229  0.28585  1.0000
  H   H4477     1.0  0.84359  0.61130  0.31631  1.0000
  H   H4478     1.0  0.83230  0.59698  0.31926  1.0000
  H   H4479     1.0  0.82799  0.61567  0.30605  1.0000
  H   H4480     1.0  0.83125  0.60338  0.28406  1.0000
  H   H4481     1.0  0.84871  0.58888  0.27892  1.0000
  H   H4482     1.0  0.83469  0.58441  0.29707  1.0000
  H   H4483     1.0  0.86986  0.58151  0.29381  1.0000
  H   H4484     1.0  0.85586  0.57732  0.31209  1.0000
  H   H4485     1.0  0.86779  0.59096  0.30950  1.0000
  H   H4486     1.0  0.86562  0.60771  0.27614  1.0000
  H   H4487     1.0  0.86238  0.61765  0.29173  1.0000
  H   H4488     1.0  0.84776  0.62195  0.28036  1.0000
  N   N280      1.0  0.84670  0.51714  0.45683  1.0000
  H   H4489     1.0  0.96177  0.64804  0.41711  1.0000
  C   C2845     1.0  0.92771  0.51457  0.39643  1.0000
  H   H4490     1.0  0.75985  0.78071  0.05446  1.0000
  C   C2846     1.0  0.77987  0.97326  0.30792  1.0000
  S   S1154     1.0  0.97759  0.51201  0.45620  1.0000
  H   H4491     1.0  0.98305  0.74125  0.16049  1.0000
  H   H4492     1.0  0.98152  0.71298  0.19849  1.0000
  H   H4493     1.0  0.98169  0.79179  0.17983  1.0000
  C   C2847     1.0  0.76284  0.87829  0.21386  1.0000
  H   H4494     1.0  0.76198  0.79812  0.25106  1.0000
  H   H4495     1.0  0.95360  0.74374  0.16661  1.0000
  H   H4496     1.0  0.95836  0.80222  0.14934  1.0000
  H   H4497     1.0  0.78766  0.93490  0.20074  1.0000
  H   H4498     1.0  0.77423  0.71510  0.27392  1.0000
  C   C2848     1.0  0.77984  0.96546  0.20235  1.0000
  H   H4499     1.0  0.83047  0.53852  0.46145  1.0000
  H   H4500     1.0  0.79416  0.67179  0.17015  1.0000
  H   H4501     1.0  0.75965  0.77269  0.11499  1.0000
  C   C2849     1.0  0.95570  0.57578  0.41389  1.0000
  C   C2850     1.0  0.96996  0.76056  0.13509  1.0000
  C   C2851     1.0  0.80995  0.64386  0.16344  1.0000
  H   H4502     1.0  0.92105  0.55941  0.37078  1.0000
  N   N281      1.0  0.79331  0.65133  0.16299  1.0000
  H   H4503     1.0  0.81491  0.63525  0.15570  1.0000
  H   H4504     1.0  0.93220  0.68133  0.43124  1.0000
  Fe  Fe581     1.0  0.77445  0.88023  0.25658  1.0000
  H   H4505     1.0  0.82001  0.95842  0.23723  1.0000
  H   H4506     1.0  0.85862  0.50157  0.47465  1.0000
  N   N282      1.0  0.86665  0.80272  0.20742  1.0000
  C   C2852     1.0  0.86510  0.81702  0.21306  1.0000
  C   C2853     1.0  0.88158  0.80007  0.19563  1.0000
  C   C2854     1.0  0.85330  0.80472  0.20014  1.0000
  C   C2855     1.0  0.86657  0.78900  0.22081  1.0000
  H   H4507     1.0  0.87469  0.81580  0.21907  1.0000
  H   H4508     1.0  0.85375  0.81962  0.22161  1.0000
  H   H4509     1.0  0.86561  0.82754  0.20321  1.0000
  H   H4510     1.0  0.88296  0.78951  0.19094  1.0000
  H   H4511     1.0  0.88219  0.81027  0.18546  1.0000
  H   H4512     1.0  0.89196  0.79815  0.20075  1.0000
  H   H4513     1.0  0.85417  0.79415  0.19567  1.0000
  H   H4514     1.0  0.85293  0.81501  0.19002  1.0000
  H   H4515     1.0  0.84184  0.80658  0.20875  1.0000
  H   H4516     1.0  0.86778  0.77802  0.21692  1.0000
  H   H4517     1.0  0.85539  0.79050  0.22988  1.0000
  H   H4518     1.0  0.87643  0.78713  0.22670  1.0000
  N   N283      1.0  0.83798  0.69799  0.13009  1.0000
  C   C2856     1.0  0.82720  0.71338  0.12635  1.0000
  C   C2857     1.0  0.84460  0.69157  0.11572  1.0000
  C   C2858     1.0  0.82919  0.68705  0.14232  1.0000
  C   C2859     1.0  0.85088  0.69996  0.13594  1.0000
  H   H4519     1.0  0.81732  0.71229  0.12190  1.0000
  H   H4520     1.0  0.83346  0.72189  0.11709  1.0000
  H   H4521     1.0  0.82200  0.71866  0.13687  1.0000
  H   H4522     1.0  0.83514  0.69001  0.11096  1.0000
  H   H4523     1.0  0.85124  0.69958  0.10620  1.0000
  H   H4524     1.0  0.85284  0.67998  0.11801  1.0000
  H   H4525     1.0  0.81932  0.68539  0.13829  1.0000
  H   H4526     1.0  0.82412  0.69147  0.15339  1.0000
  H   H4527     1.0  0.83698  0.67530  0.14543  1.0000
  H   H4528     1.0  0.85916  0.68854  0.13905  1.0000
  H   H4529     1.0  0.84627  0.70497  0.14666  1.0000
  H   H4530     1.0  0.85782  0.70805  0.12696  1.0000
  N   N284      1.0  0.92150  0.74156  0.08948  1.0000
  C   C2860     1.0  0.91144  0.74936  0.10226  1.0000
  C   C2861     1.0  0.93655  0.74685  0.08392  1.0000
  C   C2862     1.0  0.91329  0.74570  0.07640  1.0000
  C   C2863     1.0  0.92472  0.72433  0.09539  1.0000
  H   H4531     1.0  0.90001  0.74561  0.10688  1.0000
  H   H4532     1.0  0.90868  0.76237  0.09820  1.0000
  H   H4533     1.0  0.91735  0.74658  0.11225  1.0000
  H   H4534     1.0  0.94449  0.74123  0.07426  1.0000
  H   H4535     1.0  0.93462  0.75981  0.07950  1.0000
  H   H4536     1.0  0.94298  0.74378  0.09361  1.0000
  H   H4537     1.0  0.91070  0.75861  0.07162  1.0000
  H   H4538     1.0  0.90181  0.74195  0.08035  1.0000
  H   H4539     1.0  0.92045  0.73993  0.06656  1.0000
  H   H4540     1.0  0.91368  0.71985  0.09956  1.0000
  H   H4541     1.0  0.93070  0.72080  0.10544  1.0000
  H   H4542     1.0  0.93249  0.71809  0.08611  1.0000
  S   S1155     1.0  0.97691  0.64240  0.37796  1.0000
  C   C2864     1.0  0.98338  0.72971  0.16890  1.0000
  H   H4543     1.0  0.76893  0.93048  0.21114  1.0000
  C   C2865     1.0  0.93405  0.65718  0.36948  1.0000
  S   S1156     1.0  0.78256  0.89887  0.19921  1.0000
  H   H4544     1.0  0.98934  0.80163  0.22469  1.0000
  H   H4545     1.0  0.82139  0.52315  0.46158  1.0000
  H   H4546     1.0  0.94492  0.64910  0.37265  1.0000
  H   H4547     1.0  0.94720  0.68140  0.35241  1.0000
  C   C2866     1.0  0.77721  0.66050  0.06472  1.0000
  C   C2867     1.0  0.76484  0.82370  0.22713  1.0000
  H   H4548     1.0  0.90644  0.55335  0.33885  1.0000
  S   S1157     1.0  0.76653  0.90316  0.24087  1.0000
  C   C2868     1.0  0.89060  0.69542  0.47333  1.0000
  H   H4549     1.0  0.79778  0.95225  0.29069  1.0000
  C   C2869     1.0  0.84770  0.50439  0.44915  1.0000
  C   C2870     1.0  0.76449  0.68053  0.27703  1.0000
  H   H4550     1.0  0.84383  0.74193  0.39579  1.0000
  H   H4551     1.0  0.94422  0.73288  0.18485  1.0000
  H   H4552     1.0  0.82313  0.74991  0.40127  1.0000
  H   H4553     1.0  0.96645  0.58298  0.38259  1.0000
  H   H4554     1.0  0.76271  0.62727  0.20964  1.0000
  H   H4555     1.0  0.97239  0.70498  0.18816  1.0000
  H   H4556     1.0  0.91235  0.62170  0.38665  1.0000
  H   H4557     1.0  0.81741  0.65273  0.15956  1.0000
  C   C2871     1.0  0.98057  0.82668  0.24762  1.0000
  C   C2872     1.0  0.96065  0.80007  0.16128  1.0000
  S   S1158     1.0  0.77044  0.72534  0.98838  1.0000
  C   C2873     1.0  0.79210  0.65987  0.14679  1.0000
  H   H4558     1.0  0.77964  0.66564  0.14616  1.0000
  H   H4559     1.0  0.95052  0.68691  0.42869  1.0000
  C   C2874     1.0  0.94568  0.60967  0.36052  1.0000
  C   C2875     1.0  0.75426  0.87927  0.18617  1.0000
  H   H4560     1.0  0.92356  0.54081  0.36594  1.0000
  H   H4561     1.0  0.79643  0.65182  0.13846  1.0000
  H   H4562     1.0  0.77134  0.64437  0.16749  1.0000
  C   C2876     1.0  0.76563  0.98199  0.28708  1.0000
  H   H4563     1.0  0.76069  0.70505  0.30092  1.0000
  H   H4564     1.0  0.76470  0.66095  0.06513  1.0000
  H   H4565     1.0  0.92611  0.55796  0.35056  1.0000
  C   C2877     1.0  0.93981  0.64992  0.34449  1.0000
  Fe  Fe582     1.0  0.78757  0.89508  0.22302  1.0000
  H   H4566     1.0  0.91324  0.53196  0.42785  1.0000
  C   C2878     1.0  0.91894  0.55371  0.36237  1.0000
  H   H4567     1.0  0.78077  0.80302  0.24774  1.0000
  C   C2879     1.0  0.96497  0.82601  0.15789  1.0000
  N   N285      1.0  0.76900  0.95515  0.20428  1.0000
  C   C2880     1.0  0.74398  0.67062  0.19345  1.0000
  H   H4568     1.0  0.78406  0.63267  0.18044  1.0000
  H   H4569     1.0  0.77985  0.70335  0.25951  1.0000
  H   H4570     1.0  0.87151  0.51668  0.44940  1.0000
  H   H4571     1.0  0.90300  0.57924  0.34531  1.0000
  C   C2881     1.0  0.94941  0.67142  0.34660  1.0000
  H   H4572     1.0  0.74526  0.52252  0.09569  1.0000
  H   H4573     1.0  0.90381  0.53635  0.35443  1.0000
  C   C2882     1.0  0.89976  0.54936  0.35098  1.0000
  N   N286      1.0  0.90203  0.55729  0.36216  1.0000
  C   C2883     1.0  0.76907  0.83402  0.24719  1.0000
  C   C2884     1.0  0.96421  0.72780  0.41870  1.0000
  H   H4574     1.0  0.91143  0.66822  0.35299  1.0000
  S   S1159     1.0  0.88025  0.50487  0.38276  1.0000
  H   H4575     1.0  0.89793  0.58087  0.36542  1.0000
  C   C2885     1.0  0.89641  0.57447  0.35726  1.0000
  H   H4576     1.0  0.88369  0.57759  0.35693  1.0000
  H   H4577     1.0  0.88711  0.55184  0.35056  1.0000
  H   H4578     1.0  0.92191  0.49084  0.43179  1.0000
  H   H4579     1.0  0.98012  0.56447  0.38107  1.0000
  N   N287      1.0  0.96922  0.73011  0.18182  1.0000
  H   H4580     1.0  0.97226  0.66822  0.39548  1.0000
  Fe  Fe583     1.0  0.89932  0.49900  0.39584  1.0000
  H   H4581     1.0  0.93002  0.64355  0.34841  1.0000
  H   H4582     1.0  0.93625  0.68170  0.39613  1.0000
  H   H4583     1.0  0.93234  0.75809  0.13784  1.0000
  H   H4584     1.0  0.77538  0.95408  0.17985  1.0000
  H   H4585     1.0  0.75662  0.94951  0.19017  1.0000
  H   H4586     1.0  0.92269  0.67906  0.33594  1.0000
  H   H4587     1.0  0.96068  0.66335  0.34897  1.0000
  H   H4588     1.0  0.80538  0.66905  0.05075  1.0000
  C   C2886     1.0  0.89300  0.55153  0.37806  1.0000
  C   C2887     1.0  0.76461  0.88843  0.18595  1.0000
  C   C2888     1.0  0.89417  0.49150  0.47300  1.0000
  C   C2889     1.0  0.94265  0.68475  0.42236  1.0000
  C   C2890     1.0  0.94374  0.51118  0.39636  1.0000
  C   C2891     1.0  0.77035  0.68574  0.07176  1.0000
  S   S1160     1.0  0.94450  0.61757  0.38816  1.0000
  H   H4589     1.0  0.89462  0.55699  0.38693  1.0000
  H   H4590     1.0  0.81626  0.68729  0.00557  1.0000
  H   H4591     1.0  0.95833  0.60695  0.35882  1.0000
  H   H4592     1.0  0.89669  0.53854  0.38190  1.0000
  C   C2892     1.0  0.75922  0.78054  0.10321  1.0000
  H   H4593     1.0  0.76002  0.83564  0.22062  1.0000
  C   C2893     1.0  0.91677  0.52252  0.40746  1.0000
  H   H4594     1.0  0.74487  0.74898  0.00383  1.0000
  C   C2894     1.0  0.94017  0.67060  0.40447  1.0000
  H   H4595     1.0  0.96430  0.58026  0.41726  1.0000
  H   H4596     1.0  0.75948  0.71181  0.26611  1.0000
  S   S1161     1.0  0.97301  0.73154  0.43201  1.0000
  H   H4597     1.0  0.96049  0.71497  0.20349  1.0000
  H   H4598     1.0  0.94174  0.65395  0.33149  1.0000
  C   C2895     1.0  0.97095  0.71509  0.19353  1.0000
  C   C2896     1.0  0.76912  0.88779  0.19974  1.0000
  H   H4599     1.0  0.76595  0.87795  0.22464  1.0000
  C   C2897     1.0  0.92177  0.52622  0.41902  1.0000
  Fe  Fe584     1.0  0.86427  0.51000  0.40536  1.0000
  C   C2898     1.0  0.93768  0.52181  0.41964  1.0000
  C   C2899     1.0  0.75131  0.74654  0.09010  1.0000
  H   H4600     1.0  0.95685  0.74395  0.19917  1.0000
  C   C2900     1.0  0.95517  0.73249  0.17544  1.0000
  H   H4601     1.0  0.95408  0.82910  0.16686  1.0000
  H   H4602     1.0  0.76612  0.98296  0.27446  1.0000
  H   H4603     1.0  0.98420  0.81121  0.17770  1.0000
  S   S1162     1.0  0.76726  0.63998  0.11029  1.0000
  S   S1163     1.0  0.76013  0.86247  0.27071  1.0000
  S   S1164     1.0  0.88369  0.50566  0.41789  1.0000
  H   H4604     1.0  0.74758  0.86200  0.22499  1.0000
  H   H4605     1.0  0.95139  0.67617  0.33368  1.0000
  C   C2901     1.0  0.74655  0.78947  0.28899  1.0000
  C   C2902     1.0  0.87866  0.71913  0.45665  1.0000
  H   H4606     1.0  0.76929  0.89585  0.17501  1.0000
  H   H4607     1.0  0.77223  0.69796  0.06850  1.0000
  H   H4608     1.0  0.78203  0.83143  0.24256  1.0000
  H   H4609     1.0  0.98282  0.55460  0.41554  1.0000
  H   H4610     1.0  0.78478  0.65311  0.05632  1.0000
  C   C2903     1.0  0.95196  0.55927  0.39900  1.0000
  H   H4611     1.0  0.98611  0.72011  0.40316  1.0000
  H   H4612     1.0  0.79992  0.68692  0.05758  1.0000
  C   C2904     1.0  0.97363  0.57253  0.38918  1.0000
  H   H4613     1.0  0.98264  0.57672  0.39218  1.0000
  C   C2905     1.0  0.84746  0.51046  0.47351  1.0000
  S   S1165     1.0  0.92140  0.50771  0.38356  1.0000
  C   C2906     1.0  0.94871  0.51466  0.40807  1.0000
  H   H4614     1.0  0.94600  0.65380  0.43284  1.0000
  H   H4615     1.0  0.96681  0.54461  0.42266  1.0000
  N   N288      1.0  0.93621  0.66319  0.35232  1.0000
  C   C2907     1.0  0.92155  0.67418  0.34879  1.0000
  C   C2908     1.0  0.97386  0.55095  0.41187  1.0000
  S   S1166     1.0  0.98008  0.77303  0.13814  1.0000
  H   H4616     1.0  0.98407  0.80864  0.13735  1.0000
  H   H4617     1.0  0.93083  0.66690  0.37581  1.0000
  C   C2909     1.0  0.98651  0.80553  0.14934  1.0000
  H   H4618     1.0  0.76687  0.83351  0.26002  1.0000
  H   H4619     1.0  0.97234  0.68098  0.40742  1.0000
  H   H4620     1.0  0.83808  0.49793  0.45507  1.0000
  H   H4621     1.0  0.94785  0.58616  0.40800  1.0000
  H   H4622     1.0  0.75581  0.77912  0.28771  1.0000
  H   H4623     1.0  0.94417  0.55352  0.40958  1.0000
  H   H4624     1.0  0.96612  0.75473  0.18084  1.0000
  C   C2910     1.0  0.75254  0.86912  0.21404  1.0000
  N   N289      1.0  0.96379  0.56462  0.40348  1.0000
  H   H4625     1.0  0.77429  0.97806  0.19846  1.0000
  C   C2911     1.0  0.74692  0.79914  0.29848  1.0000
  Fe  Fe585     1.0  0.74604  0.63853  0.13037  1.0000
  H   H4626     1.0  0.96123  0.68820  0.39249  1.0000
  S   S1167     1.0  0.98573  0.60634  0.39759  1.0000
  H   H4627     1.0  0.93837  0.69614  0.41471  1.0000
  H   H4628     1.0  0.76169  0.96948  0.24985  1.0000
  H   H4629     1.0  0.74899  0.73713  0.10020  1.0000
  H   H4630     1.0  0.80481  0.97818  0.28378  1.0000
  H   H4631     1.0  0.96515  0.78718  0.16498  1.0000
  S   S1168     1.0  0.74441  0.61668  0.14933  1.0000
  C   C2912     1.0  0.77680  0.93859  0.20948  1.0000
  C   C2913     1.0  0.78227  0.97939  0.24289  1.0000
  C   C2914     1.0  0.87479  0.72687  0.46912  1.0000
  H   H4632     1.0  0.94435  0.56929  0.39242  1.0000
  H   H4633     1.0  0.94834  0.57014  0.42490  1.0000
  S   S1169     1.0  0.98711  0.50173  0.42158  1.0000
  C   C2915     1.0  0.96396  0.71956  0.47723  1.0000
  C   C2916     1.0  0.76477  0.95715  0.18911  1.0000
  H   H4634     1.0  0.75938  0.81536  0.22455  1.0000
  H   H4635     1.0  0.98011  0.85107  0.20523  1.0000
  H   H4636     1.0  0.78404  0.67394  0.29656  1.0000
  H   H4637     1.0  0.79140  0.96777  0.31129  1.0000
  S   S1170     1.0  0.74535  0.62735  0.18759  1.0000
  H   H4638     1.0  0.89969  0.50143  0.46993  1.0000
  H   H4639     1.0  0.97791  0.74181  0.19425  1.0000
  C   C2917     1.0  0.79724  0.67514  0.06000  1.0000
  H   H4640     1.0  0.95817  0.72832  0.46807  1.0000
  H   H4641     1.0  0.76505  0.68522  0.04406  1.0000
  H   H4642     1.0  0.76437  0.84639  0.24162  1.0000
  H   H4643     1.0  0.95769  0.55054  0.39145  1.0000
  H   H4644     1.0  0.99072  0.74319  0.12843  1.0000
  H   H4645     1.0  0.98030  0.54234  0.40433  1.0000
  H   H4646     1.0  0.74605  0.95200  0.21786  1.0000
  H   H4647     1.0  0.78322  0.96427  0.21360  1.0000
  H   H4648     1.0  0.77750  0.95109  0.29428  1.0000
  H   H4649     1.0  0.98172  0.73972  0.45873  1.0000
  H   H4650     1.0  0.98455  0.72073  0.16215  1.0000
  H   H4651     1.0  0.75107  0.87970  0.17541  1.0000
  H   H4652     1.0  0.77111  0.78314  0.09774  1.0000
  H   H4653     1.0  0.76170  0.80701  0.10946  1.0000
  C   C2918     1.0  0.75459  0.95941  0.21618  1.0000
  C   C2919     1.0  0.89119  0.48629  0.46108  1.0000
  H   H4654     1.0  0.75322  0.68566  0.27301  1.0000
  H   H4655     1.0  0.74455  0.55121  0.08826  1.0000
  H   H4656     1.0  0.78761  0.95902  0.27492  1.0000
  H   H4657     1.0  0.98958  0.77372  0.23834  1.0000
  C   C2920     1.0  0.74434  0.82707  0.25028  1.0000
  H   H4658     1.0  0.99096  0.79191  0.25299  1.0000
  C   C2921     1.0  0.99082  0.84562  0.22509  1.0000
  C   C2922     1.0  0.99090  0.83687  0.24040  1.0000
  H   H4659     1.0  0.74150  0.82651  0.26312  1.0000
  H   H4660     1.0  0.96000  0.74927  0.47979  1.0000
  C   C2923     1.0  0.94978  0.51187  0.64720  1.0000
  C   C2924     1.0  0.90302  0.82089  0.75434  1.0000
  H   H4661     1.0  0.88358  0.66806  0.55205  1.0000
  S   S1171     1.0  0.77057  0.65689  0.88561  1.0000
  C   C2925     1.0  0.77693  0.89692  0.71081  1.0000
  H   H4662     1.0  0.92213  0.53258  0.65205  1.0000
  C   C2926     1.0  0.97737  0.69914  0.79942  1.0000
  N   N290      1.0  0.77232  0.88196  0.71963  1.0000
  Fe  Fe586     1.0  0.87820  0.49516  0.55979  1.0000
  S   S1172     1.0  0.87228  0.51836  0.56725  1.0000
  H   H4663     1.0  0.81688  0.50979  0.60708  1.0000
  H   H4664     1.0  0.94859  0.50428  0.65923  1.0000
  C   C2927     1.0  0.98755  0.90064  0.72636  1.0000
  H   H4665     1.0  0.74662  0.72498  0.91711  1.0000
  H   H4666     1.0  0.84587  0.69954  0.78754  1.0000
  H   H4667     1.0  0.80142  0.92350  0.76358  1.0000
  H   H4668     1.0  0.91143  0.58680  0.70241  1.0000
  Fe  Fe587     1.0  0.89200  0.55665  0.62556  1.0000
  S   S1173     1.0  0.89194  0.56067  0.64910  1.0000
  S   S1174     1.0  0.89100  0.53230  0.62398  1.0000
  Fe  Fe588     1.0  0.90207  0.58744  0.60775  1.0000
  S   S1175     1.0  0.90332  0.59373  0.62950  1.0000
  S   S1176     1.0  0.91083  0.60148  0.58366  1.0000
  Fe  Fe589     1.0  0.91453  0.56839  0.63682  1.0000
  S   S1177     1.0  0.93644  0.55863  0.64651  1.0000
  Fe  Fe590     1.0  0.88051  0.58582  0.64018  1.0000
  S   S1178     1.0  0.86154  0.60257  0.65363  1.0000
  S   S1179     1.0  0.91545  0.56275  0.61407  1.0000
  S   S1180     1.0  0.87836  0.58122  0.61757  1.0000
  Fe  Fe591     1.0  0.89483  0.69160  0.55754  1.0000
  S   S1181     1.0  0.87498  0.70524  0.54563  1.0000
  S   S1182     1.0  0.88929  0.67451  0.58052  1.0000
  Fe  Fe592     1.0  0.91815  0.71042  0.53455  1.0000
  S   S1183     1.0  0.90014  0.72550  0.52082  1.0000
  S   S1184     1.0  0.94256  0.71548  0.52631  1.0000
  Fe  Fe593     1.0  0.88390  0.72636  0.54461  1.0000
  S   S1185     1.0  0.86958  0.74910  0.55163  1.0000
  Fe  Fe594     1.0  0.89303  0.70296  0.52308  1.0000
  S   S1186     1.0  0.89054  0.69218  0.50431  1.0000
  S   S1187     1.0  0.90246  0.71285  0.55805  1.0000
  S   S1188     1.0  0.91233  0.68771  0.53528  1.0000
  H   H4669     1.0  0.80677  0.70204  0.65058  1.0000
  H   H4670     1.0  0.91073  0.83769  0.77016  1.0000
  Fe  Fe595     1.0  0.77486  0.73658  0.93104  1.0000
  H   H4671     1.0  0.79783  0.96290  0.77116  1.0000
  H   H4672     1.0  0.93282  0.49024  0.65093  1.0000
  Fe  Fe596     1.0  0.79866  0.70637  0.93768  1.0000
  S   S1189     1.0  0.78206  0.69522  0.95860  1.0000
  S   S1190     1.0  0.82363  0.69515  0.92805  1.0000
  Fe  Fe597     1.0  0.76436  0.70552  0.94317  1.0000
  H   H4673     1.0  0.77409  0.62725  0.94222  1.0000
  H   H4674     1.0  0.80807  0.93389  0.77386  1.0000
  S   S1191     1.0  0.78159  0.71462  0.92188  1.0000
  S   S1192     1.0  0.79335  0.72916  0.94514  1.0000
  H   H4675     1.0  0.95136  0.52341  0.64791  1.0000
  H   H4676     1.0  0.91967  0.51333  0.66297  1.0000
  H   H4677     1.0  0.95449  0.71596  0.48743  1.0000
  H   H4678     1.0  0.94381  0.52417  0.54392  1.0000
  Fe  Fe598     1.0  0.75993  0.62253  0.85760  1.0000
  H   H4679     1.0  0.75129  0.87266  0.72778  1.0000
  S   S1193     1.0  0.77743  0.61245  0.83754  1.0000
  H   H4680     1.0  0.91090  0.52252  0.64627  1.0000
  H   H4681     1.0  0.96724  0.92538  0.71369  1.0000
  S   S1194     1.0  0.95614  0.73034  0.84920  1.0000
  S   S1195     1.0  0.76811  0.61802  0.88002  1.0000
  N   N291      1.0  0.98170  0.90244  0.71212  1.0000
  H   H4682     1.0  0.97022  0.55778  0.59692  1.0000
  C   C2928     1.0  0.91092  0.80674  0.77859  1.0000
  H   H4683     1.0  0.85094  0.70107  0.97766  1.0000
  S   S1196     1.0  0.77694  0.90682  0.76172  1.0000
  S   S1197     1.0  0.76332  0.93797  0.72478  1.0000
  Fe  Fe599     1.0  0.85676  0.81868  0.72102  1.0000
  S   S1198     1.0  0.84157  0.83117  0.74001  1.0000
  S   S1199     1.0  0.85008  0.79936  0.71483  1.0000
  Fe  Fe600     1.0  0.88495  0.83280  0.71764  1.0000
  S   S1200     1.0  0.87214  0.84659  0.73624  1.0000
  S   S1201     1.0  0.91084  0.82859  0.70635  1.0000
  Fe  Fe601     1.0  0.86339  0.82471  0.74970  1.0000
  S   S1202     1.0  0.86606  0.81260  0.77440  1.0000
  Fe  Fe602     1.0  0.85157  0.85188  0.72478  1.0000
  S   S1203     1.0  0.83767  0.87620  0.71671  1.0000
  S   S1204     1.0  0.87771  0.81067  0.73193  1.0000
  S   S1205     1.0  0.86520  0.83976  0.70497  1.0000
  Fe  Fe603     1.0  0.89322  0.70244  0.82774  1.0000
  S   S1206     1.0  0.88266  0.72836  0.82459  1.0000
  S   S1207     1.0  0.91855  0.69173  0.82966  1.0000
  Fe  Fe604     1.0  0.86328  0.69443  0.82596  1.0000
  S   S1208     1.0  0.85061  0.71958  0.82285  1.0000
  S   S1209     1.0  0.84773  0.67875  0.82624  1.0000
  Fe  Fe605     1.0  0.87270  0.72478  0.80611  1.0000
  S   S1210     1.0  0.86952  0.74027  0.78264  1.0000
  Fe  Fe606     1.0  0.86154  0.72060  0.84171  1.0000
  S   S1211     1.0  0.84494  0.73420  0.85932  1.0000
  S   S1212     1.0  0.88479  0.69943  0.80775  1.0000
  S   S1213     1.0  0.87262  0.69489  0.84629  1.0000
  Fe  Fe607     1.0  0.82066  0.76185  0.63652  1.0000
  S   S1214     1.0  0.83017  0.76304  0.65649  1.0000
  S   S1215     1.0  0.83461  0.74240  0.62367  1.0000
  Fe  Fe608     1.0  0.78948  0.78493  0.64642  1.0000
  S   S1216     1.0  0.79656  0.78725  0.66732  1.0000
  S   S1217     1.0  0.76602  0.79770  0.63990  1.0000
  Fe  Fe609     1.0  0.81989  0.78890  0.65076  1.0000
  S   S1218     1.0  0.83133  0.80828  0.65017  1.0000
  Fe  Fe610     1.0  0.80608  0.76120  0.67116  1.0000
  S   S1219     1.0  0.80069  0.74504  0.69489  1.0000
  S   S1220     1.0  0.81240  0.78808  0.62936  1.0000
  S   S1221     1.0  0.79697  0.75861  0.65164  1.0000
  Fe  Fe611     1.0  0.85655  0.64301  0.75631  1.0000
  S   S1222     1.0  0.83797  0.66468  0.75186  1.0000
  S   S1223     1.0  0.87279  0.64096  0.77198  1.0000
  Fe  Fe612     1.0  0.84882  0.62773  0.73389  1.0000
  S   S1224     1.0  0.82905  0.64826  0.72811  1.0000
  S   S1225     1.0  0.85854  0.60567  0.72386  1.0000
  Fe  Fe613     1.0  0.84591  0.66303  0.72662  1.0000
  S   S1226     1.0  0.85281  0.68311  0.70711  1.0000
  Fe  Fe614     1.0  0.82282  0.64790  0.75420  1.0000
  S   S1227     1.0  0.79865  0.65428  0.76968  1.0000
  S   S1228     1.0  0.86598  0.64260  0.73082  1.0000
  S   S1229     1.0  0.84115  0.62614  0.76017  1.0000
  C   C2929     1.0  0.81548  0.72833  0.69930  1.0000
  C   C2930     1.0  0.81150  0.71529  0.71085  1.0000
  C   C2931     1.0  0.82300  0.70144  0.71375  1.0000
  C   C2932     1.0  0.83851  0.70069  0.70514  1.0000
  C   C2933     1.0  0.84259  0.71388  0.69398  1.0000
  C   C2934     1.0  0.83110  0.72766  0.69105  1.0000
  H   H4684     1.0  0.79943  0.71576  0.71731  1.0000
  H   H4685     1.0  0.81976  0.69126  0.72237  1.0000
  H   H4686     1.0  0.85460  0.71337  0.68736  1.0000
  H   H4687     1.0  0.83435  0.73773  0.68240  1.0000
  C   C2935     1.0  0.85478  0.66885  0.81072  1.0000
  C   C2936     1.0  0.87083  0.66240  0.80629  1.0000
  C   C2937     1.0  0.87625  0.65397  0.79427  1.0000
  C   C2938     1.0  0.86572  0.65230  0.78637  1.0000
  C   C2939     1.0  0.84972  0.65925  0.79044  1.0000
  C   C2940     1.0  0.84423  0.66730  0.80277  1.0000
  H   H4688     1.0  0.87904  0.66357  0.81238  1.0000
  H   H4689     1.0  0.88864  0.64864  0.79114  1.0000
  H   H4690     1.0  0.84150  0.65806  0.78440  1.0000
  H   H4691     1.0  0.83179  0.67237  0.80610  1.0000
  C   C2941     1.0  0.84405  0.80268  0.69712  1.0000
  C   C2942     1.0  0.84503  0.81653  0.68561  1.0000
  C   C2943     1.0  0.84116  0.81822  0.67115  1.0000
  C   C2944     1.0  0.83605  0.80620  0.66830  1.0000
  C   C2945     1.0  0.83481  0.79253  0.67993  1.0000
  C   C2946     1.0  0.83893  0.79073  0.69424  1.0000
  H   H4692     1.0  0.84883  0.82588  0.68779  1.0000
  H   H4693     1.0  0.84206  0.82886  0.66220  1.0000
  H   H4694     1.0  0.83078  0.78324  0.67790  1.0000
  H   H4695     1.0  0.83812  0.78001  0.70310  1.0000
  C   C2947     1.0  0.86737  0.79245  0.77666  1.0000
  C   C2948     1.0  0.86139  0.78730  0.76677  1.0000
  C   C2949     1.0  0.86243  0.77124  0.76850  1.0000
  C   C2950     1.0  0.86924  0.76022  0.78029  1.0000
  C   C2951     1.0  0.87523  0.76531  0.79024  1.0000
  C   C2952     1.0  0.87432  0.78144  0.78840  1.0000
  H   H4696     1.0  0.85569  0.79571  0.75789  1.0000
  H   H4697     1.0  0.85771  0.76739  0.76080  1.0000
  H   H4698     1.0  0.88069  0.75685  0.79923  1.0000
  H   H4699     1.0  0.87905  0.78536  0.79602  1.0000
  H   H4700     1.0  0.76884  0.81144  0.66413  1.0000
  C   C2953     1.0  0.79425  0.89861  0.74946  1.0000
  C   C2954     1.0  0.79868  0.90618  0.73378  1.0000
  C   C2955     1.0  0.81221  0.89927  0.72398  1.0000
  C   C2956     1.0  0.82130  0.88465  0.72973  1.0000
  C   C2957     1.0  0.81703  0.87710  0.74547  1.0000
  C   C2958     1.0  0.80357  0.88416  0.75537  1.0000
  H   H4701     1.0  0.79181  0.91740  0.72915  1.0000
  H   H4702     1.0  0.81560  0.90520  0.71184  1.0000
  H   H4703     1.0  0.82407  0.86584  0.74999  1.0000
  H   H4704     1.0  0.80022  0.87827  0.76753  1.0000
  C   C2959     1.0  0.78249  0.62425  0.81854  1.0000
  C   C2960     1.0  0.77739  0.64060  0.81548  1.0000
  C   C2961     1.0  0.78236  0.64966  0.80043  1.0000
  C   C2962     1.0  0.79270  0.64250  0.78842  1.0000
  C   C2963     1.0  0.79776  0.62614  0.79145  1.0000
  C   C2964     1.0  0.79258  0.61706  0.80642  1.0000
  H   H4705     1.0  0.76958  0.64628  0.82466  1.0000
  H   H4706     1.0  0.77822  0.66229  0.79809  1.0000
  H   H4707     1.0  0.80540  0.62049  0.78216  1.0000
  H   H4708     1.0  0.79640  0.60440  0.80861  1.0000
  C   C2965     1.0  0.83034  0.70636  0.90936  1.0000
  C   C2966     1.0  0.82155  0.72130  0.90409  1.0000
  C   C2967     1.0  0.82634  0.72986  0.88883  1.0000
  C   C2968     1.0  0.83992  0.72353  0.87871  1.0000
  C   C2969     1.0  0.84895  0.70874  0.88408  1.0000
  C   C2970     1.0  0.84418  0.70017  0.89941  1.0000
  H   H4709     1.0  0.81098  0.72633  0.91171  1.0000
  H   H4710     1.0  0.81937  0.74136  0.88483  1.0000
  H   H4711     1.0  0.85967  0.70394  0.87648  1.0000
  H   H4712     1.0  0.85112  0.68868  0.90347  1.0000
  H   H4713     1.0  0.94941  0.52213  0.56189  1.0000
  C   C2971     1.0  0.81991  0.49676  0.61094  1.0000
  H   H4714     1.0  0.82809  0.69206  0.97639  1.0000
  C   C2972     1.0  0.76335  0.66689  0.90111  1.0000
  C   C2973     1.0  0.77403  0.67203  0.90609  1.0000
  C   C2974     1.0  0.76882  0.68027  0.91825  1.0000
  C   C2975     1.0  0.74738  0.66984  0.90851  1.0000
  H   H4715     1.0  0.92090  0.51346  0.54430  1.0000
  H   H4716     1.0  0.78639  0.66955  0.90056  1.0000
  H   H4717     1.0  0.77722  0.68399  0.92209  1.0000
  C   C2976     1.0  0.75683  0.77421  0.91756  1.0000
  S   S1230     1.0  0.86352  0.49176  0.54513  1.0000
  H   H4718     1.0  0.78980  0.89595  0.70901  1.0000
  H   H4719     1.0  0.94051  0.58572  0.61900  1.0000
  H   H4720     1.0  0.91673  0.52173  0.58343  1.0000
  Fe  Fe615     1.0  0.74814  0.95891  0.73422  1.0000
  C   C2977     1.0  0.94559  0.71935  0.84430  1.0000
  C   C2978     1.0  0.90151  0.60903  0.67848  1.0000
  H   H4721     1.0  0.98597  0.69669  0.60706  1.0000
  H   H4722     1.0  0.76378  0.79039  0.89591  1.0000
  H   H4723     1.0  0.95470  0.69663  0.78704  1.0000
  C   C2979     1.0  0.92981  0.72567  0.84335  1.0000
  C   C2980     1.0  0.92132  0.71724  0.83907  1.0000
  C   C2981     1.0  0.92850  0.70232  0.83595  1.0000
  C   C2982     1.0  0.94411  0.69578  0.83749  1.0000
  H   H4724     1.0  0.89691  0.62808  0.70747  1.0000
  H   H4725     1.0  0.92420  0.73722  0.84573  1.0000
  H   H4726     1.0  0.90924  0.72231  0.83824  1.0000
  H   H4727     1.0  0.94951  0.68402  0.83572  1.0000
  H   H4728     1.0  0.76660  0.95503  0.77353  1.0000
  C   C2983     1.0  0.93791  0.85465  0.72264  1.0000
  C   C2984     1.0  0.92189  0.86064  0.72266  1.0000
  C   C2985     1.0  0.91359  0.85285  0.71739  1.0000
  C   C2986     1.0  0.92134  0.83914  0.71186  1.0000
  C   C2987     1.0  0.93746  0.83335  0.71149  1.0000
  C   C2988     1.0  0.94571  0.84098  0.71704  1.0000
  H   H4729     1.0  0.91582  0.87123  0.72694  1.0000
  H   H4730     1.0  0.90122  0.85754  0.71749  1.0000
  H   H4731     1.0  0.94353  0.82277  0.70718  1.0000
  H   H4732     1.0  0.95811  0.83633  0.71692  1.0000
  C   C2989     1.0  0.85984  0.74735  0.57164  1.0000
  C   C2990     1.0  0.85137  0.76085  0.57743  1.0000
  C   C2991     1.0  0.84362  0.75961  0.59339  1.0000
  C   C2992     1.0  0.84433  0.74484  0.60362  1.0000
  C   C2993     1.0  0.85295  0.73140  0.59783  1.0000
  C   C2994     1.0  0.86069  0.73263  0.58193  1.0000
  H   H4733     1.0  0.85064  0.77228  0.56953  1.0000
  H   H4734     1.0  0.83697  0.77003  0.59774  1.0000
  H   H4735     1.0  0.85357  0.71993  0.60564  1.0000
  H   H4736     1.0  0.86717  0.72215  0.57763  1.0000
  C   C2995     1.0  0.95144  0.71562  0.54123  1.0000
  H   H4737     1.0  0.91215  0.79799  0.66434  1.0000
  H   H4738     1.0  0.86676  0.69183  0.78416  1.0000
  C   C2996     1.0  0.92172  0.61348  0.68838  1.0000
  H   H4739     1.0  0.84448  0.68973  0.76519  1.0000
  C   C2997     1.0  0.94499  0.70999  0.55707  1.0000
  H   H4740     1.0  0.77880  0.86070  0.63405  1.0000
  C   C2998     1.0  0.78587  0.94896  0.74630  1.0000
  H   H4741     1.0  0.89525  0.63637  0.68736  1.0000
  H   H4742     1.0  0.93478  0.70490  0.56026  1.0000
  C   C2999     1.0  0.86097  0.60328  0.67313  1.0000
  C   C3000     1.0  0.86747  0.59015  0.68355  1.0000
  C   C3001     1.0  0.86625  0.59096  0.69916  1.0000
  C   C3002     1.0  0.85889  0.60500  0.70440  1.0000
  C   C3003     1.0  0.85257  0.61819  0.69392  1.0000
  C   C3004     1.0  0.85345  0.61725  0.67842  1.0000
  H   H4743     1.0  0.87310  0.57926  0.67969  1.0000
  H   H4744     1.0  0.87106  0.58066  0.70721  1.0000
  H   H4745     1.0  0.84683  0.62904  0.69781  1.0000
  H   H4746     1.0  0.84827  0.62742  0.67047  1.0000
  C   C3005     1.0  0.94410  0.57261  0.65039  1.0000
  C   C3006     1.0  0.95957  0.56861  0.65250  1.0000
  H   H4747     1.0  0.90359  0.61873  0.66804  1.0000
  C   C3007     1.0  0.94194  0.59921  0.65270  1.0000
  C   C3008     1.0  0.93524  0.58788  0.65067  1.0000
  N   N292      1.0  0.97558  0.68480  0.79600  1.0000
  H   H4748     1.0  0.93517  0.61109  0.65259  1.0000
  H   H4749     1.0  0.92326  0.59099  0.64927  1.0000
  C   C3009     1.0  0.90563  0.62172  0.58314  1.0000
  C   C3010     1.0  0.89423  0.62755  0.59531  1.0000
  C   C3011     1.0  0.88964  0.64377  0.59452  1.0000
  C   C3012     1.0  0.89633  0.65425  0.58154  1.0000
  C   C3013     1.0  0.90790  0.64844  0.56943  1.0000
  C   C3014     1.0  0.91259  0.63215  0.57027  1.0000
  H   H4750     1.0  0.88869  0.61960  0.60522  1.0000
  H   H4751     1.0  0.88066  0.64822  0.60391  1.0000
  H   H4752     1.0  0.91321  0.65646  0.55944  1.0000
  H   H4753     1.0  0.92149  0.62765  0.56087  1.0000
  H   H4754     1.0  0.81793  0.70145  0.96067  1.0000
  H   H4755     1.0  0.93132  0.53533  0.55816  1.0000
  H   H4756     1.0  0.85219  0.64534  0.56383  1.0000
  H   H4757     1.0  0.96982  0.70125  0.81094  1.0000
  H   H4758     1.0  0.87580  0.72499  0.49317  1.0000
  C   C3015     1.0  0.96556  0.71672  0.56478  1.0000
  Fe  Fe616     1.0  0.77525  0.71898  0.96478  1.0000
  H   H4759     1.0  0.97636  0.68703  0.62601  1.0000
  S   S1231     1.0  0.96618  0.60965  0.65608  1.0000
  C   C3016     1.0  0.97679  0.91933  0.70523  1.0000
  H   H4760     1.0  0.78422  0.97316  0.75865  1.0000
  S   S1232     1.0  0.98032  0.52245  0.61256  1.0000
  C   C3017     1.0  0.98555  0.68277  0.78043  1.0000
  S   S1233     1.0  0.75606  0.72835  0.95115  1.0000
  H   H4761     1.0  0.86045  0.69763  0.95830  1.0000
  C   C3018     1.0  0.94385  0.59053  0.60617  1.0000
  C   C3019     1.0  0.97893  0.50842  0.51521  1.0000
  H   H4762     1.0  0.98217  0.69292  0.77091  1.0000
  H   H4763     1.0  0.83121  0.73407  0.96668  1.0000
  N   N293      1.0  0.75588  0.62144  0.93528  1.0000
  C   C3020     1.0  0.76158  0.63197  0.94127  1.0000
  H   H4764     1.0  0.84687  0.71019  0.93610  1.0000
  H   H4765     1.0  0.82831  0.69225  0.68263  1.0000
  N   N294      1.0  0.93598  0.51386  0.64057  1.0000
  H   H4766     1.0  0.94641  0.49570  0.54924  1.0000
  C   C3021     1.0  0.87820  0.52186  0.58279  1.0000
  C   C3022     1.0  0.88434  0.50959  0.59419  1.0000
  C   C3023     1.0  0.88816  0.51297  0.60678  1.0000
  C   C3024     1.0  0.88621  0.52859  0.60788  1.0000
  C   C3025     1.0  0.88045  0.54082  0.59627  1.0000
  C   C3026     1.0  0.87632  0.53745  0.58387  1.0000
  H   H4767     1.0  0.88600  0.49752  0.59343  1.0000
  H   H4768     1.0  0.89271  0.50343  0.61569  1.0000
  H   H4769     1.0  0.87886  0.55289  0.59701  1.0000
  H   H4770     1.0  0.87156  0.54701  0.57511  1.0000
  C   C3027     1.0  0.75494  0.78853  0.90667  1.0000
  H   H4771     1.0  0.74173  0.97775  0.75963  1.0000
  C   C3028     1.0  0.96639  0.58001  0.65420  1.0000
  H   H4772     1.0  0.77538  0.95856  0.74457  1.0000
  C   C3029     1.0  0.96497  0.72178  0.53721  1.0000
  C   C3030     1.0  0.98575  0.67566  0.59122  1.0000
  H   H4773     1.0  0.88671  0.81607  0.67262  1.0000
  H   H4774     1.0  0.88080  0.63387  0.56356  1.0000
  C   C3031     1.0  0.87897  0.71897  0.48360  1.0000
  H   H4775     1.0  0.97230  0.59504  0.60491  1.0000
  C   C3032     1.0  0.74214  0.67814  0.92070  1.0000
  C   C3033     1.0  0.85226  0.70650  0.96486  1.0000
  C   C3034     1.0  0.77718  0.94530  0.77451  1.0000
  H   H4776     1.0  0.90732  0.79609  0.77816  1.0000
  H   H4777     1.0  0.97468  0.58184  0.57626  1.0000
  C   C3035     1.0  0.97351  0.66242  0.61680  1.0000
  C   C3036     1.0  0.81375  0.69513  0.65956  1.0000
  H   H4778     1.0  0.85483  0.64169  0.54465  1.0000
  H   H4779     1.0  0.90650  0.82758  0.74215  1.0000
  H   H4780     1.0  0.97340  0.70990  0.50445  1.0000
  H   H4781     1.0  0.85903  0.71215  0.78476  1.0000
  H   H4782     1.0  0.90050  0.81378  0.78543  1.0000
  H   H4783     1.0  0.97410  0.70977  0.79031  1.0000
  C   C3037     1.0  0.79442  0.96306  0.76022  1.0000
  C   C3038     1.0  0.93911  0.52371  0.55673  1.0000
  H   H4784     1.0  0.93541  0.48574  0.56709  1.0000
  C   C3039     1.0  0.95271  0.70433  0.84143  1.0000
  H   H4785     1.0  0.79549  0.95121  0.73580  1.0000
  H   H4786     1.0  0.79416  0.86783  0.70962  1.0000
  H   H4787     1.0  0.89387  0.81767  0.68863  1.0000
  H   H4788     1.0  0.75651  0.76081  0.97641  1.0000
  H   H4789     1.0  0.97849  0.90657  0.73522  1.0000
  H   H4790     1.0  0.78028  0.94433  0.78584  1.0000
  H   H4791     1.0  0.92466  0.83714  0.75179  1.0000
  S   S1234     1.0  0.96639  0.50580  0.58804  1.0000
  H   H4792     1.0  0.92044  0.80283  0.78529  1.0000
  H   H4793     1.0  0.83202  0.50696  0.58012  1.0000
  H   H4794     1.0  0.77369  0.93418  0.77531  1.0000
  C   C3040     1.0  0.89441  0.62577  0.69705  1.0000
  H   H4795     1.0  0.78224  0.83637  0.65426  1.0000
  C   C3041     1.0  0.95198  0.71064  0.56883  1.0000
  H   H4796     1.0  0.84604  0.69763  0.67013  1.0000
  H   H4797     1.0  0.80283  0.83574  0.65169  1.0000
  H   H4798     1.0  0.91905  0.78059  0.67809  1.0000
  H   H4799     1.0  0.83120  0.70937  0.63321  1.0000
  H   H4800     1.0  0.85660  0.69514  0.74608  1.0000
  H   H4801     1.0  0.87618  0.71943  0.75866  1.0000
  H   H4802     1.0  0.87521  0.71238  0.74229  1.0000
  H   H4803     1.0  0.93978  0.53582  0.62528  1.0000
  H   H4804     1.0  0.77878  0.87222  0.69907  1.0000
  S   S1235     1.0  0.98714  0.82185  0.78553  1.0000
  Fe  Fe617     1.0  0.98584  0.50219  0.60033  1.0000
  H   H4805     1.0  0.76969  0.88721  0.74210  1.0000
  C   C3042     1.0  0.75285  0.68352  0.92547  1.0000
  H   H4806     1.0  0.75284  0.59763  0.94170  1.0000
  C   C3043     1.0  0.92073  0.82996  0.76367  1.0000
  H   H4807     1.0  0.94385  0.60316  0.60448  1.0000
  C   C3044     1.0  0.83918  0.71878  0.94326  1.0000
  H   H4808     1.0  0.96085  0.50641  0.63975  1.0000
  C   C3045     1.0  0.97894  0.48492  0.50730  1.0000
  C   C3046     1.0  0.75524  0.88372  0.72127  1.0000
  H   H4809     1.0  0.75447  0.63359  0.95311  1.0000
  H   H4810     1.0  0.85803  0.71655  0.96241  1.0000
  C   C3047     1.0  0.84770  0.49655  0.60340  1.0000
  H   H4811     1.0  0.81439  0.93652  0.75281  1.0000
  H   H4812     1.0  0.87562  0.81171  0.69237  1.0000
  N   N295      1.0  0.93065  0.51082  0.56424  1.0000
  H   H4813     1.0  0.79683  0.81937  0.64965  1.0000
  C   C3048     1.0  0.81148  0.83411  0.62150  1.0000
  H   H4814     1.0  0.86530  0.68185  0.76169  1.0000
  H   H4815     1.0  0.92495  0.61548  0.69855  1.0000
  H   H4816     1.0  0.89122  0.59595  0.70879  1.0000
  H   H4817     1.0  0.78500  0.83816  0.61182  1.0000
  H   H4818     1.0  0.81497  0.82108  0.62327  1.0000
  C   C3049     1.0  0.88775  0.81060  0.68498  1.0000
  C   C3050     1.0  0.78420  0.83372  0.62468  1.0000
  N   N296      1.0  0.83324  0.77267  0.82399  1.0000
  C   C3051     1.0  0.83417  0.77197  0.80764  1.0000
  C   C3052     1.0  0.84909  0.76686  0.82755  1.0000
  C   C3053     1.0  0.82257  0.76273  0.83494  1.0000
  C   C3054     1.0  0.82716  0.78910  0.82585  1.0000
  H   H4819     1.0  0.83949  0.75988  0.80555  1.0000
  H   H4820     1.0  0.84154  0.77990  0.79905  1.0000
  H   H4821     1.0  0.82235  0.77564  0.80473  1.0000
  H   H4822     1.0  0.85736  0.77434  0.81988  1.0000
  H   H4823     1.0  0.84874  0.76664  0.83999  1.0000
  H   H4824     1.0  0.85422  0.75465  0.82582  1.0000
  H   H4825     1.0  0.82175  0.76282  0.84741  1.0000
  H   H4826     1.0  0.82691  0.75025  0.83381  1.0000
  H   H4827     1.0  0.81046  0.76677  0.83271  1.0000
  H   H4828     1.0  0.82636  0.79004  0.83805  1.0000
  H   H4829     1.0  0.81520  0.79388  0.82326  1.0000
  H   H4830     1.0  0.83498  0.79689  0.81770  1.0000
  H   H4831     1.0  0.94547  0.49272  0.63170  1.0000
  H   H4832     1.0  0.94984  0.56378  0.59574  1.0000
  H   H4833     1.0  0.84864  0.49386  0.61589  1.0000
  C   C3055     1.0  0.92154  0.52086  0.65094  1.0000
  H   H4834     1.0  0.74821  0.89312  0.72769  1.0000
  H   H4835     1.0  0.99054  0.89647  0.68939  1.0000
  H   H4836     1.0  0.98470  0.67194  0.77750  1.0000
  C   C3056     1.0  0.97148  0.58265  0.60653  1.0000
  H   H4837     1.0  0.90872  0.52476  0.55849  1.0000
  Fe  Fe618     1.0  0.74469  0.61204  0.89272  1.0000
  H   H4838     1.0  0.95400  0.58814  0.57615  1.0000
  C   C3057     1.0  0.74545  0.77189  0.93152  1.0000
  C   C3058     1.0  0.82638  0.72336  0.96932  1.0000
  H   H4839     1.0  0.97428  0.68151  0.58779  1.0000
  C   C3059     1.0  0.80421  0.93495  0.76291  1.0000
  C   C3060     1.0  0.98817  0.54357  0.62376  1.0000
  C   C3061     1.0  0.82968  0.69796  0.96374  1.0000
  N   N297      1.0  0.91097  0.75440  0.56027  1.0000
  C   C3062     1.0  0.91361  0.74941  0.54537  1.0000
  C   C3063     1.0  0.89935  0.76953  0.55990  1.0000
  C   C3064     1.0  0.92605  0.75620  0.56216  1.0000
  C   C3065     1.0  0.90484  0.74245  0.57363  1.0000
  H   H4840     1.0  0.92208  0.73791  0.54532  1.0000
  H   H4841     1.0  0.91843  0.75804  0.53505  1.0000
  H   H4842     1.0  0.90248  0.74808  0.54342  1.0000
  H   H4843     1.0  0.89700  0.77368  0.57096  1.0000
  H   H4844     1.0  0.90348  0.77884  0.54990  1.0000
  H   H4845     1.0  0.88786  0.76840  0.55852  1.0000
  H   H4846     1.0  0.92459  0.75982  0.57335  1.0000
  H   H4847     1.0  0.93102  0.76517  0.55232  1.0000
  H   H4848     1.0  0.93506  0.74495  0.56234  1.0000
  H   H4849     1.0  0.89351  0.74071  0.57251  1.0000
  H   H4850     1.0  0.90252  0.74594  0.58504  1.0000
  H   H4851     1.0  0.91331  0.73087  0.57437  1.0000
  H   H4852     1.0  0.92457  0.49958  0.63387  1.0000
  C   C3066     1.0  0.83592  0.69267  0.67059  1.0000
  H   H4853     1.0  0.92362  0.62364  0.67839  1.0000
  H   H4854     1.0  0.93021  0.60287  0.68488  1.0000
  H   H4855     1.0  0.96633  0.69427  0.60999  1.0000
  H   H4856     1.0  0.95163  0.49318  0.56757  1.0000
  S   S1236     1.0  0.98202  0.50923  0.54420  1.0000
  C   C3067     1.0  0.92972  0.80613  0.75380  1.0000
  H   H4857     1.0  0.97360  0.74514  0.49235  1.0000
  H   H4858     1.0  0.96477  0.69923  0.84252  1.0000
  Fe  Fe619     1.0  0.97165  0.85051  0.73426  1.0000
  H   H4859     1.0  0.91840  0.50092  0.58722  1.0000
  C   C3068     1.0  0.97205  0.72230  0.54896  1.0000
  H   H4860     1.0  0.96996  0.72629  0.52502  1.0000
  H   H4861     1.0  0.77807  0.85793  0.71737  1.0000
  H   H4862     1.0  0.92664  0.79549  0.75267  1.0000
  H   H4863     1.0  0.93986  0.80220  0.75969  1.0000
  H   H4864     1.0  0.93386  0.81278  0.74168  1.0000
  C   C3069     1.0  0.77593  0.87782  0.73540  1.0000
  C   C3070     1.0  0.98057  0.67103  0.80818  1.0000
  H   H4865     1.0  0.98972  0.69820  0.79996  1.0000
  N   N298      1.0  0.81910  0.68741  0.87024  1.0000
  C   C3071     1.0  0.81058  0.67803  0.86589  1.0000
  C   C3072     1.0  0.81058  0.69141  0.88557  1.0000
  C   C3073     1.0  0.82015  0.70202  0.85808  1.0000
  C   C3074     1.0  0.83516  0.67819  0.87138  1.0000
  H   H4866     1.0  0.81675  0.67484  0.85434  1.0000
  H   H4867     1.0  0.79840  0.68459  0.86490  1.0000
  H   H4868     1.0  0.80953  0.66691  0.87480  1.0000
  H   H4869     1.0  0.81633  0.69906  0.88881  1.0000
  H   H4870     1.0  0.79820  0.69781  0.88536  1.0000
  H   H4871     1.0  0.81025  0.68072  0.89521  1.0000
  H   H4872     1.0  0.82679  0.70924  0.86083  1.0000
  H   H4873     1.0  0.80828  0.70940  0.85702  1.0000
  H   H4874     1.0  0.82636  0.69942  0.84632  1.0000
  H   H4875     1.0  0.84194  0.67500  0.85999  1.0000
  H   H4876     1.0  0.83487  0.66708  0.88046  1.0000
  H   H4877     1.0  0.84195  0.68493  0.87454  1.0000
  N   N299      1.0  0.87148  0.65360  0.54661  1.0000
  C   C3075     1.0  0.87182  0.66503  0.55531  1.0000
  C   C3076     1.0  0.87553  0.66024  0.52953  1.0000
  C   C3077     1.0  0.85554  0.65030  0.55098  1.0000
  C   C3078     1.0  0.88306  0.63888  0.55064  1.0000
  H   H4878     1.0  0.86921  0.66035  0.56827  1.0000
  H   H4879     1.0  0.86301  0.67618  0.55282  1.0000
  Fe  Fe620     1.0  0.75591  0.64311  0.88040  1.0000
  H   H4880     1.0  0.86737  0.67166  0.52608  1.0000
  H   H4881     1.0  0.88761  0.66261  0.52587  1.0000
  H   H4882     1.0  0.87513  0.65213  0.52248  1.0000
  H   H4883     1.0  0.84653  0.66120  0.54809  1.0000
  H   H4884     1.0  0.76185  0.61166  0.91481  1.0000
  C   C3079     1.0  0.96811  0.89489  0.71641  1.0000
  H   H4885     1.0  0.89525  0.64091  0.54699  1.0000
  C   C3080     1.0  0.79103  0.85653  0.62758  1.0000
  H   H4886     1.0  0.90871  0.59782  0.67524  1.0000
  C   C3081     1.0  0.82091  0.71836  0.66089  1.0000
  N   N300      1.0  0.90528  0.61153  0.69235  1.0000
  H   H4887     1.0  0.81281  0.83903  0.60864  1.0000
  H   H4888     1.0  0.78667  0.82064  0.62700  1.0000
  N   N301      1.0  0.79523  0.83920  0.63023  1.0000
  S   S1237     1.0  0.75602  0.98198  0.72608  1.0000
  C   C3082     1.0  0.79419  0.83242  0.64720  1.0000
  C   C3083     1.0  0.90346  0.59779  0.70551  1.0000
  C   C3084     1.0  0.94147  0.49570  0.56193  1.0000
  H   H4889     1.0  0.84071  0.68032  0.66918  1.0000
  H   H4890     1.0  0.94697  0.70624  0.58106  1.0000
  H   H4891     1.0  0.98244  0.72717  0.54576  1.0000
  H   H4892     1.0  0.80559  0.69477  0.67133  1.0000
  H   H4893     1.0  0.77177  0.83773  0.63070  1.0000
  H   H4894     1.0  0.95708  0.67565  0.79343  1.0000
  H   H4895     1.0  0.98917  0.79709  0.81338  1.0000
  H   H4896     1.0  0.76090  0.64384  0.93330  1.0000
  C   C3085     1.0  0.78122  0.86942  0.71104  1.0000
  N   N302      1.0  0.98427  0.67319  0.60834  1.0000
  H   H4897     1.0  0.97829  0.52095  0.51240  1.0000
  H   H4898     1.0  0.97374  0.67243  0.82016  1.0000
  H   H4899     1.0  0.97565  0.54703  0.62825  1.0000
  S   S1238     1.0  0.90074  0.48765  0.54318  1.0000
  H   H4900     1.0  0.82783  0.72278  0.93936  1.0000
  C   C3086     1.0  0.74259  0.73769  0.91205  1.0000
  H   H4901     1.0  0.94846  0.51913  0.61655  1.0000
  C   C3087     1.0  0.75011  0.83211  0.66475  1.0000
  H   H4902     1.0  0.89901  0.81062  0.75359  1.0000
  H   H4903     1.0  0.90329  0.77476  0.70528  1.0000
  H   H4904     1.0  0.88484  0.78767  0.71113  1.0000
  H   H4905     1.0  0.75376  0.83570  0.67339  1.0000
  N   N303      1.0  0.83410  0.61909  0.81759  1.0000
  C   C3088     1.0  0.83931  0.63013  0.82334  1.0000
  C   C3089     1.0  0.81918  0.61559  0.82809  1.0000
  C   C3090     1.0  0.84630  0.60440  0.81740  1.0000
  C   C3091     1.0  0.83164  0.62623  0.80146  1.0000
  H   H4906     1.0  0.84098  0.62528  0.83559  1.0000
  H   H4907     1.0  0.83053  0.64150  0.82321  1.0000
  H   H4908     1.0  0.85073  0.63274  0.81589  1.0000
  H   H4909     1.0  0.82039  0.61061  0.84047  1.0000
  H   H4910     1.0  0.80954  0.62635  0.82804  1.0000
  H   H4911     1.0  0.81511  0.60692  0.82441  1.0000
  H   H4912     1.0  0.84853  0.59866  0.82935  1.0000
  H   H4913     1.0  0.85766  0.60669  0.80946  1.0000
  H   H4914     1.0  0.84270  0.59583  0.81309  1.0000
  H   H4915     1.0  0.84265  0.62908  0.79323  1.0000
  H   H4916     1.0  0.82237  0.63729  0.80103  1.0000
  H   H4917     1.0  0.82788  0.61812  0.79671  1.0000
  N   N304      1.0  0.95929  0.58165  0.59908  1.0000
  H   H4918     1.0  0.74705  0.76103  0.94012  1.0000
  S   S1239     1.0  0.98217  0.85802  0.75000  1.0000
  H   H4919     1.0  0.75002  0.60643  0.95804  1.0000
  H   H4920     1.0  0.81446  0.72714  0.96661  1.0000
  C   C3092     1.0  0.91708  0.51338  0.55709  1.0000
  H   H4921     1.0  0.97844  0.57691  0.65553  1.0000
  H   H4922     1.0  0.98992  0.66433  0.58730  1.0000
  H   H4923     1.0  0.91026  0.50401  0.56277  1.0000
  C   C3093     1.0  0.96319  0.58843  0.58203  1.0000
  S   S1240     1.0  0.89413  0.49088  0.50335  1.0000
  H   H4924     1.0  0.88637  0.79015  0.66936  1.0000
  H   H4925     1.0  0.99087  0.88806  0.73213  1.0000
  Fe  Fe621     1.0  0.75857  0.92451  0.74969  1.0000
  N   N305      1.0  0.83686  0.71166  0.96029  1.0000
  C   C3094     1.0  0.92487  0.51047  0.58124  1.0000
  C   C3095     1.0  0.83443  0.49402  0.58481  1.0000
  H   H4926     1.0  0.88192  0.62454  0.70034  1.0000
  H   H4927     1.0  0.87547  0.78546  0.68917  1.0000
  H   H4928     1.0  0.90293  0.79391  0.70773  1.0000
  H   H4929     1.0  0.79911  0.86102  0.63170  1.0000
  C   C3096     1.0  0.93798  0.52433  0.62480  1.0000
  C   C3097     1.0  0.93464  0.49842  0.63925  1.0000
  C   C3098     1.0  0.95757  0.59531  0.65432  1.0000
  H   H4930     1.0  0.80438  0.96554  0.75014  1.0000
  H   H4931     1.0  0.81288  0.71869  0.67264  1.0000
  C   C3099     1.0  0.75441  0.81390  0.64799  1.0000
  H   H4932     1.0  0.84271  0.69041  0.64045  1.0000
  C   C3100     1.0  0.83759  0.70244  0.64268  1.0000
  H   H4933     1.0  0.91892  0.79965  0.68054  1.0000
  S   S1241     1.0  0.97421  0.71728  0.57966  1.0000
  H   H4934     1.0  0.82017  0.83775  0.62561  1.0000
  S   S1242     1.0  0.77324  0.75925  0.91315  1.0000
  C   C3101     1.0  0.89687  0.78726  0.70345  1.0000
  H   H4935     1.0  0.85941  0.49172  0.59650  1.0000
  H   H4936     1.0  0.77823  0.61528  0.91963  1.0000
  H   H4937     1.0  0.88894  0.60849  0.68075  1.0000
  H   H4938     1.0  0.89264  0.82854  0.76051  1.0000
  H   H4939     1.0  0.75203  0.88712  0.70958  1.0000
  H   H4940     1.0  0.92750  0.52659  0.61967  1.0000
  Fe  Fe622     1.0  0.98255  0.72342  0.84155  1.0000
  N   N306      1.0  0.79044  0.94807  0.76100  1.0000
  H   H4941     1.0  0.83061  0.72411  0.66002  1.0000
  H   H4942     1.0  0.96881  0.57768  0.61942  1.0000
  C   C3102     1.0  0.75871  0.81838  0.65949  1.0000
  H   H4943     1.0  0.96641  0.55676  0.65252  1.0000
  N   N307      1.0  0.91611  0.81592  0.76261  1.0000
  S   S1243     1.0  0.94772  0.86413  0.73025  1.0000
  H   H4944     1.0  0.90601  0.59936  0.71624  1.0000
  H   H4945     1.0  0.81423  0.72580  0.65185  1.0000
  N   N308      1.0  0.82706  0.70214  0.65843  1.0000
  C   C3103     1.0  0.95859  0.56501  0.60159  1.0000
  H   H4946     1.0  0.84466  0.72912  0.94014  1.0000
  N   N309      1.0  0.83521  0.49000  0.60156  1.0000
  S   S1244     1.0  0.74883  0.64804  0.85725  1.0000
  H   H4947     1.0  0.88280  0.62976  0.54471  1.0000
  H   H4948     1.0  0.83708  0.68907  0.95680  1.0000
  H   H4949     1.0  0.93066  0.82668  0.76978  1.0000
  H   H4950     1.0  0.74864  0.74434  0.91624  1.0000
  H   H4951     1.0  0.96334  0.89591  0.70602  1.0000
  H   H4952     1.0  0.78291  0.93781  0.74645  1.0000
  H   H4953     1.0  0.96400  0.60092  0.57974  1.0000
  H   H4954     1.0  0.95833  0.90007  0.72531  1.0000
  H   H4955     1.0  0.98963  0.70362  0.48922  1.0000
  H   H4956     1.0  0.93438  0.58995  0.60090  1.0000
  H   H4957     1.0  0.97667  0.50799  0.49221  1.0000
  S   S1245     1.0  0.74611  0.69439  0.94033  1.0000
  H   H4958     1.0  0.95641  0.73682  0.49904  1.0000
  N   N310      1.0  0.85842  0.70608  0.76364  1.0000
  C   C3104     1.0  0.84606  0.72010  0.75963  1.0000
  C   C3105     1.0  0.87407  0.70938  0.75526  1.0000
  C   C3106     1.0  0.85611  0.69264  0.75893  1.0000
  C   C3107     1.0  0.85746  0.70223  0.78077  1.0000
  H   H4959     1.0  0.83409  0.71804  0.76580  1.0000
  H   H4960     1.0  0.84640  0.72333  0.74678  1.0000
  H   H4961     1.0  0.84751  0.73047  0.76301  1.0000
  H   H4962     1.0  0.88366  0.69903  0.75805  1.0000
  H   H4963     1.0  0.77237  0.86673  0.74253  1.0000
  H   H4964     1.0  0.81794  0.68287  0.65776  1.0000
  H   H4965     1.0  0.89370  0.77255  0.68271  1.0000
  C   C3108     1.0  0.75715  0.60576  0.94599  1.0000
  C   C3109     1.0  0.88668  0.70313  0.48583  1.0000
  C   C3110     1.0  0.91229  0.79298  0.67699  1.0000
  H   H4966     1.0  0.79168  0.86204  0.61489  1.0000
  H   H4967     1.0  0.84750  0.70811  0.64129  1.0000
  N   N311      1.0  0.89615  0.79396  0.68678  1.0000
  C   C3111     1.0  0.88761  0.78512  0.68175  1.0000
  H   H4968     1.0  0.93467  0.50829  0.58723  1.0000
  H   H4969     1.0  0.97229  0.92112  0.69447  1.0000
  H   H4970     1.0  0.76443  0.63136  0.91094  1.0000
  C   C3112     1.0  0.97805  0.50111  0.50375  1.0000
  H   H4971     1.0  0.97899  0.66001  0.80627  1.0000
  N   N312      1.0  0.97478  0.72607  0.48198  1.0000
  H   H4972     1.0  0.74676  0.73958  0.89906  1.0000
  Fe  Fe623     1.0  0.98922  0.83221  0.75978  1.0000
  C   C3113     1.0  0.97794  0.68843  0.61312  1.0000
  H   H4973     1.0  0.82009  0.49394  0.62366  1.0000
  H   H4974     1.0  0.78877  0.87614  0.73456  1.0000
  H   H4975     1.0  0.76956  0.60023  0.94688  1.0000
  H   H4976     1.0  0.74434  0.77572  0.96454  1.0000
  C   C3114     1.0  0.98071  0.49962  0.53027  1.0000
  S   S1246     1.0  0.97673  0.82495  0.74575  1.0000
  C   C3115     1.0  0.95890  0.68626  0.79597  1.0000
  H   H4977     1.0  0.95514  0.55969  0.61432  1.0000
  H   H4978     1.0  0.77389  0.90073  0.69904  1.0000
  Fe  Fe624     1.0  0.98471  0.49597  0.56889  1.0000
  C   C3116     1.0  0.76553  0.61988  0.91949  1.0000
  H   H4979     1.0  0.84553  0.50956  0.59912  1.0000
  H   H4980     1.0  0.97800  0.65083  0.61331  1.0000
  H   H4981     1.0  0.77069  0.90656  0.71715  1.0000
  S   S1247     1.0  0.74512  0.94580  0.75930  1.0000
  H   H4982     1.0  0.96158  0.66733  0.61419  1.0000
  C   C3117     1.0  0.96581  0.73996  0.48858  1.0000
  H   H4983     1.0  0.97223  0.66009  0.62976  1.0000
  H   H4984     1.0  0.98332  0.57600  0.60156  1.0000
  H   H4985     1.0  0.84572  0.48894  0.57748  1.0000
  C   C3118     1.0  0.98234  0.71405  0.49398  1.0000
  H   H4986     1.0  0.95104  0.68777  0.80756  1.0000
  C   C3119     1.0  0.74600  0.77075  0.97680  1.0000
  H   H4987     1.0  0.98682  0.92532  0.70189  1.0000
  H   H4988     1.0  0.81022  0.49209  0.60978  1.0000
  H   H4989     1.0  0.97150  0.88212  0.72155  1.0000
  H   H4990     1.0  0.82517  0.48925  0.58291  1.0000
  H   H4991     1.0  0.99022  0.71877  0.49813  1.0000
  C   C3120     1.0  0.74160  0.80047  0.90960  1.0000
  S   S1248     1.0  0.74161  0.92262  0.70342  1.0000
  H   H4992     1.0  0.83759  0.50447  0.47997  1.0000
