data_image0
_chemical_formula_structural       CFeSCFeS2FeHFeS3FeS2FeS2FeSFeS3H2SHFeS2FeSFeHSCFeS2FeSHFe2S3FeS2FeS2FeSFeS3FeS2CSFeHFeSHSHC2HC6H4C2H6C6H5CH5CHCH4C2H5C2H3C6H3CNHC6H4C2HNC2HCH4C6H4C6H5CNC5H2SC4H4CSCHCHCH3FeCH2CH2CHNCHC2H4SH2FeH4NC4H4SC2H5CHFeH4NC4H3C2H7NCSCHCH3CHC4H4CH4NCNHCHCH10CH3CH3CH2CHCH3SHNCSHCHCH3SCH2CH3CHNCHCHC3H5NSCH5FeC3H5CH2CHSH4C3H7CH2SH4CH2FeS2H2FeSHCSHFeS2FeS2FeSFeS2FeS2FeSHFeHFeS3FeS2HSHCFeSHSFeS2FeS2Fe2S3FeS2FeS2FeSFeS5HCHCNC2HCH2CHNC2H5C6H8NH3C7H4CH2C8H5C4HCHCH4C6H4C6H5C3H2CH3CH2CHCHNH2C2FeHCHCHNH3C2NC2H7CH2C2H3FeC3SHNHCHCHSH2CH3SCH2CH2FeHCHCH3NC4H12NHNH9CH3C2H5CH3CH3CH2C2HC2HCH2CH2CH2CSH2CHCHC2H8C3HC3HNH3CH2C2H4NH2SH5C2H7CNC3HCH2CSCH5C3H4FeH3CFeSNFeS2FeHFeSHSFeSHFeS2FeHFeSCSFeS2FeS2FeSFeS3FeSHFeS2FeSHSH2FeSHFeS2FeSFeS3FeS2FeS2FeSFeS3CH4C6H4C4H5C2NHCH3C3H3CH2C7H5C6H4C2H5CHCHC2HCH2C6H4C6H5CH2CHC2HCH3C2HSCH2CNC2NH4CH2C3HCH5CHC2NH3CHNHSHC2HS2H3CH2C2HCHNH5CH2SHCNHCH3CHCHCH3CH2CH5CNC2HCFeH6SC2H11NC2HCH3NHCH9CH2C3NSH9CH3CH3CH2CHCH3C2H4CHCH2SCHCNC5H6CHC2HC5H2SH3SH2C2H3FeS2FeH2FeSCS3FeS2FeSFeSFeHS2CHFeS2FeSHFeHFeS3FeS2FeS2FeCFeS3FeSHFeS2HFeSHSFeS2FeSFeSFeS3HFeHC2FeSHC6H5CH2C2HC8H4C6H4CSCH7C2HCHC5H5CHC2FeH5C2HC3H4NC6H4CHC4NFeH2CH5SCNH3CH5NCHCNC4H12CHCH6NH2C2H2NH7CH3CSNC4H12SC4H3CHCH6CHC2HCH2SHCHNHCH2C2H2C3H2CS2CHC2NC2HCHCH3CNC4H13CNHCSCH2SH2CH6C2HCH5CH2CS2H7SFeSCFeS2FeNFeSHSFeS2FeS2FeSFeS3FeSFeS2FeSFeS3FeSCFeS2FeSFeS2FeH2FeS2FeCFeS3FeSFeS2FeHFeSCSNCHNH3CH5C2H5NC6H8C2HC6H4C6H4CH2C4SH3C6H6C2HC3SCH2CH2SHC6H4C4H4CSNCH2S2H2C2H2CHC3HCSNC4H12SH3CHCH5CNH2C2H2NH7CH3CHCH5CHC2H4CH3CHCHCHC2HSC2HCH2NC4HCH4CHCH2CHSHSH3C2H2NCH9CH4C3NC3HCH6CHSH5NHCH11CH4CHSCHC2H6CH2CFeNH2CHCH2S3NFeSHCFeS3FeS2FeS2FeHFeCS2H2FeS2FeS2FeSFeS3FeSHCH3FeSHSFeS2FeS2FeSFeS3FeS2FeSHFeSFeS3HCH5FeSCNC6H4C6H4C6H5CHC6H6CHCHC2SC2HCH5C5H2C6H5C2H3CSH2C7H13C2H3CH2NSC4HNH12CH2FeH3CH2CH5CHCHCH2C2H4CNH2CH5NH3CH3SH3CHNH4C2H2CH3CH5C2HSCH2C3NC6H5CHSH3CH3C2NC3H7NH10FeC2HCH4CHC2HCH3C2FeS2FeS2FeSFeS3H2CS2FeSCSCHFeS2HCHFeNFeS3FeS2FeCSFeHFeS3HFeHCFeS2Fe2S3FeS2FeS2FeSFeS3C6H4C2HNC6H7C6H4CH2C5H2CHSCHCSHC5H3NC6H6C6H5C4HCHCHC2H4NHNCH4NH3NC4H8SH3CH9SCHC2HCHCSHC2HSHC4HNC3H8CH2C3H4CNHSCH2NH2CH5CH11CH3C2HSH7C3H4CH2CH3CH6C2NC3H2C2HCHC2H7NH2CH2CH3SCHFeHSFeCH8C2FeSHFeS2FeSFeS3FeS2FeS2FeSFeS3HFeS2FeSFeHFeS3FeSCFeS2FeSFeHS2FeS2FeSFeSFeS3FeSCFeS2FeHFeS3NH3S2C6H4CH2C6H4C6H4CHCHCH2CH2S2CHNC6H4C4HCH3C6H4C3SCH6CNCHCH4C3H5C2H4CH4CHN2C4H12NSH4C2HC3HCHCH7NHCH2CH4NC4H5C4H5CHSNC4H16CNC4H11C5SH7CHCH6CH4CSC4H2CH2C3H4CHC2H2SCH2C2H8C2H3CHC3SHCHCH2C2H3CH2NH2C2S2NH2FeSHSHFeS2FeS2FeSFeS3CHFeS2FeS2FeSFeS3FeSC2H3FeSCSHC2H2FeS2FeHFeS3FeS2FeS2FeSFeS3CHC7H5NH2C2H3C7H3SFeC6H4CHC7H6C2H3C2HCSH2C2HC2H2CHC4HCH2C2H3CHCH3CHC6H4CHCH2CH3CH2CH3CHCH3SC2HFeNH2SNC3H9NC4H12NC4H9CH2CHCH2CH3SH4C2SCH4CH8CH2NC4H12CNHFeCHC2H2S2CHC2SNC4H8C2H2SHCH3C2H3NH3FeSHFeS2FeSFeS3FeSHFeS2FeHFeSHSFeS2FeS2Fe2S3FeS2FeS2FeSFeS2FeSHFeSFeSFeHSCFeS2FeNSFeSFeHS2H4NH3SHCHC8H4C2H2NC6H4C6H4CNH2CHC2SC2H6CHC6H4C6H4C2HC3HCH3C5H5CH3C2H2CHCHCNC4H9C2H6CHNSHC2HCHCHSHC2HCSHCHCH4C2H6SHNHNC4H12CH4CHC2SCSC2H2CH5CH3CH2CH2SH2SHCH4CH4CHCHSH2NCHSH3CH2CHCNHCHSHC2H6CH4NC4H4NH2CH2CHC5H4C2HCH2SH3SH4CFeHSHFeS2FeS2FeSFeHS2FeS2FeS2FeSFeS3FeS2FeS2Fe2S3FeSHFeS2FeSFeHS2HFeS2FeCHFeSFeHS2FeS2HSFeSFeS3H2CNCHCH2C6H4NCHCH2CHCHNHC6H4C6H4C2NHSC6H4CH3CH5C6H4C2HCH2CH3CHC2H2CSC4HCH2C3H7CHN2C4H12CH2C2H2NHC2H2CH2C2HC3H3S2CH4CH3SHCHCSNC4H13NH2CSHNH2CH4NH2CHCH8CHC2HCHNC4H16C2HCHC2H2C2H8CHCHCH2CHSFeH2C2SH3C2H2CH3C3H8C2H3CHSH2NH2CHC4SC2H7CH2CHCH2CH2CH3SCHFeS2FeS2FeHFeS3C2FeS2H2SHSHFeS2FeH4FeS3FeS2FeSHFeHFeS3HFeS2FeS2FeSFeS3H2FeS2Fe2S3C6H4C3H2C3HCH2CHCHCHC6H4C6H10C6H4C6H5C4NSHCHCHCHCHFeH2CS2C3H2C2HNH5C2H8CHCH4CH3CNH2NH2CH3CH2NC4H12C4H6C2H2C2HSHNC4H12CH2CHC4HC3SCHC3SCSH5C3NH2CH8C2H2NH3NH6NC4H6SC4HC3H6CHNHCH5NHCHCHC4H2CH3CHNC2N2HFeH2CH5CH2SFeHSHFeSFeS2FeSFeS3C2FeS2H2FeSHSFeSHFeS2FeSFeCSCHSHFeSHFeSCSCHFeS2FeS2FeSFeS3FeSFeS2FeSFeS3CH2SCH2C2HC6H4C2H2C2H5CHFeC8H6C2H3C7H4C6H4C6H4CHCH2CH4SHSHC2HCH2CHNC4H12NC4H13FeNH2CSH3C3SH2CHCHCH10C4HC2HC2H2CSH4CH2CH3SHNH4C2HNC4H15C2HCHNFeH4CHCH2SCNC4H12NCH2CNH3CHC3H3CHCH2CSCHC3HC2HCHCH5NCH2CH2C2HFeS2FeS2FeSFeS3FeSHFeS2FeSFeS3CHFeS2FeSHFeCFeS3FeSCFeS2FeSFeHSHFeS2FeS2FeSFeS3FeC2FeS2FeSHS2NCNFeHC6H4C2H2C2HSH2SCH2C6H4C2SH2S2NHC2HC3H6C2HNHC3H2C5H3C3H2C9H4C6H4C2HC2H3C6H4C2H2CH3CHCH2CH3CH2C2SH2CH3CSH6SCHCHSH3C3HCH7CH2SHCNHNC2HNH2CH4CH8CHCH4C2H2CH5FeHCH2SCHCNC4H12CNH3CH10CHCHCHCH2CH2CHCHSHNC4H10CHC3H2CH7SHFeSFeS2FeHFeS3H2CFeS2HFeSCSH2SFeSHFeS2FeSFeS3FeS2FeS2FeHFeS3FeS2FeSHFeSHSCFeS2FeSFeSFeS3HCH3C7H4CHCH6C6H4C6H4CH4C4H6SC7H3C5H8CHC4HCH2FeC6H4C6H8SH4CSH3CH2C3H2SCH3FeNC3H4NH3NC3SCH5NC4H12NC4H10SHCNFe3H5CH2S2NC4H3CSH5CFeNH2SCHC2HNC4H14NC2H8SH2CHCH3CH2SH2C2H6CH5C4NHFeS2FeSCFeSFeHSHFeSHFeS2H2FeSHSFeS2FeS2FeSFeS3FeS2HCHFe2CS2FeS2FeS2FeSFeS3FeS2FeS2FeSFeS3CHCHCH6C4H3C2H3C6H4CSH2CH3CHC6H5C6H4C3HCH2CHCHCH2CHNH2C6H4C4HC7H4CH3C3H4CHNC4H12NH2CHNHCH6SCH3C2H2CHCH2CH3C2H2NH3FeH4CH8C2H4CH3CH3C2NC3S2CHCH11CHC2HCN2C4HCH10NC3HNH4C2H2CHCHNC4H12NHCHC2HCHCH4CHCHCHNCHC2H2CH4CHCHNH2NHCH5CH2CSHC2HCH2S
_chemical_formula_sum              "C1920 Fe384 S768 H3072 N192"
_cell_length_a       66.5515
_cell_length_b       66.7415
_cell_length_c       66.9005
_cell_angle_alpha    78.0035
_cell_angle_beta     78.0714
_cell_angle_gamma    77.8307

_space_group_name_H-M_alt    "P 1"
_space_group_IT_number       1

loop_
  _space_group_symop_operation_xyz
  'x, y, z'

loop_
  _atom_site_type_symbol
  _atom_site_label
  _atom_site_symmetry_multiplicity
  _atom_site_fract_x
  _atom_site_fract_y
  _atom_site_fract_z
  _atom_site_occupancy
  C   C1        1.0  0.33330  0.04063  0.30789  1.0000
  Fe  Fe1       1.0  0.32405  0.18111  0.43686  1.0000
  S   S1        1.0  0.35175  0.15778  0.42592  1.0000
  C   C2        1.0  0.42878  0.14528  0.16634  1.0000
  Fe  Fe2       1.0  0.29401  0.16074  0.42039  1.0000
  S   S2        1.0  0.31943  0.13593  0.40903  1.0000
  S   S3        1.0  0.26059  0.15786  0.42102  1.0000
  Fe  Fe3       1.0  0.33107  0.13397  0.43853  1.0000
  H   H1        1.0  0.03720  0.08171  0.33066  1.0000
  Fe  Fe4       1.0  0.33750  0.16199  0.39699  1.0000
  S   S4        1.0  0.35749  0.16146  0.36518  1.0000
  S   S5        1.0  0.30421  0.15665  0.45107  1.0000
  S   S6        1.0  0.31116  0.18746  0.40675  1.0000
  Fe  Fe5       1.0  0.32794  0.09334  0.24681  1.0000
  S   S7        1.0  0.36002  0.08781  0.22798  1.0000
  S   S8        1.0  0.30295  0.07351  0.25318  1.0000
  Fe  Fe6       1.0  0.33777  0.12696  0.26639  1.0000
  S   S9        1.0  0.37068  0.12464  0.24907  1.0000
  S   S10       1.0  0.32036  0.14736  0.28983  1.0000
  Fe  Fe7       1.0  0.35700  0.12262  0.22168  1.0000
  S   S11       1.0  0.36938  0.13667  0.18883  1.0000
  Fe  Fe8       1.0  0.37136  0.09025  0.25643  1.0000
  S   S12       1.0  0.39952  0.06873  0.26626  1.0000
  S   S13       1.0  0.32367  0.12812  0.23819  1.0000
  S   S14       1.0  0.33984  0.09253  0.27608  1.0000
  H   H2        1.0  0.30893  0.01666  0.25494  1.0000
  H   H3        1.0  0.46062  0.08421  0.18519  1.0000
  S   S15       1.0  0.31645  0.22076  0.10108  1.0000
  H   H4        1.0  0.18607  0.05570  0.27024  1.0000
  Fe  Fe9       1.0  0.36761  0.20102  0.06753  1.0000
  S   S16       1.0  0.36317  0.19325  0.10229  1.0000
  S   S17       1.0  0.39579  0.18807  0.04642  1.0000
  Fe  Fe10      1.0  0.33181  0.18765  0.09952  1.0000
  S   S18       1.0  0.31917  0.16114  0.12219  1.0000
  Fe  Fe11      1.0  0.34838  0.22683  0.10092  1.0000
  H   H5        1.0  0.17723  0.09819  0.28537  1.0000
  S   S19       1.0  0.33734  0.19291  0.06481  1.0000
  C   C3        1.0  0.39686  0.00123  0.26588  1.0000
  Fe  Fe12      1.0  0.26970  0.04278  0.16381  1.0000
  S   S20       1.0  0.30185  0.04988  0.15285  1.0000
  S   S21       1.0  0.25043  0.05541  0.19199  1.0000
  Fe  Fe13      1.0  0.27402  0.01405  0.13160  1.0000
  S   S22       1.0  0.30675  0.01993  0.11813  1.0000
  H   H6        1.0  0.34184  0.99859  0.23512  1.0000
  Fe  Fe14      1.0  0.31137  0.01607  0.15101  1.0000
  Fe  Fe15      1.0  0.29416  0.05353  0.12115  1.0000
  S   S23       1.0  0.30324  0.08003  0.09576  1.0000
  S   S24       1.0  0.27970  0.00837  0.16457  1.0000
  S   S25       1.0  0.26093  0.04823  0.13201  1.0000
  Fe  Fe16      1.0  0.20770  0.12101  0.34502  1.0000
  S   S26       1.0  0.21446  0.08740  0.35957  1.0000
  S   S27       1.0  0.22685  0.14542  0.34402  1.0000
  Fe  Fe17      1.0  0.17172  0.11515  0.32523  1.0000
  S   S28       1.0  0.17592  0.08096  0.33786  1.0000
  S   S29       1.0  0.14868  0.13457  0.30488  1.0000
  Fe  Fe18      1.0  0.17951  0.09064  0.36707  1.0000
  S   S30       1.0  0.16114  0.08051  0.39827  1.0000
  Fe  Fe19      1.0  0.21056  0.08090  0.32908  1.0000
  S   S31       1.0  0.23286  0.05963  0.30879  1.0000
  S   S32       1.0  0.17307  0.12490  0.35501  1.0000
  S   S33       1.0  0.20599  0.11448  0.31398  1.0000
  Fe  Fe20      1.0  0.01244  0.17618  0.28526  1.0000
  S   S34       1.0  0.02214  0.15165  0.31140  1.0000
  S   S35       1.0  0.01202  0.20962  0.28771  1.0000
  C   C4        1.0  0.16646  0.18575  0.38784  1.0000
  S   S36       1.0  0.00669  0.11852  0.28960  1.0000
  Fe  Fe21      1.0  0.47930  0.13807  0.11019  1.0000
  H   H7        1.0  0.18004  0.16108  0.43432  1.0000
  Fe  Fe22      1.0  0.03596  0.13168  0.28722  1.0000
  S   S37       1.0  0.06528  0.10854  0.29382  1.0000
  H   H8        1.0  0.29128  0.09989  0.28550  1.0000
  S   S38       1.0  0.02839  0.15721  0.26034  1.0000
  H   H9        1.0  0.35404  0.13262  0.13433  1.0000
  C   C5        1.0  0.26554  0.02725  0.30434  1.0000
  C   C6        1.0  0.25385  0.04102  0.31745  1.0000
  H   H10       1.0  0.26138  0.02796  0.28939  1.0000
  C   C7        1.0  0.12509  0.12724  0.30302  1.0000
  C   C8        1.0  0.10968  0.14227  0.29416  1.0000
  C   C9        1.0  0.09103  0.13689  0.29180  1.0000
  C   C10       1.0  0.08790  0.11627  0.29769  1.0000
  C   C11       1.0  0.10330  0.10124  0.30656  1.0000
  C   C12       1.0  0.12170  0.10672  0.30945  1.0000
  H   H11       1.0  0.11218  0.15811  0.28880  1.0000
  H   H12       1.0  0.07937  0.14859  0.28483  1.0000
  H   H13       1.0  0.10105  0.08522  0.31106  1.0000
  H   H14       1.0  0.13344  0.09497  0.31620  1.0000
  C   C13       1.0  0.34151  0.21638  0.17818  1.0000
  C   C14       1.0  0.03325  0.23164  0.30389  1.0000
  H   H15       1.0  0.41037  0.08442  0.22211  1.0000
  H   H16       1.0  0.32389  0.18813  0.15066  1.0000
  H   H17       1.0  0.14956  0.19129  0.30557  1.0000
  H   H18       1.0  0.17300  0.18494  0.37125  1.0000
  H   H19       1.0  0.21400  0.05337  0.26669  1.0000
  H   H20       1.0  0.19789  0.06301  0.28881  1.0000
  C   C15       1.0  0.31466  0.13895  0.11429  1.0000
  C   C16       1.0  0.31882  0.13653  0.09345  1.0000
  C   C17       1.0  0.31533  0.11841  0.08794  1.0000
  C   C18       1.0  0.30765  0.10260  0.10316  1.0000
  C   C19       1.0  0.30354  0.10509  0.12396  1.0000
  C   C20       1.0  0.30711  0.12311  0.12948  1.0000
  H   H21       1.0  0.32457  0.14864  0.08157  1.0000
  H   H22       1.0  0.31849  0.11670  0.07180  1.0000
  H   H23       1.0  0.29729  0.09332  0.13583  1.0000
  H   H24       1.0  0.30378  0.12484  0.14562  1.0000
  H   H25       1.0  0.23752  0.17696  0.45763  1.0000
  C   C21       1.0  0.36088  0.05240  0.31835  1.0000
  H   H26       1.0  0.01066  0.08818  0.34381  1.0000
  H   H27       1.0  0.09808  0.17637  0.32874  1.0000
  H   H28       1.0  0.29738  0.11395  0.33465  1.0000
  H   H29       1.0  0.21107  0.16920  0.40819  1.0000
  H   H30       1.0  0.39074  0.22220  0.12030  1.0000
  C   C22       1.0  0.43425  0.15227  0.18248  1.0000
  H   H31       1.0  0.00292  0.10873  0.37196  1.0000
  C   C23       1.0  0.13330  0.22063  0.41913  1.0000
  H   H32       1.0  0.08979  0.22323  0.07621  1.0000
  H   H33       1.0  0.19664  0.10036  0.22869  1.0000
  H   H34       1.0  0.21216  0.07480  0.23114  1.0000
  H   H35       1.0  0.28027  0.02393  0.35811  1.0000
  C   C24       1.0  0.43878  0.13826  0.06289  1.0000
  C   C25       1.0  0.19888  0.06326  0.27193  1.0000
  H   H36       1.0  0.41200  0.10958  0.09809  1.0000
  H   H37       1.0  0.36510  0.01235  0.26108  1.0000
  H   H38       1.0  0.42173  0.15000  0.03754  1.0000
  H   H39       1.0  0.15146  0.17044  0.34014  1.0000
  H   H40       1.0  0.04875  0.06636  0.36435  1.0000
  C   C26       1.0  0.05458  0.20803  0.28173  1.0000
  C   C27       1.0  0.07233  0.21568  0.28305  1.0000
  H   H41       1.0  0.19862  0.19529  0.39994  1.0000
  H   H42       1.0  0.05598  0.19630  0.27228  1.0000
  H   H43       1.0  0.42379  0.07914  0.19707  1.0000
  C   C28       1.0  0.17819  0.10806  0.44813  1.0000
  C   C29       1.0  0.15768  0.10542  0.44926  1.0000
  C   C30       1.0  0.15260  0.09655  0.43411  1.0000
  C   C31       1.0  0.16790  0.09079  0.41754  1.0000
  C   C32       1.0  0.18843  0.09341  0.41645  1.0000
  C   C33       1.0  0.19364  0.10166  0.43196  1.0000
  H   H44       1.0  0.13673  0.09443  0.43505  1.0000
  H   H45       1.0  0.20039  0.08866  0.40391  1.0000
  H   H46       1.0  0.20960  0.10342  0.43118  1.0000
  C   C34       1.0  0.13250  0.19116  0.30868  1.0000
  N   N1        1.0  0.31135  0.00490  0.22673  1.0000
  H   H47       1.0  0.32448  0.02293  0.19828  1.0000
  C   C35       1.0  0.28770  0.07133  0.23531  1.0000
  C   C36       1.0  0.29273  0.07804  0.21387  1.0000
  C   C37       1.0  0.28104  0.07383  0.20028  1.0000
  C   C38       1.0  0.26434  0.06296  0.20818  1.0000
  C   C39       1.0  0.25893  0.05712  0.22963  1.0000
  C   C40       1.0  0.27058  0.06121  0.24307  1.0000
  H   H48       1.0  0.30589  0.08594  0.20773  1.0000
  H   H49       1.0  0.28511  0.07875  0.18373  1.0000
  H   H50       1.0  0.24618  0.04867  0.23587  1.0000
  H   H51       1.0  0.26653  0.05610  0.25961  1.0000
  C   C41       1.0  0.39844  0.04290  0.26566  1.0000
  C   C42       1.0  0.38016  0.03749  0.26274  1.0000
  H   H52       1.0  0.25022  0.05013  0.34721  1.0000
  N   N2        1.0  0.12377  0.19022  0.33098  1.0000
  C   C43       1.0  0.10117  0.18988  0.33429  1.0000
  C   C44       1.0  0.41593  0.02751  0.26854  1.0000
  H   H53       1.0  0.36668  0.04938  0.26032  1.0000
  C   C45       1.0  0.25926  0.03980  0.33686  1.0000
  H   H54       1.0  0.43003  0.03163  0.27092  1.0000
  H   H55       1.0  0.14576  0.10992  0.46189  1.0000
  H   H56       1.0  0.37046  0.01494  0.30653  1.0000
  H   H57       1.0  0.29993  0.10864  0.44726  1.0000
  C   C46       1.0  0.34692  0.15585  0.34514  1.0000
  C   C47       1.0  0.36043  0.14920  0.32772  1.0000
  C   C48       1.0  0.35249  0.14570  0.31102  1.0000
  C   C49       1.0  0.33094  0.14941  0.31138  1.0000
  C   C50       1.0  0.31741  0.15578  0.32890  1.0000
  C   C51       1.0  0.32535  0.15873  0.34584  1.0000
  H   H58       1.0  0.37711  0.14699  0.32706  1.0000
  H   H59       1.0  0.36306  0.14092  0.29758  1.0000
  H   H60       1.0  0.30073  0.15879  0.32930  1.0000
  H   H61       1.0  0.31480  0.16393  0.35913  1.0000
  C   C52       1.0  0.25518  0.15110  0.39883  1.0000
  C   C53       1.0  0.24277  0.13588  0.40111  1.0000
  C   C54       1.0  0.23518  0.13287  0.38400  1.0000
  C   C55       1.0  0.23936  0.14564  0.36476  1.0000
  C   C56       1.0  0.25252  0.16016  0.36230  1.0000
  C   C57       1.0  0.26058  0.16275  0.37923  1.0000
  H   H62       1.0  0.23858  0.12677  0.41624  1.0000
  H   H63       1.0  0.22537  0.12134  0.38594  1.0000
  H   H64       1.0  0.25596  0.16999  0.34741  1.0000
  H   H65       1.0  0.27007  0.17457  0.37735  1.0000
  H   H66       1.0  0.19401  0.13964  0.40755  1.0000
  C   C58       1.0  0.44283  0.14194  0.08137  1.0000
  N   N3        1.0  0.34021  0.19727  0.17098  1.0000
  C   C59       1.0  0.42459  0.15273  0.05202  1.0000
  C   C60       1.0  0.41393  0.17058  0.05994  1.0000
  C   C61       1.0  0.41758  0.17408  0.07869  1.0000
  C   C62       1.0  0.43213  0.15980  0.08935  1.0000
  C   C63       1.0  0.33341  0.18172  0.18898  1.0000
  H   H67       1.0  0.40945  0.18794  0.08477  1.0000
  H   H68       1.0  0.43473  0.16241  0.10392  1.0000
  S   S39       1.0  0.46763  0.16823  0.12177  1.0000
  C   C64       1.0  0.40862  0.14110  0.16812  1.0000
  C   C65       1.0  0.39398  0.14356  0.18616  1.0000
  C   C66       1.0  0.39931  0.15102  0.20206  1.0000
  C   C67       1.0  0.41939  0.15542  0.20020  1.0000
  H   H69       1.0  0.40467  0.13530  0.15578  1.0000
  H   H70       1.0  0.38792  0.15359  0.21575  1.0000
  H   H71       1.0  0.42349  0.16096  0.21267  1.0000
  H   H72       1.0  0.46191  0.22122  0.14143  1.0000
  C   C68       1.0  0.03715  0.07869  0.37144  1.0000
  S   S40       1.0  0.18489  0.11932  0.46674  1.0000
  C   C69       1.0  0.09213  0.21390  0.42898  1.0000
  H   H73       1.0  0.45321  0.11052  0.18963  1.0000
  C   C70       1.0  0.05367  0.10573  0.34832  1.0000
  H   H74       1.0  0.20230  0.16970  0.47219  1.0000
  C   C71       1.0  0.29827  0.10422  0.32270  1.0000
  H   H75       1.0  0.35123  0.00313  0.32560  1.0000
  H   H76       1.0  0.46724  0.19418  0.15229  1.0000
  H   H77       1.0  0.40721  0.10101  0.12570  1.0000
  Fe  Fe23      1.0  0.99268  0.14040  0.31206  1.0000
  C   C72       1.0  0.47357  0.20890  0.14873  1.0000
  H   H78       1.0  0.34552  0.03306  0.35615  1.0000
  H   H79       1.0  0.22590  0.14490  0.45213  1.0000
  C   C73       1.0  0.10541  0.20626  0.44367  1.0000
  H   H80       1.0  0.36612  0.20441  0.44371  1.0000
  H   H81       1.0  0.32503  0.02442  0.34840  1.0000
  C   C74       1.0  0.37925  0.01657  0.26319  1.0000
  H   H82       1.0  0.28900  0.02482  0.07273  1.0000
  N   N4        1.0  0.38115  0.12113  0.11336  1.0000
  C   C75       1.0  0.37184  0.10348  0.11150  1.0000
  H   H83       1.0  0.25943  0.16166  0.46832  1.0000
  C   C76       1.0  0.37129  0.12852  0.13307  1.0000
  C   C77       1.0  0.37761  0.13820  0.09575  1.0000
  H   H84       1.0  0.37392  0.09040  0.12468  1.0000
  H   H85       1.0  0.37900  0.09741  0.09688  1.0000
  H   H86       1.0  0.35476  0.10819  0.11141  1.0000
  H   H87       1.0  0.36057  0.17423  0.15455  1.0000
  S   S41       1.0  0.30937  0.99273  0.33797  1.0000
  H   H88       1.0  0.32277  0.05590  0.30836  1.0000
  H   H89       1.0  0.37285  0.18488  0.17040  1.0000
  Fe  Fe24      1.0  0.32490  0.22666  0.06637  1.0000
  H   H90       1.0  0.37456  0.11645  0.14678  1.0000
  H   H91       1.0  0.26732  0.06604  0.08689  1.0000
  H   H92       1.0  0.36068  0.14421  0.09580  1.0000
  H   H93       1.0  0.38441  0.13311  0.08057  1.0000
  N   N5        1.0  0.44265  0.08777  0.21536  1.0000
  C   C78       1.0  0.43999  0.10155  0.23074  1.0000
  C   C79       1.0  0.44992  0.06605  0.22482  1.0000
  C   C80       1.0  0.45820  0.09423  0.19716  1.0000
  C   C81       1.0  0.42244  0.08924  0.20875  1.0000
  H   H94       1.0  0.14404  0.20928  0.33603  1.0000
  H   H95       1.0  0.08126  0.22062  0.03336  1.0000
  H   H96       1.0  0.43857  0.06075  0.23865  1.0000
  H   H97       1.0  0.28311  0.00479  0.21590  1.0000
  S   S42       1.0  0.26481  0.98702  0.12087  1.0000
  C   C82       1.0  0.20050  0.17892  0.39762  1.0000
  C   C83       1.0  0.36083  0.01562  0.32216  1.0000
  H   H98       1.0  0.30912  0.20847  0.16433  1.0000
  H   H99       1.0  0.28457  0.01822  0.24682  1.0000
  H   H100      1.0  0.32611  0.22345  0.18623  1.0000
  H   H101      1.0  0.32234  0.03406  0.22102  1.0000
  H   H102      1.0  0.43461  0.11806  0.22408  1.0000
  C   C84       1.0  0.12715  0.20869  0.33795  1.0000
  H   H103      1.0  0.37205  0.04945  0.32937  1.0000
  Fe  Fe25      1.0  0.99769  0.14555  0.26492  1.0000
  H   H104      1.0  0.12035  0.20887  0.35461  1.0000
  H   H105      1.0  0.09407  0.18897  0.35097  1.0000
  H   H106      1.0  0.09270  0.20417  0.32572  1.0000
  H   H107      1.0  0.12489  0.20533  0.29914  1.0000
  N   N6        1.0  0.26161  0.04737  0.06669  1.0000
  C   C85       1.0  0.27178  0.02756  0.07784  1.0000
  C   C86       1.0  0.27028  0.06477  0.07017  1.0000
  C   C87       1.0  0.23891  0.05046  0.07450  1.0000
  C   C88       1.0  0.26551  0.04665  0.04427  1.0000
  H   H108      1.0  0.26577  0.01400  0.07549  1.0000
  H   H109      1.0  0.26884  0.02744  0.09482  1.0000
  H   H110      1.0  0.29964  0.03465  0.21025  1.0000
  C   C89       1.0  0.31464  0.02501  0.21353  1.0000
  C   C90       1.0  0.09954  0.22456  0.40926  1.0000
  H   H111      1.0  0.02349  0.10779  0.32683  1.0000
  H   H112      1.0  0.23072  0.06539  0.06661  1.0000
  H   H113      1.0  0.23547  0.05083  0.09147  1.0000
  H   H114      1.0  0.23182  0.03766  0.07199  1.0000
  H   H115      1.0  0.25801  0.06135  0.03536  1.0000
  H   H116      1.0  0.25920  0.03363  0.04112  1.0000
  H   H117      1.0  0.28252  0.04436  0.03792  1.0000
  N   N7        1.0  0.03375  0.09800  0.35616  1.0000
  C   C91       1.0  0.01824  0.11394  0.36611  1.0000
  S   S43       1.0  0.09610  0.19220  0.46801  1.0000
  C   C92       1.0  0.29879  0.10043  0.46308  1.0000
  H   H118      1.0  0.02239  0.07244  0.37756  1.0000
  C   C93       1.0  0.33183  0.99136  0.22829  1.0000
  H   H119      1.0  0.08925  0.23016  0.39798  1.0000
  H   H120      1.0  0.46514  0.06435  0.23000  1.0000
  H   H121      1.0  0.10631  0.22523  0.01920  1.0000
  C   C94       1.0  0.03493  0.21630  0.29183  1.0000
  H   H122      1.0  0.14906  0.22376  0.41559  1.0000
  C   C95       1.0  0.31632  0.09524  0.47284  1.0000
  C   C96       1.0  0.41524  0.00675  0.26832  1.0000
  C   C97       1.0  0.12025  0.22768  0.40419  1.0000
  C   C98       1.0  0.27973  0.09495  0.47378  1.0000
  H   H123      1.0  0.06020  0.10912  0.36102  1.0000
  H   H124      1.0  0.11982  0.22331  0.32883  1.0000
  H   H125      1.0  0.47360  0.09350  0.20159  1.0000
  H   H126      1.0  0.41117  0.12715  0.11524  1.0000
  C   C99       1.0  0.48546  0.23421  0.16241  1.0000
  H   H127      1.0  0.48866  0.18231  0.18031  1.0000
  H   H128      1.0  0.34682  0.22837  0.16497  1.0000
  H   H129      1.0  0.20865  0.17812  0.38141  1.0000
  H   H130      1.0  0.05167  0.12028  0.33668  1.0000
  N   N8        1.0  0.34756  0.03628  0.32315  1.0000
  C   C100      1.0  0.33524  0.03642  0.34424  1.0000
  N   N9        1.0  0.47780  0.21419  0.16765  1.0000
  H   H131      1.0  0.08741  0.20962  0.27474  1.0000
  C   C101      1.0  0.22818  0.99826  0.10361  1.0000
  H   H132      1.0  0.15468  0.16796  0.42703  1.0000
  C   C102      1.0  0.45835  0.21590  0.18307  1.0000
  H   H133      1.0  0.26331  0.08000  0.06174  1.0000
  H   H134      1.0  0.42820  0.09723  0.24461  1.0000
  H   H135      1.0  0.32500  0.05172  0.34561  1.0000
  H   H136      1.0  0.28751  0.06274  0.06501  1.0000
  H   H137      1.0  0.22716  0.01368  0.10681  1.0000
  H   H138      1.0  0.15057  0.18170  0.39126  1.0000
  H   H139      1.0  0.29097  0.00153  0.30046  1.0000
  H   H140      1.0  0.45189  0.05517  0.21372  1.0000
  H   H141      1.0  0.16880  0.18797  0.42754  1.0000
  H   H142      1.0  0.37028  0.05285  0.30250  1.0000
  C   C103      1.0  0.17780  0.09759  0.26874  1.0000
  H   H143      1.0  0.18421  0.07787  0.23608  1.0000
  H   H144      1.0  0.16384  0.09135  0.26779  1.0000
  H   H145      1.0  0.17609  0.11395  0.26034  1.0000
  C   C104      1.0  0.32500  0.20219  0.15663  1.0000
  H   H146      1.0  0.32332  0.02855  0.31082  1.0000
  H   H147      1.0  0.33184  0.16727  0.18400  1.0000
  H   H148      1.0  0.01521  0.12870  0.35495  1.0000
  C   C105      1.0  0.28237  0.01225  0.31058  1.0000
  H   H149      1.0  0.16850  0.14430  0.40091  1.0000
  H   H150      1.0  0.34487  0.17709  0.19985  1.0000
  C   C106      1.0  0.19758  0.08443  0.23807  1.0000
  H   H151      1.0  0.44692  0.12441  0.05677  1.0000
  C   C107      1.0  0.13427  0.17114  0.34295  1.0000
  H   H152      1.0  0.12850  0.17022  0.35990  1.0000
  H   H153      1.0  0.13019  0.17753  0.30287  1.0000
  H   H154      1.0  0.32955  0.21402  0.14298  1.0000
  S   S44       1.0  0.46051  0.12351  0.09475  1.0000
  H   H155      1.0  0.45228  0.20095  0.18735  1.0000
  N   N10       1.0  0.19740  0.08472  0.26015  1.0000
  C   C108      1.0  0.27626  0.02490  0.34303  1.0000
  S   S45       1.0  0.33930  0.10470  0.46087  1.0000
  H   H156      1.0  0.24700  0.10192  0.32917  1.0000
  C   C109      1.0  0.02592  0.09361  0.33868  1.0000
  H   H157      1.0  0.13146  0.15693  0.33847  1.0000
  C   C110      1.0  0.21539  0.09359  0.26192  1.0000
  H   H158      1.0  0.21464  0.10992  0.25357  1.0000
  H   H159      1.0  0.02355  0.11770  0.37939  1.0000
  H   H160      1.0  0.21607  0.09351  0.27838  1.0000
  S   S46       1.0  0.45992  0.15578  0.18134  1.0000
  C   C111      1.0  0.26252  0.09968  0.33376  1.0000
  H   H161      1.0  0.26702  0.08286  0.33992  1.0000
  H   H162      1.0  0.26072  0.10848  0.34665  1.0000
  C   C112      1.0  0.28780  0.01097  0.32997  1.0000
  H   H163      1.0  0.26474  0.09624  0.29412  1.0000
  H   H164      1.0  0.25506  0.13205  0.30399  1.0000
  H   H165      1.0  0.23042  0.08442  0.25542  1.0000
  C   C113      1.0  0.36094  0.18876  0.16006  1.0000
  H   H166      1.0  0.44019  0.14261  0.15267  1.0000
  N   N11       1.0  0.27795  0.10693  0.31593  1.0000
  C   C114      1.0  0.27992  0.09467  0.29936  1.0000
  H   H167      1.0  0.28517  0.07777  0.30464  1.0000
  C   C115      1.0  0.09685  0.22295  0.03508  1.0000
  H   H168      1.0  0.46082  0.22002  0.19755  1.0000
  C   C116      1.0  0.18342  0.15037  0.39761  1.0000
  C   C117      1.0  0.37500  0.22421  0.46113  1.0000
  C   C118      1.0  0.27095  0.12919  0.30802  1.0000
  H   H169      1.0  0.27034  0.13908  0.31974  1.0000
  H   H170      1.0  0.37168  0.01168  0.33357  1.0000
  H   H171      1.0  0.31040  0.10911  0.30957  1.0000
  H   H172      1.0  0.28166  0.13494  0.29387  1.0000
  H   H173      1.0  0.35279  0.21313  0.18912  1.0000
  N   N12       1.0  0.18019  0.17184  0.40166  1.0000
  S   S47       1.0  0.32187  0.20231  0.46066  1.0000
  C   C119      1.0  0.12593  0.20988  0.43877  1.0000
  H   H174      1.0  0.42347  0.22681  0.12977  1.0000
  H   H175      1.0  0.30372  0.08776  0.32935  1.0000
  H   H176      1.0  0.13599  0.20480  0.45027  1.0000
  H   H177      1.0  0.38502  0.15147  0.09629  1.0000
  H   H178      1.0  0.41640  0.10543  0.20173  1.0000
  Fe  Fe26      1.0  0.47980  0.15127  0.15050  1.0000
  C   C120      1.0  0.36099  0.21367  0.45592  1.0000
  C   C121      1.0  0.40383  0.11438  0.11311  1.0000
  C   C122      1.0  0.17049  0.17226  0.42358  1.0000
  H   H179      1.0  0.20052  0.00638  0.08932  1.0000
  H   H180      1.0  0.19067  0.14937  0.38120  1.0000
  H   H181      1.0  0.45487  0.10077  0.23621  1.0000
  H   H182      1.0  0.06560  0.09421  0.34039  1.0000
  H   H183      1.0  0.34202  0.04084  0.29181  1.0000
  C   C123      1.0  0.34034  0.21531  0.46636  1.0000
  H   H184      1.0  0.35145  0.06820  0.31909  1.0000
  H   H185      1.0  0.37694  0.14265  0.13440  1.0000
  C   C124      1.0  0.23323  0.13696  0.46588  1.0000
  H   H186      1.0  0.16463  0.20228  0.38960  1.0000
  S   S48       1.0  0.33752  0.99818  0.16751  1.0000
  H   H187      1.0  0.44584  0.22806  0.17688  1.0000
  H   H188      1.0  0.31804  0.18777  0.19787  1.0000
  H   H189      1.0  0.07614  0.21138  0.43277  1.0000
  H   H190      1.0  0.26641  0.09836  0.46602  1.0000
  C   C125      1.0  0.24250  0.16786  0.47228  1.0000
  C   C126      1.0  0.21298  0.99402  0.09382  1.0000
  C   C127      1.0  0.30024  0.00847  0.24757  1.0000
  H   H191      1.0  0.04307  0.08140  0.38486  1.0000
  H   H192      1.0  0.22622  0.12280  0.47267  1.0000
  H   H193      1.0  0.39088  0.22287  0.45285  1.0000
  H   H194      1.0  0.36644  0.20013  0.14635  1.0000
  H   H195      1.0  0.30639  0.99197  0.20172  1.0000
  H   H196      1.0  0.10451  0.20832  0.04391  1.0000
  H   H197      1.0  0.25002  0.13180  0.46001  1.0000
  C   C128      1.0  0.29861  0.99484  0.21745  1.0000
  H   H198      1.0  0.34916  0.98845  0.12562  1.0000
  H   H199      1.0  0.42886  0.99489  0.27039  1.0000
  S   S49       1.0  0.48921  0.12048  0.13990  1.0000
  H   H200      1.0  0.29779  0.99354  0.25805  1.0000
  H   H201      1.0  0.12425  0.22972  0.05666  1.0000
  H   H202      1.0  0.34045  0.98836  0.21276  1.0000
  H   H203      1.0  0.20001  0.07012  0.47723  1.0000
  C   C129      1.0  0.07057  0.23131  0.29479  1.0000
  H   H204      1.0  0.48798  0.20689  0.13696  1.0000
  H   H205      1.0  0.45815  0.23347  0.09010  1.0000
  Fe  Fe27      1.0  0.12256  0.13768  0.52271  1.0000
  S   S50       1.0  0.11759  0.17229  0.51984  1.0000
  S   S51       1.0  0.10285  0.11824  0.54724  1.0000
  H   H206      1.0  0.04089  0.13484  0.73802  1.0000
  H   H207      1.0  0.06812  0.02311  0.71527  1.0000
  Fe  Fe28      1.0  0.15246  0.16790  0.51400  1.0000
  S   S52       1.0  0.17008  0.18333  0.52963  1.0000
  H   H208      1.0  0.01060  0.03696  0.73125  1.0000
  C   C130      1.0  0.15675  0.10041  0.59778  1.0000
  S   S53       1.0  0.15717  0.13319  0.51975  1.0000
  H   H209      1.0  0.17043  0.07816  0.64472  1.0000
  Fe  Fe29      1.0  0.08337  0.11600  0.66471  1.0000
  S   S54       1.0  0.07548  0.08534  0.66324  1.0000
  S   S55       1.0  0.09028  0.14080  0.63694  1.0000
  Fe  Fe30      1.0  0.08543  0.10412  0.71094  1.0000
  S   S56       1.0  0.07905  0.07211  0.71275  1.0000
  S   S57       1.0  0.08704  0.11265  0.74122  1.0000
  Fe  Fe31      1.0  0.10064  0.07206  0.68240  1.0000
  S   S58       1.0  0.12610  0.04572  0.67431  1.0000
  Fe  Fe32      1.0  0.05445  0.08870  0.69388  1.0000
  S   S59       1.0  0.10974  0.10251  0.68237  1.0000
  S   S60       1.0  0.05979  0.12082  0.69346  1.0000
  Fe  Fe33      1.0  0.04384  0.18691  0.89552  1.0000
  S   S61       1.0  0.07193  0.17558  0.87333  1.0000
  S   S62       1.0  0.01234  0.18775  0.88730  1.0000
  Fe  Fe34      1.0  0.07011  0.20089  0.92207  1.0000
  S   S63       1.0  0.10007  0.18923  0.90206  1.0000
  H   H210      1.0  0.00265  0.15314  0.78254  1.0000
  Fe  Fe35      1.0  0.08350  0.20408  0.87532  1.0000
  H   H211      1.0  0.34993  0.11822  0.52233  1.0000
  Fe  Fe36      1.0  0.08539  0.16156  0.90219  1.0000
  S   S64       1.0  0.10358  0.12880  0.90306  1.0000
  S   S65       1.0  0.05426  0.21688  0.89495  1.0000
  S   S66       1.0  0.05651  0.17169  0.92472  1.0000
  Fe  Fe37      1.0  0.12133  0.02390  0.81636  1.0000
  S   S67       1.0  0.08647  0.03238  0.82092  1.0000
  S   S68       1.0  0.14125  0.03356  0.78612  1.0000
  H   H212      1.0  0.33857  0.04337  0.59628  1.0000
  S   S69       1.0  0.08730  0.00747  0.86830  1.0000
  H   H213      1.0  0.30567  0.12873  0.49318  1.0000
  C   C131      1.0  0.00208  0.03632  0.84805  1.0000
  Fe  Fe38      1.0  0.08981  0.03981  0.85124  1.0000
  S   S70       1.0  0.06908  0.06885  0.86114  1.0000
  H   H214      1.0  0.23625  0.14886  0.51205  1.0000
  S   S71       1.0  0.12474  0.03367  0.84534  1.0000
  Fe  Fe39      1.0  0.28266  0.07524  0.57329  1.0000
  S   S72       1.0  0.27674  0.05051  0.55789  1.0000
  S   S73       1.0  0.31639  0.07924  0.56999  1.0000
  Fe  Fe40      1.0  0.23633  0.09278  0.58251  1.0000
  S   S74       1.0  0.22654  0.07032  0.56734  1.0000
  S   S75       1.0  0.21295  0.11715  0.59728  1.0000
  Fe  Fe41      1.0  0.24964  0.04664  0.58372  1.0000
  Fe  Fe42      1.0  0.25428  0.07616  0.54286  1.0000
  S   S76       1.0  0.25315  0.08216  0.50888  1.0000
  S   S77       1.0  0.25764  0.06884  0.60089  1.0000
  S   S78       1.0  0.26179  0.10111  0.55633  1.0000
  Fe  Fe43      1.0  0.43232  0.11633  0.63856  1.0000
  S   S79       1.0  0.42074  0.10521  0.61406  1.0000
  S   S80       1.0  0.45894  0.09730  0.65458  1.0000
  Fe  Fe44      1.0  0.40263  0.15748  0.63390  1.0000
  S   S81       1.0  0.38861  0.15055  0.60894  1.0000
  S   S82       1.0  0.39407  0.18727  0.64660  1.0000
  Fe  Fe45      1.0  0.38839  0.11882  0.62840  1.0000
  S   S83       1.0  0.35894  0.10461  0.63577  1.0000
  Fe  Fe46      1.0  0.42163  0.13763  0.59642  1.0000
  S   S84       1.0  0.43338  0.14257  0.56209  1.0000
  S   S85       1.0  0.39987  0.12686  0.65474  1.0000
  S   S86       1.0  0.43574  0.14757  0.61964  1.0000
  S   S87       1.0  0.15534  0.17180  0.47951  1.0000
  S   S88       1.0  0.24213  0.01548  0.60087  1.0000
  H   H215      1.0  0.30498  0.23342  0.93843  1.0000
  C   C132      1.0  0.02564  0.07462  0.74451  1.0000
  H   H216      1.0  0.34149  0.11265  0.50061  1.0000
  C   C133      1.0  0.01115  0.06188  0.86381  1.0000
  N   N13       1.0  0.05482  0.16791  0.52881  1.0000
  C   C134      1.0  0.46638  0.18801  0.55883  1.0000
  C   C135      1.0  0.32820  0.15300  0.50250  1.0000
  H   H217      1.0  0.41562  0.13955  0.72604  1.0000
  C   C136      1.0  0.45270  0.17373  0.56616  1.0000
  H   H218      1.0  0.46845  0.19786  0.56890  1.0000
  H   H219      1.0  0.44404  0.17293  0.58170  1.0000
  C   C137      1.0  0.47182  0.10770  0.66971  1.0000
  H   H220      1.0  0.46367  0.13962  0.65541  1.0000
  N   N14       1.0  0.41923  0.16572  0.70155  1.0000
  C   C138      1.0  0.31812  0.00200  0.62581  1.0000
  C   C139      1.0  0.00187  0.23329  0.91916  1.0000
  H   H221      1.0  0.18757  0.04830  0.48995  1.0000
  H   H222      1.0  0.99846  0.11106  0.77486  1.0000
  H   H223      1.0  0.48329  0.07759  0.68645  1.0000
  H   H224      1.0  0.03588  0.04359  0.81973  1.0000
  H   H225      1.0  0.04770  0.03601  0.86321  1.0000
  C   C140      1.0  0.32723  0.08815  0.58788  1.0000
  C   C141      1.0  0.34805  0.09128  0.58256  1.0000
  C   C142      1.0  0.35776  0.09705  0.59680  1.0000
  C   C143      1.0  0.34682  0.09933  0.61667  1.0000
  C   C144      1.0  0.32594  0.09639  0.62190  1.0000
  C   C145      1.0  0.31607  0.09112  0.60749  1.0000
  H   H226      1.0  0.35685  0.08892  0.56746  1.0000
  H   H227      1.0  0.37388  0.09912  0.59266  1.0000
  H   H228      1.0  0.31735  0.09825  0.63720  1.0000
  H   H229      1.0  0.29993  0.08915  0.61170  1.0000
  H   H230      1.0  0.04900  0.20130  0.52599  1.0000
  H   H231      1.0  0.07841  0.16514  0.54740  1.0000
  H   H232      1.0  0.48451  0.12707  0.62224  1.0000
  H   H233      1.0  0.20741  0.08449  0.52554  1.0000
  N   N15       1.0  0.23046  0.15088  0.48113  1.0000
  H   H234      1.0  0.05971  0.14848  0.55805  1.0000
  H   H235      1.0  0.28602  0.03371  0.62417  1.0000
  H   H236      1.0  0.04205  0.07443  0.73925  1.0000
  C   C146      1.0  0.18417  0.05512  0.52898  1.0000
  C   C147      1.0  0.09322  0.11137  0.89310  1.0000
  C   C148      1.0  0.07298  0.11641  0.88853  1.0000
  C   C149      1.0  0.06553  0.10286  0.87941  1.0000
  C   C150      1.0  0.07835  0.08437  0.87444  1.0000
  C   C151      1.0  0.09848  0.07915  0.87930  1.0000
  C   C152      1.0  0.10582  0.09256  0.88873  1.0000
  H   H237      1.0  0.06302  0.13072  0.89207  1.0000
  H   H238      1.0  0.04984  0.10691  0.87593  1.0000
  H   H239      1.0  0.10844  0.06488  0.87571  1.0000
  H   H240      1.0  0.12146  0.08853  0.89231  1.0000
  C   C153      1.0  0.00665  0.16425  0.88358  1.0000
  H   H241      1.0  0.45852  0.15297  0.52255  1.0000
  H   H242      1.0  0.01864  0.06782  0.82238  1.0000
  C   C154      1.0  0.33604  0.11638  0.51652  1.0000
  C   C155      1.0  0.37811  0.22442  0.59403  1.0000
  C   C156      1.0  0.10320  0.09163  0.75373  1.0000
  C   C157      1.0  0.10065  0.08740  0.77540  1.0000
  C   C158      1.0  0.11271  0.06979  0.78538  1.0000
  C   C159      1.0  0.12742  0.05650  0.77369  1.0000
  C   C160      1.0  0.13036  0.06106  0.75204  1.0000
  C   C161      1.0  0.11812  0.07850  0.74207  1.0000
  H   H243      1.0  0.08887  0.09730  0.78442  1.0000
  H   H244      1.0  0.11052  0.06642  0.80213  1.0000
  H   H245      1.0  0.14165  0.05080  0.74295  1.0000
  H   H246      1.0  0.12017  0.08169  0.72533  1.0000
  H   H247      1.0  0.20861  0.01968  0.79794  1.0000
  C   C162      1.0  0.11707  0.02692  0.66541  1.0000
  C   C163      1.0  0.09580  0.02591  0.66919  1.0000
  C   C164      1.0  0.08890  0.01045  0.66231  1.0000
  C   C165      1.0  0.01816  0.06991  0.76580  1.0000
  H   H248      1.0  0.00760  0.02477  0.83737  1.0000
  C   C166      1.0  0.13134  0.01275  0.65447  1.0000
  H   H249      1.0  0.08476  0.03704  0.67740  1.0000
  C   C167      1.0  0.38711  0.20760  0.60776  1.0000
  H   H250      1.0  0.14778  0.01362  0.65137  1.0000
  H   H251      1.0  0.41624  0.19485  0.68044  1.0000
  H   H252      1.0  0.14315  0.11137  0.59219  1.0000
  H   H253      1.0  0.03479  0.11147  0.75466  1.0000
  C   C168      1.0  0.09976  0.12428  0.57220  1.0000
  C   C169      1.0  0.08799  0.11313  0.58898  1.0000
  C   C170      1.0  0.08491  0.11812  0.60892  1.0000
  C   C171      1.0  0.09351  0.13437  0.61212  1.0000
  C   C172      1.0  0.10518  0.14558  0.59528  1.0000
  C   C173      1.0  0.10847  0.14044  0.57541  1.0000
  H   H254      1.0  0.08117  0.10065  0.58659  1.0000
  H   H255      1.0  0.07564  0.10959  0.62172  1.0000
  H   H256      1.0  0.11191  0.15814  0.59767  1.0000
  H   H257      1.0  0.11775  0.14902  0.56263  1.0000
  C   C174      1.0  0.18232  0.16501  0.54829  1.0000
  C   C175      1.0  0.19315  0.14569  0.54364  1.0000
  C   C176      1.0  0.20294  0.13112  0.55854  1.0000
  C   C177      1.0  0.20149  0.13564  0.57833  1.0000
  C   C178      1.0  0.19056  0.15487  0.58309  1.0000
  C   C179      1.0  0.18126  0.16967  0.56796  1.0000
  H   H258      1.0  0.19420  0.14202  0.52852  1.0000
  H   H259      1.0  0.21138  0.11631  0.55479  1.0000
  H   H260      1.0  0.18947  0.15841  0.59838  1.0000
  H   H261      1.0  0.17293  0.18459  0.57163  1.0000
  H   H262      1.0  0.42987  0.16061  0.67010  1.0000
  C   C180      1.0  0.27784  0.08552  0.49463  1.0000
  C   C181      1.0  0.29546  0.07996  0.50424  1.0000
  C   C182      1.0  0.02970  0.05525  0.83022  1.0000
  H   H263      1.0  0.43928  0.17604  0.71732  1.0000
  H   H264      1.0  0.29427  0.07249  0.52023  1.0000
  C   C183      1.0  0.46053  0.16285  0.53267  1.0000
  H   H265      1.0  0.04143  0.01709  0.85097  1.0000
  H   H266      1.0  0.99700  0.15282  0.72855  1.0000
  H   H267      1.0  0.48217  0.15336  0.67687  1.0000
  C   C184      1.0  0.38235  0.20758  0.62918  1.0000
  H   H268      1.0  0.13767  0.12731  0.62354  1.0000
  H   H269      1.0  0.47042  0.23299  0.59190  1.0000
  C   C185      1.0  0.20814  0.15985  0.48610  1.0000
  H   H270      1.0  0.28882  0.14569  0.50953  1.0000
  C   C186      1.0  0.99684  0.07022  0.77300  1.0000
  H   H271      1.0  0.04373  0.99335  0.70643  1.0000
  N   N16       1.0  0.01939  0.04570  0.85069  1.0000
  H   H272      1.0  0.00887  0.11323  0.90587  1.0000
  H   H273      1.0  0.20284  0.00518  0.54988  1.0000
  C   C187      1.0  0.11959  0.22719  0.96436  1.0000
  C   C188      1.0  0.31244  0.01976  0.59159  1.0000
  Fe  Fe47      1.0  0.08710  0.99946  0.83725  1.0000
  H   H274      1.0  0.07247  0.00959  0.66532  1.0000
  C   C189      1.0  0.23795  0.13885  0.50019  1.0000
  H   H275      1.0  0.19047  0.05422  0.54341  1.0000
  C   C190      1.0  0.47709  0.11231  0.59099  1.0000
  H   H276      1.0  0.00305  0.05549  0.87937  1.0000
  N   N17       1.0  0.19114  0.99490  0.81074  1.0000
  H   H277      1.0  0.39788  0.19480  0.60177  1.0000
  H   H278      1.0  0.44864  0.21268  0.61801  1.0000
  H   H279      1.0  0.46474  0.12542  0.58623  1.0000
  C   C191      1.0  0.08499  0.23161  0.95545  1.0000
  C   C192      1.0  0.02811  0.12568  0.74448  1.0000
  N   N18       1.0  0.15388  0.09625  0.62067  1.0000
  C   C193      1.0  0.13503  0.08682  0.62918  1.0000
  C   C194      1.0  0.17225  0.08176  0.62749  1.0000
  H   H280      1.0  0.16547  0.12359  0.62211  1.0000
  H   H281      1.0  0.15853  0.08586  0.59146  1.0000
  H   H282      1.0  0.12080  0.09733  0.62460  1.0000
  H   H283      1.0  0.13250  0.08347  0.64639  1.0000
  H   H284      1.0  0.13623  0.07181  0.62385  1.0000
  H   H285      1.0  0.18678  0.08842  0.62156  1.0000
  H   H286      1.0  0.17461  0.06671  0.62188  1.0000
  C   C195      1.0  0.33839  0.02836  0.60730  1.0000
  H   H287      1.0  0.06184  0.98677  0.72432  1.0000
  H   H288      1.0  0.04679  0.04414  0.71905  1.0000
  C   C196      1.0  0.03465  0.02936  0.86069  1.0000
  C   C197      1.0  0.47701  0.18983  0.53835  1.0000
  H   H289      1.0  0.21009  0.00171  0.78080  1.0000
  H   H290      1.0  0.31810  0.22897  0.49032  1.0000
  H   H291      1.0  0.99444  0.02834  0.86311  1.0000
  Fe  Fe48      1.0  0.12076  0.17252  0.48575  1.0000
  C   C198      1.0  0.21484  0.98838  0.60576  1.0000
  C   C199      1.0  0.06162  0.16426  0.54917  1.0000
  C   C200      1.0  0.22412  0.00434  0.59234  1.0000
  S   S89       1.0  0.06610  0.22360  0.94476  1.0000
  H   H292      1.0  0.24057  0.17885  0.48326  1.0000
  N   N19       1.0  0.39694  0.18878  0.52317  1.0000
  H   H293      1.0  0.08401  0.15248  0.51412  1.0000
  C   C201      1.0  0.41224  0.20090  0.50942  1.0000
  H   H294      1.0  0.22617  0.04871  0.52306  1.0000
  C   C202      1.0  0.19959  0.00984  0.79301  1.0000
  H   H295      1.0  0.44917  0.15107  0.70976  1.0000
  S   S90       1.0  0.02143  0.08259  0.70336  1.0000
  H   H296      1.0  0.16446  0.01750  0.81986  1.0000
  H   H297      1.0  0.19847  0.14745  0.49183  1.0000
  C   C203      1.0  0.31352  0.13987  0.53793  1.0000
  H   H298      1.0  0.41893  0.16012  0.52384  1.0000
  H   H299      1.0  0.99977  0.07452  0.85653  1.0000
  H   H300      1.0  0.99347  0.23170  0.93546  1.0000
  S   S91       1.0  0.12347  0.13796  0.48894  1.0000
  C   C204      1.0  0.99471  0.16471  0.86842  1.0000
  H   H301      1.0  0.41219  0.20101  0.49275  1.0000
  H   H302      1.0  0.42962  0.13721  0.68918  1.0000
  C   C205      1.0  0.40297  0.16678  0.52043  1.0000
  H   H303      1.0  0.06520  0.13595  0.52481  1.0000
  H   H304      1.0  0.13546  0.98727  0.63821  1.0000
  Fe  Fe49      1.0  0.12215  0.00052  0.85971  1.0000
  H   H305      1.0  0.21780  0.03318  0.50845  1.0000
  C   C206      1.0  0.40748  0.15564  0.72094  1.0000
  H   H306      1.0  0.32184  0.00324  0.64094  1.0000
  C   C207      1.0  0.01228  0.14547  0.89662  1.0000
  H   H307      1.0  0.21145  0.09088  0.49776  1.0000
  H   H308      1.0  0.02894  0.06596  0.77668  1.0000
  H   H309      1.0  0.37125  0.21396  0.51915  1.0000
  N   N20       1.0  0.09610  0.13608  0.82319  1.0000
  C   C208      1.0  0.09408  0.15884  0.81625  1.0000
  C   C209      1.0  0.10697  0.12526  0.80574  1.0000
  C   C210      1.0  0.07513  0.13050  0.83046  1.0000
  C   C211      1.0  0.10822  0.12968  0.84035  1.0000
  H   H310      1.0  0.08577  0.16744  0.82903  1.0000
  H   H311      1.0  0.08517  0.16423  0.80318  1.0000
  H   H312      1.0  0.10962  0.16364  0.81093  1.0000
  H   H313      1.0  0.10873  0.10804  0.81051  1.0000
  H   H314      1.0  0.09829  0.12969  0.79246  1.0000
  H   H315      1.0  0.12289  0.12903  0.79986  1.0000
  H   H316      1.0  0.07609  0.11336  0.83540  1.0000
  H   H317      1.0  0.06536  0.13547  0.81808  1.0000
  H   H318      1.0  0.06668  0.13792  0.84403  1.0000
  H   H319      1.0  0.10987  0.11263  0.84612  1.0000
  H   H320      1.0  0.10054  0.13760  0.85378  1.0000
  H   H321      1.0  0.12419  0.13351  0.83550  1.0000
  N   N21       1.0  0.31771  0.02204  0.61132  1.0000
  H   H322      1.0  0.00614  0.01062  0.73721  1.0000
  N   N22       1.0  0.19839  0.06317  0.51035  1.0000
  H   H323      1.0  0.03521  0.02789  0.75561  1.0000
  H   H324      1.0  0.39224  0.15697  0.53106  1.0000
  H   H325      1.0  0.32698  0.14241  0.54398  1.0000
  H   H326      1.0  0.30272  0.99681  0.62899  1.0000
  H   H327      1.0  0.02953  0.15097  0.54057  1.0000
  H   H328      1.0  0.34199  0.15623  0.50742  1.0000
  H   H329      1.0  0.02146  0.14495  0.90839  1.0000
  H   H330      1.0  0.42837  0.19457  0.51252  1.0000
  H   H331      1.0  0.30551  0.04078  0.63518  1.0000
  C   C212      1.0  0.03247  0.16657  0.53201  1.0000
  H   H332      1.0  0.31270  0.03445  0.58010  1.0000
  H   H333      1.0  0.25466  0.13149  0.49680  1.0000
  H   H334      1.0  0.39161  0.15448  0.71884  1.0000
  C   C213      1.0  0.00189  0.15682  0.74197  1.0000
  C   C214      1.0  0.37598  0.19719  0.51780  1.0000
  H   H335      1.0  0.37555  0.19600  0.50154  1.0000
  H   H336      1.0  0.29508  0.11826  0.51925  1.0000
  H   H337      1.0  0.40610  0.19682  0.70721  1.0000
  H   H338      1.0  0.10335  0.23275  0.91172  1.0000
  H   H339      1.0  0.00774  0.23091  0.87909  1.0000
  C   C215      1.0  0.21898  0.04936  0.50925  1.0000
  H   H340      1.0  0.16853  0.06528  0.53042  1.0000
  H   H341      1.0  0.02271  0.17839  0.54117  1.0000
  H   H342      1.0  0.07478  0.19037  0.51467  1.0000
  C   C216      1.0  0.10535  0.22050  0.95526  1.0000
  H   H343      1.0  0.18682  0.02053  0.78563  1.0000
  H   H344      1.0  0.33007  0.10259  0.52657  1.0000
  H   H345      1.0  0.39205  0.18664  0.69242  1.0000
  C   C217      1.0  0.17739  0.00644  0.82651  1.0000
  H   H346      1.0  0.20527  0.16984  0.49819  1.0000
  H   H347      1.0  0.05347  0.19191  0.50178  1.0000
  C   C218      1.0  0.39655  0.19033  0.54497  1.0000
  C   C219      1.0  0.18964  0.06396  0.49153  1.0000
  H   H348      1.0  0.14923  0.11355  0.64553  1.0000
  C   C220      1.0  0.31482  0.08425  0.49316  1.0000
  C   C221      1.0  0.06711  0.15195  0.51665  1.0000
  H   H349      1.0  0.02194  0.12987  0.78453  1.0000
  C   C222      1.0  0.01198  0.07902  0.73022  1.0000
  H   H350      1.0  0.31631  0.16755  0.50181  1.0000
  H   H351      1.0  0.40565  0.15246  0.68210  1.0000
  C   C223      1.0  0.48291  0.09418  0.68441  1.0000
  H   H352      1.0  0.05781  0.00806  0.75205  1.0000
  H   H353      1.0  0.41234  0.18537  0.54921  1.0000
  C   C224      1.0  0.04111  0.01262  0.75034  1.0000
  H   H354      1.0  0.00875  0.21728  0.91604  1.0000
  H   H355      1.0  0.17089  0.10753  0.59092  1.0000
  C   C225      1.0  0.15149  0.11604  0.62830  1.0000
  S   S92       1.0  0.49117  0.22129  0.62596  1.0000
  H   H356      1.0  0.05513  0.22200  0.84773  1.0000
  H   H357      1.0  0.02738  0.02173  0.87610  1.0000
  C   C226      1.0  0.10320  0.99634  0.65122  1.0000
  H   H358      1.0  0.13512  0.21816  0.96451  1.0000
  C   C227      1.0  0.01623  0.02127  0.72689  1.0000
  H   H359      1.0  0.44947  0.17434  0.69060  1.0000
  C   C228      1.0  0.30149  0.13185  0.50936  1.0000
  C   C229      1.0  0.21943  0.01062  0.57226  1.0000
  H   H360      1.0  0.40561  0.16450  0.73377  1.0000
  H   H361      1.0  0.02392  0.12056  0.73129  1.0000
  H   H362      1.0  0.02378  0.06928  0.86625  1.0000
  H   H363      1.0  0.18188  0.03917  0.52854  1.0000
  H   H364      1.0  0.43386  0.21131  0.59881  1.0000
  H   H365      1.0  0.36499  0.22437  0.65332  1.0000
  H   H366      1.0  0.04296  0.06229  0.83173  1.0000
  H   H367      1.0  0.30078  0.05325  0.60977  1.0000
  C   C230      1.0  0.44018  0.16685  0.70496  1.0000
  C   C231      1.0  0.45008  0.16085  0.55320  1.0000
  C   C232      1.0  0.05808  0.18879  0.51739  1.0000
  H   H368      1.0  0.11001  0.20647  0.94852  1.0000
  C   C233      1.0  0.36866  0.22431  0.63680  1.0000
  C   C234      1.0  0.43503  0.22069  0.61034  1.0000
  C   C235      1.0  0.47167  0.12908  0.66702  1.0000
  H   H369      1.0  0.48200  0.17888  0.50934  1.0000
  N   N23       1.0  0.31982  0.13531  0.51658  1.0000
  H   H370      1.0  0.36395  0.18876  0.52817  1.0000
  H   H371      1.0  0.22667  0.02272  0.56173  1.0000
  H   H372      1.0  0.18561  0.09519  0.51225  1.0000
  C   C236      1.0  0.42124  0.15341  0.68505  1.0000
  H   H373      1.0  0.23012  0.05501  0.49536  1.0000
  H   H374      1.0  0.32841  0.07986  0.50065  1.0000
  C   C237      1.0  0.40792  0.18696  0.69522  1.0000
  C   C238      1.0  0.00508  0.12752  0.89522  1.0000
  H   H375      1.0  0.30719  0.12667  0.54881  1.0000
  H   H376      1.0  0.32374  0.00734  0.58440  1.0000
  H   H377      1.0  0.34273  0.03062  0.62179  1.0000
  H   H378      1.0  0.39091  0.20658  0.54774  1.0000
  N   N24       1.0  0.03844  0.01381  0.72869  1.0000
  H   H379      1.0  0.47066  0.10393  0.60646  1.0000
  H   H380      1.0  0.40864  0.21742  0.51161  1.0000
  S   S93       1.0  0.12183  0.99018  0.83001  1.0000
  H   H381      1.0  0.04903  0.03029  0.69832  1.0000
  H   H382      1.0  0.06266  0.15431  0.50107  1.0000
  H   H383      1.0  0.40294  0.16508  0.50423  1.0000
  H   H384      1.0  0.02866  0.15333  0.76818  1.0000
  H   H385      1.0  0.17023  0.99576  0.83992  1.0000
  C   C239      1.0  0.01607  0.14383  0.77358  1.0000
  C   C240      1.0  0.20079  0.08436  0.51160  1.0000
  H   H386      1.0  0.01400  0.16678  0.73567  1.0000
  H   H387      1.0  0.02685  0.16921  0.51695  1.0000
  H   H388      1.0  0.18606  0.01565  0.83271  1.0000
  H   H389      1.0  0.42083  0.22038  0.62246  1.0000
  H   H390      1.0  0.29655  0.01580  0.59389  1.0000
  H   H391      1.0  0.05265  0.17590  0.55891  1.0000
  H   H392      1.0  0.22903  0.12604  0.50736  1.0000
  C   C241      1.0  0.12438  0.99769  0.64713  1.0000
  N   N25       1.0  0.00984  0.13788  0.75596  1.0000
  C   C242      1.0  0.04525  0.99298  0.72278  1.0000
  C   C243      1.0  0.05119  0.02842  0.71472  1.0000
  C   C244      1.0  0.48213  0.13683  0.67924  1.0000
  H   H393      1.0  0.38620  0.18032  0.55594  1.0000
  C   C245      1.0  0.30179  0.03811  0.62057  1.0000
  H   H394      1.0  0.01366  0.02259  0.71071  1.0000
  H   H395      1.0  0.30125  0.15402  0.53866  1.0000
  C   C246      1.0  0.20595  0.00064  0.56557  1.0000
  S   S94       1.0  0.09688  0.22684  0.84893  1.0000
  C   C247      1.0  0.47379  0.17750  0.52518  1.0000
  H   H396      1.0  0.08500  0.98991  0.79288  1.0000
  H   H397      1.0  0.35084  0.01657  0.60039  1.0000
  H   H398      1.0  0.38174  0.22448  0.57754  1.0000
  H   H399      1.0  0.16580  0.99263  0.79638  1.0000
  H   H400      1.0  0.17420  0.07446  0.49174  1.0000
  C   C248      1.0  0.99323  0.12521  0.76384  1.0000
  C   C249      1.0  0.33403  0.22750  0.48217  1.0000
  C   C250      1.0  0.99267  0.12811  0.88045  1.0000
  H   H401      1.0  0.33003  0.98950  0.61937  1.0000
  H   H402      1.0  0.48021  0.14860  0.60142  1.0000
  H   H403      1.0  0.21820  0.98975  0.82529  1.0000
  H   H404      1.0  0.03255  0.00094  0.76122  1.0000
  Fe  Fe50      1.0  0.15780  0.13714  0.48560  1.0000
  H   H405      1.0  0.33319  0.14985  0.48630  1.0000
  H   H406      1.0  0.48000  0.10147  0.57971  1.0000
  H   H407      1.0  0.11140  0.23159  0.88467  1.0000
  C   C251      1.0  0.40988  0.23898  0.13088  1.0000
  Fe  Fe51      1.0  0.17734  0.45813  0.30627  1.0000
  S   S95       1.0  0.15553  0.44939  0.33564  1.0000
  N   N26       1.0  0.00091  0.27449  0.25796  1.0000
  Fe  Fe52      1.0  0.14819  0.44968  0.27944  1.0000
  S   S96       1.0  0.12421  0.44096  0.30708  1.0000
  S   S97       1.0  0.14029  0.45241  0.24757  1.0000
  Fe  Fe53      1.0  0.13030  0.46810  0.31841  1.0000
  H   H408      1.0  0.33466  0.32332  0.00613  1.0000
  Fe  Fe54      1.0  0.15183  0.42294  0.32120  1.0000
  S   S98       1.0  0.15287  0.39028  0.33980  1.0000
  H   H409      1.0  0.16529  0.44048  0.20277  1.0000
  S   S99       1.0  0.17576  0.43015  0.29276  1.0000
  Fe  Fe55      1.0  0.10690  0.25853  0.35985  1.0000
  S   S100      1.0  0.11723  0.27074  0.32610  1.0000
  H   H410      1.0  0.48113  0.32155  0.23289  1.0000
  Fe  Fe56      1.0  0.06170  0.27601  0.35804  1.0000
  S   S101      1.0  0.06790  0.28967  0.32428  1.0000
  S   S102      1.0  0.02985  0.27826  0.37760  1.0000
  Fe  Fe57      1.0  0.08944  0.25944  0.32122  1.0000
  H   H411      1.0  0.39846  0.37219  0.23832  1.0000
  Fe  Fe58      1.0  0.09503  0.30010  0.33206  1.0000
  S   S103      1.0  0.10001  0.33247  0.31536  1.0000
  C   C252      1.0  0.01061  0.25743  0.24618  1.0000
  S   S104      1.0  0.08689  0.28893  0.36632  1.0000
  Fe  Fe59      1.0  0.11525  0.37380  0.19357  1.0000
  S   S105      1.0  0.08209  0.37821  0.20946  1.0000
  S   S106      1.0  0.14051  0.37145  0.21218  1.0000
  Fe  Fe60      1.0  0.10387  0.36766  0.15350  1.0000
  S   S107      1.0  0.06950  0.37126  0.16651  1.0000
  S   S108      1.0  0.12055  0.36394  0.12092  1.0000
  Fe  Fe61      1.0  0.07511  0.39777  0.17944  1.0000
  S   S109      1.0  0.05042  0.42629  0.18185  1.0000
  Fe  Fe62      1.0  0.07956  0.35143  0.19549  1.0000
  S   S110      1.0  0.06478  0.32677  0.21857  1.0000
  S   S111      1.0  0.10870  0.39582  0.16451  1.0000
  S   S112      1.0  0.11346  0.34544  0.18148  1.0000
  Fe  Fe63      1.0  0.13262  0.28236  0.99695  1.0000
  S   S113      1.0  0.10410  0.30490  0.00731  1.0000
  H   H412      1.0  0.08115  0.25082  0.07453  1.0000
  Fe  Fe64      1.0  0.16188  0.30868  0.00614  1.0000
  S   S114      1.0  0.13532  0.33305  0.01660  1.0000
  S   S115      1.0  0.19446  0.31471  0.00461  1.0000
  Fe  Fe65      1.0  0.12002  0.30605  0.03360  1.0000
  S   S116      1.0  0.10276  0.30363  0.06667  1.0000
  H   H413      1.0  0.28077  0.41366  0.98922  1.0000
  S   S117      1.0  0.14747  0.28162  0.02475  1.0000
  H   H414      1.0  0.41809  0.32888  0.20830  1.0000
  H   H415      1.0  0.41861  0.33734  0.23178  1.0000
  Fe  Fe66      1.0  0.45545  0.33126  0.12103  1.0000
  S   S118      1.0  0.46690  0.30401  0.14418  1.0000
  H   H416      1.0  0.09433  0.34607  0.27078  1.0000
  Fe  Fe67      1.0  0.41133  0.33727  0.14526  1.0000
  S   S119      1.0  0.41959  0.31081  0.17081  1.0000
  S   S120      1.0  0.37889  0.35685  0.14694  1.0000
  Fe  Fe68      1.0  0.44923  0.32355  0.16812  1.0000
  S   S121      1.0  0.46268  0.32371  0.19715  1.0000
  Fe  Fe69      1.0  0.43643  0.29407  0.14469  1.0000
  S   S122      1.0  0.43473  0.26101  0.14274  1.0000
  S   S123      1.0  0.43941  0.35146  0.14476  1.0000
  S   S124      1.0  0.42663  0.31977  0.11935  1.0000
  Fe  Fe70      1.0  0.28152  0.35662  0.09687  1.0000
  S   S125      1.0  0.27289  0.39147  0.09267  1.0000
  S   S126      1.0  0.31257  0.33584  0.10123  1.0000
  Fe  Fe71      1.0  0.23992  0.35160  0.08644  1.0000
  S   S127      1.0  0.22827  0.38595  0.08084  1.0000
  S   S128      1.0  0.21918  0.32851  0.08713  1.0000
  Fe  Fe72      1.0  0.26097  0.38830  0.06466  1.0000
  S   S129      1.0  0.26986  0.40744  0.03363  1.0000
  Fe  Fe73      1.0  0.24087  0.38608  0.10935  1.0000
  S   S130      1.0  0.21870  0.40176  0.13416  1.0000
  S   S131      1.0  0.27149  0.35386  0.06761  1.0000
  S   S132      1.0  0.25061  0.35135  0.11620  1.0000
  C   C253      1.0  0.26071  0.39865  0.01494  1.0000
  H   H417      1.0  0.13885  0.39941  0.02885  1.0000
  H   H418      1.0  0.20318  0.43298  0.19774  1.0000
  H   H419      1.0  0.47148  0.34578  0.05071  1.0000
  H   H420      1.0  0.16099  0.35385  0.16898  1.0000
  C   C254      1.0  0.36063  0.35103  0.13396  1.0000
  C   C255      1.0  0.36499  0.33332  0.12462  1.0000
  C   C256      1.0  0.35013  0.32892  0.11467  1.0000
  C   C257      1.0  0.33078  0.34220  0.11383  1.0000
  C   C258      1.0  0.32641  0.35998  0.12308  1.0000
  C   C259      1.0  0.34126  0.36431  0.13316  1.0000
  H   H421      1.0  0.37974  0.32290  0.12518  1.0000
  H   H422      1.0  0.35364  0.31511  0.10762  1.0000
  H   H423      1.0  0.31158  0.37033  0.12256  1.0000
  H   H424      1.0  0.33772  0.37804  0.14031  1.0000
  C   C260      1.0  0.41098  0.25747  0.13721  1.0000
  C   C261      1.0  0.39328  0.27300  0.13874  1.0000
  C   C262      1.0  0.37457  0.27003  0.13411  1.0000
  C   C263      1.0  0.38972  0.37239  0.22574  1.0000
  H   H425      1.0  0.18026  0.38150  0.98635  1.0000
  H   H426      1.0  0.39388  0.28722  0.14377  1.0000
  H   H427      1.0  0.36084  0.28202  0.13566  1.0000
  H   H428      1.0  0.20456  0.36274  0.14659  1.0000
  H   H429      1.0  0.12910  0.32808  0.27848  1.0000
  C   C264      1.0  0.10470  0.30548  0.26823  1.0000
  C   C265      1.0  0.99951  0.31257  0.37857  1.0000
  N   N27       1.0  0.99501  0.40810  0.20836  1.0000
  H   H430      1.0  0.13854  0.37848  0.01596  1.0000
  C   C266      1.0  0.14737  0.39090  0.01608  1.0000
  H   H431      1.0  0.43834  0.25410  0.09879  1.0000
  H   H432      1.0  0.47164  0.36556  0.17747  1.0000
  H   H433      1.0  0.99800  0.34264  0.26392  1.0000
  C   C267      1.0  0.20685  0.42736  0.12530  1.0000
  C   C268      1.0  0.21568  0.43894  0.10690  1.0000
  C   C269      1.0  0.18854  0.43645  0.13711  1.0000
  H   H434      1.0  0.22977  0.43201  0.09766  1.0000
  H   H435      1.0  0.18143  0.42737  0.15111  1.0000
  H   H436      1.0  0.39491  0.33117  0.22743  1.0000
  C   C270      1.0  0.16579  0.45545  0.19182  1.0000
  H   H437      1.0  0.18455  0.43168  0.36614  1.0000
  H   H438      1.0  0.06430  0.47785  0.20103  1.0000
  C   C271      1.0  0.17933  0.45718  0.13076  1.0000
  C   C272      1.0  0.20126  0.31830  0.02767  1.0000
  C   C273      1.0  0.21955  0.32609  0.02665  1.0000
  C   C274      1.0  0.22496  0.32979  0.04468  1.0000
  C   C275      1.0  0.21238  0.32515  0.06397  1.0000
  C   C276      1.0  0.19422  0.31714  0.06501  1.0000
  C   C277      1.0  0.18855  0.31394  0.04693  1.0000
  H   H439      1.0  0.22952  0.32937  0.01181  1.0000
  H   H440      1.0  0.23904  0.33587  0.04366  1.0000
  H   H441      1.0  0.18441  0.31345  0.07986  1.0000
  H   H442      1.0  0.17446  0.30786  0.04794  1.0000
  H   H443      1.0  0.02044  0.24472  0.25538  1.0000
  C   C278      1.0  0.11550  0.34656  0.10660  1.0000
  C   C279      1.0  0.12839  0.34407  0.08750  1.0000
  C   C280      1.0  0.12470  0.33085  0.07530  1.0000
  C   C281      1.0  0.10801  0.32000  0.08205  1.0000
  C   C282      1.0  0.09533  0.32217  0.10136  1.0000
  C   C283      1.0  0.09904  0.33542  0.11361  1.0000
  H   H444      1.0  0.14133  0.35236  0.08216  1.0000
  H   H445      1.0  0.13489  0.32891  0.06078  1.0000
  H   H446      1.0  0.08245  0.31377  0.10676  1.0000
  H   H447      1.0  0.08903  0.33719  0.12831  1.0000
  C   C284      1.0  0.05738  0.45071  0.17124  1.0000
  C   C285      1.0  0.07819  0.45314  0.16401  1.0000
  H   H448      1.0  0.15147  0.46655  0.19683  1.0000
  H   H449      1.0  0.01069  0.29555  0.27283  1.0000
  H   H450      1.0  0.03374  0.33668  0.19203  1.0000
  H   H451      1.0  0.09050  0.43970  0.16458  1.0000
  H   H452      1.0  0.06902  0.25860  0.03147  1.0000
  C   C286      1.0  0.01198  0.30178  0.34512  1.0000
  H   H453      1.0  0.10692  0.31689  0.22695  1.0000
  C   C287      1.0  0.31059  0.26378  0.02536  1.0000
  H   H454      1.0  0.47367  0.24706  0.15601  1.0000
  C   C288      1.0  0.30505  0.28014  0.08878  1.0000
  C   C289      1.0  0.09941  0.34234  0.25483  1.0000
  H   H455      1.0  0.17055  0.32397  0.14985  1.0000
  C   C290      1.0  0.42149  0.36946  0.20061  1.0000
  H   H456      1.0  0.02181  0.29091  0.33570  1.0000
  H   H457      1.0  0.29713  0.33237  0.01923  1.0000
  C   C291      1.0  0.13826  0.37411  0.33296  1.0000
  C   C292      1.0  0.12863  0.38047  0.31541  1.0000
  C   C293      1.0  0.11711  0.36745  0.31023  1.0000
  C   C294      1.0  0.11510  0.34793  0.32247  1.0000
  C   C295      1.0  0.12473  0.34148  0.34001  1.0000
  C   C296      1.0  0.13630  0.35453  0.34520  1.0000
  H   H458      1.0  0.13021  0.39535  0.30569  1.0000
  H   H459      1.0  0.10981  0.37257  0.29657  1.0000
  H   H460      1.0  0.12334  0.32645  0.34956  1.0000
  H   H461      1.0  0.14374  0.34944  0.35877  1.0000
  C   C297      1.0  0.13855  0.42929  0.23973  1.0000
  C   C298      1.0  0.14976  0.41010  0.24765  1.0000
  C   C299      1.0  0.15011  0.39232  0.23928  1.0000
  C   C300      1.0  0.13894  0.39358  0.22329  1.0000
  C   C301      1.0  0.12715  0.41263  0.21589  1.0000
  C   C302      1.0  0.12714  0.43045  0.22395  1.0000
  H   H462      1.0  0.15867  0.40906  0.25976  1.0000
  H   H463      1.0  0.15922  0.37761  0.24510  1.0000
  H   H464      1.0  0.11852  0.41375  0.20354  1.0000
  H   H465      1.0  0.11864  0.44523  0.21762  1.0000
  H   H466      1.0  0.29276  0.30426  0.98923  1.0000
  C   C303      1.0  0.99722  0.42967  0.19843  1.0000
  H   H467      1.0  0.20420  0.44384  0.17074  1.0000
  H   H468      1.0  0.16129  0.35420  0.03908  1.0000
  C   C304      1.0  0.20341  0.44773  0.18633  1.0000
  H   H469      1.0  0.16494  0.45250  0.17632  1.0000
  C   C305      1.0  0.39044  0.36093  0.19362  1.0000
  C   C306      1.0  0.32317  0.35062  0.03286  1.0000
  H   H470      1.0  0.08358  0.27387  0.04036  1.0000
  C   C307      1.0  0.47519  0.34175  0.20429  1.0000
  H   H471      1.0  0.00626  0.43643  0.20682  1.0000
  H   H472      1.0  0.33194  0.34226  0.98310  1.0000
  H   H473      1.0  0.33901  0.35358  0.03289  1.0000
  C   C308      1.0  0.23981  0.37714  0.00621  1.0000
  C   C309      1.0  0.12067  0.31817  0.23338  1.0000
  H   H474      1.0  0.02828  0.28879  0.25004  1.0000
  S   S133      1.0  0.20728  0.47056  0.30464  1.0000
  C   C310      1.0  0.13317  0.32454  0.26245  1.0000
  H   H475      1.0  0.18088  0.41016  0.00405  1.0000
  H   H476      1.0  0.32228  0.33445  0.04113  1.0000
  C   C311      1.0  0.30373  0.29242  0.99697  1.0000
  N   N28       1.0  0.31874  0.35381  0.01153  1.0000
  C   C312      1.0  0.01238  0.29866  0.36636  1.0000
  C   C313      1.0  0.04154  0.46820  0.17045  1.0000
  N   N29       1.0  0.11449  0.32261  0.25475  1.0000
  H   H477      1.0  0.37622  0.35382  0.19987  1.0000
  H   H478      1.0  0.03640  0.33207  0.25647  1.0000
  H   H479      1.0  0.19607  0.36365  0.00332  1.0000
  H   H480      1.0  0.17160  0.35810  0.00099  1.0000
  C   C314      1.0  0.18853  0.46899  0.11271  1.0000
  H   H481      1.0  0.20257  0.43018  0.32994  1.0000
  H   H482      1.0  0.19548  0.37712  0.35706  1.0000
  C   C315      1.0  0.20659  0.45974  0.10068  1.0000
  C   C316      1.0  0.02739  0.33507  0.24409  1.0000
  C   C317      1.0  0.22434  0.41234  0.36069  1.0000
  H   H483      1.0  0.03963  0.32584  0.35074  1.0000
  C   C318      1.0  0.33472  0.34003  0.99933  1.0000
  H   H484      1.0  0.39982  0.35224  0.18135  1.0000
  H   H485      1.0  0.02477  0.39389  0.19311  1.0000
  H   H486      1.0  0.48896  0.23862  0.17631  1.0000
  H   H487      1.0  0.16103  0.37523  0.05213  1.0000
  H   H488      1.0  0.05442  0.38617  0.34499  1.0000
  C   C319      1.0  0.02592  0.33781  0.20775  1.0000
  H   H489      1.0  0.08898  0.27066  0.97995  1.0000
  C   C320      1.0  0.40875  0.33851  0.21986  1.0000
  C   C321      1.0  0.03757  0.33378  0.22375  1.0000
  N   N30       1.0  0.40259  0.36033  0.20997  1.0000
  H   H490      1.0  0.21932  0.40678  0.32359  1.0000
  H   H491      1.0  0.14488  0.30993  0.26273  1.0000
  H   H492      1.0  0.35068  0.34309  0.99856  1.0000
  C   C322      1.0  0.20491  0.41289  0.33386  1.0000
  H   H493      1.0  0.11554  0.25738  0.05430  1.0000
  N   N31       1.0  0.16914  0.38206  0.01886  1.0000
  H   H494      1.0  0.35564  0.27300  0.99303  1.0000
  S   S134      1.0  0.34954  0.24852  0.12227  1.0000
  H   H495      1.0  0.46562  0.26999  0.10802  1.0000
  C   C323      1.0  0.47619  0.26418  0.09445  1.0000
  C   C324      1.0  0.33192  0.26174  0.01741  1.0000
  H   H496      1.0  0.47113  0.25850  0.04648  1.0000
  S   S135      1.0  0.13222  0.25219  0.98574  1.0000
  S   S136      1.0  0.09287  0.24127  0.29556  1.0000
  H   H497      1.0  0.21371  0.46873  0.08662  1.0000
  H   H498      1.0  0.01496  0.37918  0.21749  1.0000
  H   H499      1.0  0.17051  0.48007  0.21677  1.0000
  C   C325      1.0  0.17971  0.37088  0.00161  1.0000
  H   H500      1.0  0.04957  0.25087  0.31482  1.0000
  H   H501      1.0  0.44098  0.24902  0.07303  1.0000
  C   C326      1.0  0.01593  0.39518  0.20899  1.0000
  C   C327      1.0  0.18448  0.46829  0.21230  1.0000
  H   H502      1.0  0.06737  0.36949  0.32665  1.0000
  C   C328      1.0  0.37357  0.25183  0.12725  1.0000
  H   H503      1.0  0.16507  0.46400  0.13970  1.0000
  N   N32       1.0  0.46459  0.26436  0.07779  1.0000
  H   H504      1.0  0.02550  0.40186  0.21688  1.0000
  H   H505      1.0  0.14083  0.33738  0.25251  1.0000
  H   H506      1.0  0.33479  0.37984  0.00035  1.0000
  H   H507      1.0  0.09906  0.47488  0.15007  1.0000
  H   H508      1.0  0.31187  0.36141  0.04224  1.0000
  C   C329      1.0  0.27414  0.29919  0.10687  1.0000
  H   H509      1.0  0.38484  0.38894  0.21877  1.0000
  H   H510      1.0  0.09058  0.30369  0.26271  1.0000
  S   S137      1.0  0.08100  0.24480  0.35437  1.0000
  H   H511      1.0  0.99981  0.31011  0.39503  1.0000
  C   C330      1.0  0.16919  0.36744  0.03876  1.0000
  N   N33       1.0  0.09514  0.24093  0.04544  1.0000
  H   H512      1.0  0.09978  0.30833  0.28447  1.0000
  C   C331      1.0  0.47936  0.25812  0.05945  1.0000
  H   H513      1.0  0.48417  0.24822  0.10008  1.0000
  H   H514      1.0  0.99926  0.32190  0.31946  1.0000
  H   H515      1.0  0.10639  0.35562  0.24497  1.0000
  C   C332      1.0  0.07753  0.47424  0.20977  1.0000
  H   H516      1.0  0.22331  0.37533  0.35082  1.0000
  C   C333      1.0  0.29651  0.27919  0.01511  1.0000
  H   H517      1.0  0.30771  0.38658  0.01084  1.0000
  C   C334      1.0  0.18571  0.48272  0.17591  1.0000
  H   H518      1.0  0.23930  0.38163  0.03721  1.0000
  H   H519      1.0  0.27996  0.28082  0.02116  1.0000
  H   H520      1.0  0.31221  0.29444  0.08401  1.0000
  C   C335      1.0  0.18696  0.41437  0.36892  1.0000
  H   H521      1.0  0.31042  0.27176  0.10349  1.0000
  H   H522      1.0  0.22861  0.36680  0.01100  1.0000
  C   C336      1.0  0.45288  0.28554  0.07212  1.0000
  H   H523      1.0  0.25578  0.26935  0.10060  1.0000
  H   H524      1.0  0.99218  0.39903  0.18017  1.0000
  H   H525      1.0  0.21014  0.37638  0.37703  1.0000
  H   H526      1.0  0.19165  0.40774  0.32978  1.0000
  H   H527      1.0  0.18517  0.38350  0.11965  1.0000
  C   C337      1.0  0.08497  0.25993  0.03309  1.0000
  N   N34       1.0  0.04569  0.35590  0.35165  1.0000
  C   C338      1.0  0.02569  0.36254  0.36495  1.0000
  C   C339      1.0  0.06185  0.34656  0.36471  1.0000
  H   H528      1.0  0.44393  0.28634  0.05956  1.0000
  C   C340      1.0  0.04296  0.34035  0.34008  1.0000
  Fe  Fe74      1.0  0.12238  0.32950  0.98946  1.0000
  H   H529      1.0  0.02699  0.37452  0.37374  1.0000
  H   H530      1.0  0.02051  0.34915  0.37641  1.0000
  H   H531      1.0  0.06449  0.35792  0.37353  1.0000
  H   H532      1.0  0.05742  0.33280  0.37610  1.0000
  H   H533      1.0  0.07708  0.34117  0.35516  1.0000
  H   H534      1.0  0.43129  0.36896  0.21240  1.0000
  S   S138      1.0  0.15220  0.47833  0.28973  1.0000
  C   C341      1.0  0.00409  0.34293  0.21214  1.0000
  C   C342      1.0  0.47732  0.36121  0.19208  1.0000
  H   H535      1.0  0.02695  0.27027  0.27375  1.0000
  H   H536      1.0  0.05722  0.33597  0.32883  1.0000
  H   H537      1.0  0.34287  0.24979  0.02505  1.0000
  H   H538      1.0  0.18730  0.40885  0.38574  1.0000
  H   H539      1.0  0.18367  0.45417  0.22451  1.0000
  H   H540      1.0  0.02988  0.34631  0.33118  1.0000
  H   H541      1.0  0.16716  0.37878  0.15617  1.0000
  H   H542      1.0  0.09196  0.46956  0.19876  1.0000
  H   H543      1.0  0.43145  0.36076  0.18856  1.0000
  H   H544      1.0  0.07508  0.46049  0.22206  1.0000
  H   H545      1.0  0.25680  0.30335  0.10931  1.0000
  N   N35       1.0  0.18487  0.46356  0.19157  1.0000
  C   C343      1.0  0.31916  0.37573  0.00166  1.0000
  C   C344      1.0  0.20898  0.38257  0.36045  1.0000
  H   H546      1.0  0.12623  0.24574  0.03152  1.0000
  C   C345      1.0  0.44987  0.24957  0.08523  1.0000
  H   H547      1.0  0.27894  0.29194  0.12209  1.0000
  H   H548      1.0  0.28055  0.28540  0.05959  1.0000
  H   H549      1.0  0.29388  0.35157  0.99643  1.0000
  N   N36       1.0  0.20633  0.40553  0.35601  1.0000
  H   H550      1.0  0.28556  0.35885  0.02152  1.0000
  C   C346      1.0  0.27567  0.29578  0.07138  1.0000
  H   H551      1.0  0.22282  0.42964  0.35714  1.0000
  H   H552      1.0  0.14726  0.36881  0.14877  1.0000
  H   H553      1.0  0.02544  0.46645  0.17597  1.0000
  H   H554      1.0  0.28285  0.30986  0.06502  1.0000
  H   H555      1.0  0.21078  0.34050  0.13377  1.0000
  H   H556      1.0  0.11561  0.29031  0.26862  1.0000
  H   H557      1.0  0.19855  0.47453  0.21285  1.0000
  H   H558      1.0  0.01300  0.36923  0.35562  1.0000
  H   H559      1.0  0.27873  0.25508  0.08731  1.0000
  C   C347      1.0  0.26935  0.40345  0.99397  1.0000
  H   H560      1.0  0.99512  0.34574  0.19975  1.0000
  H   H561      1.0  0.23923  0.40587  0.35128  1.0000
  C   C348      1.0  0.00562  0.34078  0.24837  1.0000
  C   C349      1.0  0.08258  0.23744  0.06642  1.0000
  C   C350      1.0  0.20592  0.47905  0.34421  1.0000
  N   N37       1.0  0.28202  0.28525  0.09141  1.0000
  S   S139      1.0  0.30111  0.24730  0.04796  1.0000
  H   H562      1.0  0.08522  0.34158  0.24882  1.0000
  H   H563      1.0  0.28042  0.31393  0.10177  1.0000
  H   H564      1.0  0.48829  0.27420  0.08905  1.0000
  H   H565      1.0  0.17262  0.40791  0.03169  1.0000
  H   H566      1.0  0.31161  0.27007  0.07680  1.0000
  H   H567      1.0  0.15693  0.33888  0.12966  1.0000
  H   H568      1.0  0.22581  0.40730  0.37734  1.0000
  H   H569      1.0  0.19668  0.39279  0.02130  1.0000
  H   H570      1.0  0.41750  0.38593  0.19301  1.0000
  C   C351      1.0  0.24590  0.38553  0.02104  1.0000
  H   H571      1.0  0.09588  0.48094  0.29706  1.0000
  H   H572      1.0  0.17300  0.40984  0.36545  1.0000
  H   H573      1.0  0.25842  0.30059  0.07296  1.0000
  C   C352      1.0  0.18028  0.39900  0.01898  1.0000
  H   H574      1.0  0.37529  0.36592  0.23304  1.0000
  H   H575      1.0  0.27759  0.25760  0.11371  1.0000
  H   H576      1.0  0.12821  0.33074  0.22284  1.0000
  C   C353      1.0  0.05224  0.37406  0.33682  1.0000
  H   H577      1.0  0.19170  0.36201  0.10581  1.0000
  H   H578      1.0  0.44148  0.29062  0.08563  1.0000
  C   C354      1.0  0.27312  0.26597  0.09863  1.0000
  H   H579      1.0  0.18370  0.32750  0.12329  1.0000
  C   C355      1.0  0.24886  0.38143  0.98536  1.0000
  H   H580      1.0  0.13190  0.30331  0.23275  1.0000
  H   H581      1.0  0.18615  0.47972  0.16004  1.0000
  H   H582      1.0  0.18538  0.36072  0.04148  1.0000
  C   C356      1.0  0.08306  0.47309  0.15597  1.0000
  C   C357      1.0  0.33911  0.27486  0.99921  1.0000
  H   H583      1.0  0.99884  0.29808  0.23074  1.0000
  H   H584      1.0  0.31517  0.37893  0.98580  1.0000
  H   H585      1.0  0.46352  0.29710  0.06665  1.0000
  H   H586      1.0  0.04048  0.38135  0.32659  1.0000
  C   C358      1.0  0.99391  0.34459  0.23243  1.0000
  H   H587      1.0  0.99862  0.25028  0.24215  1.0000
  C   C359      1.0  0.32505  0.29009  0.98885  1.0000
  H   H588      1.0  0.19797  0.33827  0.16033  1.0000
  H   H589      1.0  0.38537  0.37711  0.18576  1.0000
  S   S140      1.0  0.47618  0.34456  0.09247  1.0000
  C   C360      1.0  0.21468  0.48224  0.32312  1.0000
  H   H590      1.0  0.16489  0.37371  0.11251  1.0000
  C   C361      1.0  0.29793  0.34890  0.01223  1.0000
  N   N38       1.0  0.17847  0.35436  0.13799  1.0000
  C   C362      1.0  0.16278  0.36436  0.15370  1.0000
  C   C363      1.0  0.19887  0.34871  0.14500  1.0000
  C   C364      1.0  0.18014  0.36906  0.11811  1.0000
  C   C365      1.0  0.17215  0.33532  0.13513  1.0000
  C   C366      1.0  0.48279  0.33647  0.22320  1.0000
  H   H591      1.0  0.02082  0.26299  0.23155  1.0000
  H   H592      1.0  0.00579  0.43027  0.18219  1.0000
  H   H593      1.0  0.11167  0.48278  0.22056  1.0000
  H   H594      1.0  0.47779  0.28472  0.47367  1.0000
  H   H595      1.0  0.99541  0.25343  0.28677  1.0000
  H   H596      1.0  0.21811  0.45326  0.18612  1.0000
  C   C367      1.0  0.01743  0.28264  0.26393  1.0000
  H   H597      1.0  0.19360  0.46995  0.34956  1.0000
  C   C368      1.0  0.99904  0.31915  0.33598  1.0000
  C   C369      1.0  0.05104  0.23897  0.30556  1.0000
  H   H598      1.0  0.14674  0.40195  0.00116  1.0000
  C   C370      1.0  0.48814  0.32778  0.07477  1.0000
  C   C371      1.0  0.48663  0.37520  0.19889  1.0000
  C   C372      1.0  0.48367  0.33282  0.05460  1.0000
  C   C373      1.0  0.39134  0.23633  0.12551  1.0000
  C   C374      1.0  0.11621  0.24355  0.04708  1.0000
  H   H599      1.0  0.48797  0.39026  0.18940  1.0000
  H   H600      1.0  0.09409  0.26292  0.01716  1.0000
  S   S141      1.0  0.13060  0.23927  0.37905  1.0000
  H   H601      1.0  0.99423  0.26232  0.35839  1.0000
  H   H602      1.0  0.09437  0.47287  0.24308  1.0000
  H   H603      1.0  0.99160  0.41415  0.23934  1.0000
  S   S142      1.0  0.35569  0.23524  0.06629  1.0000
  H   H604      1.0  0.01815  0.23791  0.31196  1.0000
  H   H605      1.0  0.48802  0.24197  0.06316  1.0000
  C   C375      1.0  0.26367  0.39456  0.97920  1.0000
  C   C376      1.0  0.36864  0.23651  0.47684  1.0000
  H   H606      1.0  0.06651  0.23555  0.06578  1.0000
  H   H607      1.0  0.49109  0.26861  0.05370  1.0000
  H   H608      1.0  0.20705  0.48416  0.37482  1.0000
  Fe  Fe75      1.0  0.35411  0.43032  0.58677  1.0000
  S   S143      1.0  0.31957  0.44169  0.59166  1.0000
  S   S144      1.0  0.37064  0.39730  0.58492  1.0000
  Fe  Fe76      1.0  0.36360  0.47148  0.59332  1.0000
  H   H609      1.0  0.33284  0.28738  0.92972  1.0000
  H   H610      1.0  0.07699  0.25376  0.87898  1.0000
  Fe  Fe77      1.0  0.32536  0.45460  0.61797  1.0000
  S   S145      1.0  0.30622  0.44717  0.64941  1.0000
  C   C377      1.0  0.32581  0.45480  0.83932  1.0000
  S   S146      1.0  0.10852  0.35713  0.96815  1.0000
  S   S147      1.0  0.35947  0.44144  0.61441  1.0000
  S   S148      1.0  0.36151  0.45928  0.56510  1.0000
  Fe  Fe78      1.0  0.41498  0.27891  0.53292  1.0000
  S   S149      1.0  0.38903  0.29599  0.55311  1.0000
  S   S150      1.0  0.44739  0.27591  0.53991  1.0000
  Fe  Fe79      1.0  0.38552  0.26778  0.50870  1.0000
  S   S151      1.0  0.35708  0.28506  0.52661  1.0000
  Fe  Fe80      1.0  0.37618  0.30995  0.52401  1.0000
  S   S152      1.0  0.36045  0.34386  0.52037  1.0000
  Fe  Fe81      1.0  0.37198  0.27024  0.55447  1.0000
  H   H611      1.0  0.19624  0.34985  0.96675  1.0000
  S   S153      1.0  0.40351  0.29437  0.50319  1.0000
  S   S154      1.0  0.39925  0.25123  0.53718  1.0000
  C   C378      1.0  0.25627  0.39702  0.82639  1.0000
  H   H612      1.0  0.30140  0.25371  0.91643  1.0000
  Fe  Fe82      1.0  0.28566  0.33045  0.91397  1.0000
  S   S155      1.0  0.27508  0.36497  0.91175  1.0000
  S   S156      1.0  0.27665  0.30916  0.89661  1.0000
  Fe  Fe83      1.0  0.31209  0.32769  0.94685  1.0000
  S   S157      1.0  0.30399  0.36196  0.94741  1.0000
  H   H613      1.0  0.23126  0.38743  0.80420  1.0000
  Fe  Fe84      1.0  0.27148  0.35819  0.94636  1.0000
  H   H614      1.0  0.44044  0.27045  0.60934  1.0000
  Fe  Fe85      1.0  0.30843  0.36556  0.91261  1.0000
  S   S158      1.0  0.32620  0.38888  0.89079  1.0000
  S   S159      1.0  0.27929  0.32362  0.94861  1.0000
  S   S160      1.0  0.31939  0.33157  0.91213  1.0000
  Fe  Fe86      1.0  0.35042  0.40626  0.77338  1.0000
  S   S161      1.0  0.38493  0.39563  0.77131  1.0000
  S   S162      1.0  0.32685  0.38921  0.79582  1.0000
  Fe  Fe87      1.0  0.35557  0.44335  0.73913  1.0000
  S   S163      1.0  0.39048  0.43596  0.73428  1.0000
  S   S164      1.0  0.34094  0.47214  0.71978  1.0000
  Fe  Fe88      1.0  0.38623  0.40315  0.73670  1.0000
  C   C379      1.0  0.36394  0.24086  0.60179  1.0000
  Fe  Fe89      1.0  0.38576  0.42950  0.76901  1.0000
  S   S165      1.0  0.40547  0.44061  0.78648  1.0000
  S   S166      1.0  0.35141  0.41098  0.73893  1.0000
  S   S167      1.0  0.35106  0.43962  0.77368  1.0000
  Fe  Fe90      1.0  0.01014  0.36297  0.77789  1.0000
  S   S168      1.0  0.01663  0.38127  0.79987  1.0000
  H   H615      1.0  0.41144  0.38725  0.59464  1.0000
  Fe  Fe91      1.0  0.02466  0.32118  0.80439  1.0000
  S   S169      1.0  0.03215  0.33583  0.82853  1.0000
  S   S170      1.0  0.02358  0.28713  0.80866  1.0000
  H   H616      1.0  0.28411  0.45597  0.84759  1.0000
  Fe  Fe92      1.0  0.04639  0.35770  0.80159  1.0000
  S   S171      1.0  0.08016  0.36168  0.79857  1.0000
  H   H617      1.0  0.47993  0.28273  0.55909  1.0000
  S   S172      1.0  0.04095  0.34119  0.77739  1.0000
  Fe  Fe93      1.0  0.17490  0.41271  0.87559  1.0000
  S   S173      1.0  0.16400  0.38952  0.86234  1.0000
  S   S174      1.0  0.16852  0.41440  0.90968  1.0000
  Fe  Fe94      1.0  0.19562  0.43345  0.83330  1.0000
  S   S175      1.0  0.18511  0.41223  0.81677  1.0000
  Fe  Fe95      1.0  0.15432  0.41677  0.83833  1.0000
  S   S176      1.0  0.12067  0.42334  0.83292  1.0000
  Fe  Fe96      1.0  0.19555  0.38702  0.84235  1.0000
  S   S177      1.0  0.21448  0.35637  0.83515  1.0000
  S   S178      1.0  0.16380  0.44044  0.85263  1.0000
  S   S179      1.0  0.20741  0.40788  0.85773  1.0000
  H   H618      1.0  0.28912  0.48220  0.72409  1.0000
  Fe  Fe97      1.0  0.48674  0.35680  0.58216  1.0000
  H   H619      1.0  0.27106  0.39416  0.83266  1.0000
  C   C380      1.0  0.31254  0.24554  0.92713  1.0000
  C   C381      1.0  0.33701  0.47443  0.67946  1.0000
  Fe  Fe98      1.0  0.32715  0.47196  0.57241  1.0000
  S   S180      1.0  0.33470  0.30553  0.96557  1.0000
  H   H620      1.0  0.06968  0.27863  0.88705  1.0000
  C   C382      1.0  0.09071  0.37833  0.80953  1.0000
  C   C383      1.0  0.07835  0.39541  0.81776  1.0000
  C   C384      1.0  0.08773  0.40904  0.82492  1.0000
  C   C385      1.0  0.10946  0.40551  0.82427  1.0000
  C   C386      1.0  0.12172  0.38821  0.81643  1.0000
  C   C387      1.0  0.11240  0.37484  0.80890  1.0000
  H   H621      1.0  0.06165  0.39833  0.81828  1.0000
  H   H622      1.0  0.07813  0.42246  0.83086  1.0000
  H   H623      1.0  0.13844  0.38534  0.81579  1.0000
  H   H624      1.0  0.12210  0.36171  0.80250  1.0000
  H   H625      1.0  0.07023  0.25518  0.90611  1.0000
  C   C388      1.0  0.39177  0.45927  0.80167  1.0000
  H   H626      1.0  0.12749  0.41217  0.88294  1.0000
  H   H627      1.0  0.40787  0.40289  0.55801  1.0000
  C   C389      1.0  0.48168  0.46050  0.63839  1.0000
  C   C390      1.0  0.44969  0.46858  0.66216  1.0000
  H   H628      1.0  0.09358  0.29082  0.90412  1.0000
  C   C391      1.0  0.19039  0.34426  0.95485  1.0000
  C   C392      1.0  0.34803  0.23805  0.48737  1.0000
  C   C393      1.0  0.32779  0.38824  0.82216  1.0000
  C   C394      1.0  0.34045  0.39957  0.82797  1.0000
  C   C395      1.0  0.34023  0.39935  0.84908  1.0000
  C   C396      1.0  0.32739  0.38781  0.86446  1.0000
  C   C397      1.0  0.31504  0.37619  0.85865  1.0000
  C   C398      1.0  0.31526  0.37639  0.83757  1.0000
  H   H629      1.0  0.35045  0.40847  0.81622  1.0000
  H   H630      1.0  0.35013  0.40804  0.85349  1.0000
  H   H631      1.0  0.30526  0.36704  0.87038  1.0000
  H   H632      1.0  0.30583  0.36714  0.83331  1.0000
  C   C399      1.0  0.25950  0.32229  0.87941  1.0000
  C   C400      1.0  0.24871  0.34233  0.88128  1.0000
  C   C401      1.0  0.23449  0.35262  0.86813  1.0000
  C   C402      1.0  0.23146  0.34320  0.85247  1.0000
  C   C403      1.0  0.24237  0.32314  0.85040  1.0000
  C   C404      1.0  0.25618  0.31260  0.86401  1.0000
  H   H633      1.0  0.25105  0.34979  0.89309  1.0000
  H   H634      1.0  0.22597  0.36783  0.87017  1.0000
  H   H635      1.0  0.24005  0.31570  0.83834  1.0000
  H   H636      1.0  0.26444  0.29706  0.86245  1.0000
  C   C405      1.0  0.07929  0.26367  0.82730  1.0000
  S   S181      1.0  0.21888  0.45364  0.81396  1.0000
  C   C406      1.0  0.44843  0.38033  0.66325  1.0000
  H   H637      1.0  0.32109  0.44252  0.83320  1.0000
  H   H638      1.0  0.45541  0.41568  0.58533  1.0000
  H   H639      1.0  0.23188  0.33608  0.95216  1.0000
  H   H640      1.0  0.39820  0.42486  0.58549  1.0000
  H   H641      1.0  0.44716  0.45399  0.62809  1.0000
  H   H642      1.0  0.08165  0.45379  0.89186  1.0000
  H   H643      1.0  0.08870  0.44417  0.91708  1.0000
  C   C407      1.0  0.09367  0.25667  0.97319  1.0000
  C   C408      1.0  0.39917  0.46113  0.81920  1.0000
  H   H644      1.0  0.10272  0.28837  0.86646  1.0000
  C   C409      1.0  0.27279  0.37647  0.79985  1.0000
  H   H645      1.0  0.46679  0.27022  0.49773  1.0000
  C   C410      1.0  0.12748  0.37107  0.95302  1.0000
  C   C411      1.0  0.13661  0.36685  0.93319  1.0000
  C   C412      1.0  0.14954  0.37989  0.91988  1.0000
  C   C413      1.0  0.15345  0.39708  0.92640  1.0000
  C   C414      1.0  0.14504  0.40074  0.94657  1.0000
  H   H646      1.0  0.48912  0.25311  0.52405  1.0000
  H   H647      1.0  0.13314  0.35388  0.92791  1.0000
  H   H648      1.0  0.15636  0.37664  0.90460  1.0000
  H   H649      1.0  0.14811  0.41398  0.95169  1.0000
  H   H650      1.0  0.32605  0.23731  0.96404  1.0000
  C   C415      1.0  0.41912  0.41035  0.68248  1.0000
  H   H651      1.0  0.11012  0.26327  0.85877  1.0000
  C   C416      1.0  0.06286  0.27736  0.81879  1.0000
  C   C417      1.0  0.04388  0.27084  0.82027  1.0000
  Fe  Fe99      1.0  0.48328  0.38118  0.61665  1.0000
  H   H652      1.0  0.18352  0.34538  0.91629  1.0000
  H   H653      1.0  0.06506  0.29274  0.81062  1.0000
  H   H654      1.0  0.32653  0.46857  0.82673  1.0000
  H   H655      1.0  0.28817  0.37369  0.80494  1.0000
  H   H656      1.0  0.17547  0.35463  0.95190  1.0000
  C   C418      1.0  0.45327  0.29880  0.54492  1.0000
  C   C419      1.0  0.47040  0.29762  0.55464  1.0000
  H   H657      1.0  0.12769  0.24011  0.89829  1.0000
  C   C420      1.0  0.46370  0.33523  0.55214  1.0000
  C   C421      1.0  0.44670  0.33640  0.54229  1.0000
  C   C422      1.0  0.44134  0.31823  0.53893  1.0000
  H   H658      1.0  0.45989  0.25784  0.57864  1.0000
  H   H659      1.0  0.32665  0.43478  0.87831  1.0000
  H   H660      1.0  0.43761  0.35140  0.53723  1.0000
  H   H661      1.0  0.42822  0.31935  0.53127  1.0000
  N   N39       1.0  0.42917  0.40954  0.57495  1.0000
  C   C423      1.0  0.36799  0.38339  0.56612  1.0000
  C   C424      1.0  0.35271  0.39051  0.55349  1.0000
  C   C425      1.0  0.35078  0.37847  0.53920  1.0000
  C   C426      1.0  0.36413  0.35934  0.53740  1.0000
  C   C427      1.0  0.37970  0.35257  0.54971  1.0000
  C   C428      1.0  0.38152  0.36445  0.56408  1.0000
  H   H662      1.0  0.34227  0.40515  0.55487  1.0000
  H   H663      1.0  0.33883  0.38396  0.52959  1.0000
  H   H664      1.0  0.39057  0.33832  0.54801  1.0000
  H   H665      1.0  0.39357  0.35894  0.57358  1.0000
  C   C429      1.0  0.31593  0.45436  0.66876  1.0000
  H   H666      1.0  0.41811  0.24354  0.57779  1.0000
  C   C430      1.0  0.22176  0.47525  0.84427  1.0000
  C   C431      1.0  0.33160  0.46509  0.70012  1.0000
  C   C432      1.0  0.31839  0.45040  0.70511  1.0000
  C   C433      1.0  0.31027  0.44530  0.68946  1.0000
  N   N40       1.0  0.46089  0.47392  0.64078  1.0000
  Fe  Fe100     1.0  0.00200  0.35787  0.82482  1.0000
  H   H667      1.0  0.31411  0.44324  0.72108  1.0000
  H   H668      1.0  0.29978  0.43416  0.69335  1.0000
  C   C434      1.0  0.27181  0.41373  0.79300  1.0000
  H   H669      1.0  0.24719  0.38476  0.83504  1.0000
  H   H670      1.0  0.27862  0.47251  0.86680  1.0000
  H   H671      1.0  0.37924  0.47535  0.63478  1.0000
  H   H672      1.0  0.34199  0.44888  0.84255  1.0000
  H   H673      1.0  0.24280  0.40003  0.77939  1.0000
  S   S182      1.0  0.99362  0.34154  0.80267  1.0000
  C   C435      1.0  0.43126  0.41608  0.66302  1.0000
  N   N41       1.0  0.26033  0.39678  0.80388  1.0000
  H   H674      1.0  0.27055  0.39805  0.96302  1.0000
  H   H675      1.0  0.24729  0.41233  0.82992  1.0000
  H   H676      1.0  0.41305  0.45077  0.82351  1.0000
  C   C436      1.0  0.08247  0.44002  0.90454  1.0000
  H   H677      1.0  0.42071  0.26839  0.58211  1.0000
  H   H678      1.0  0.36113  0.36233  0.68070  1.0000
  H   H679      1.0  0.34759  0.41542  0.69389  1.0000
  H   H680      1.0  0.40785  0.42200  0.68983  1.0000
  H   H681      1.0  0.42891  0.43208  0.65534  1.0000
  N   N42       1.0  0.10042  0.26247  0.89159  1.0000
  C   C437      1.0  0.44623  0.40114  0.65351  1.0000
  H   H682      1.0  0.45119  0.24696  0.62494  1.0000
  C   C438      1.0  0.07927  0.24970  0.96453  1.0000
  N   N43       1.0  0.06505  0.40076  0.74524  1.0000
  C   C439      1.0  0.04448  0.39896  0.74131  1.0000
  C   C440      1.0  0.07433  0.41613  0.72859  1.0000
  C   C441      1.0  0.07898  0.38029  0.74567  1.0000
  C   C442      1.0  0.06243  0.40763  0.76540  1.0000
  H   H683      1.0  0.03713  0.38737  0.75354  1.0000
  H   H684      1.0  0.04575  0.39376  0.72626  1.0000
  H   H685      1.0  0.03338  0.41400  0.74106  1.0000
  H   H686      1.0  0.08987  0.41779  0.73116  1.0000
  H   H687      1.0  0.07652  0.41145  0.71314  1.0000
  H   H688      1.0  0.06422  0.43176  0.72784  1.0000
  H   H689      1.0  0.08191  0.37489  0.73051  1.0000
  H   H690      1.0  0.07210  0.36815  0.75756  1.0000
  H   H691      1.0  0.09430  0.38071  0.74969  1.0000
  H   H692      1.0  0.05233  0.42319  0.76557  1.0000
  H   H693      1.0  0.07771  0.40847  0.76927  1.0000
  H   H694      1.0  0.05512  0.39659  0.77825  1.0000
  C   C443      1.0  0.11060  0.27208  0.87108  1.0000
  H   H695      1.0  0.08088  0.40007  0.92129  1.0000
  C   C444      1.0  0.04114  0.25087  0.83074  1.0000
  H   H696      1.0  0.45242  0.42806  0.55927  1.0000
  H   H697      1.0  0.27618  0.41340  0.77609  1.0000
  H   H698      1.0  0.28973  0.48188  0.84072  1.0000
  H   H699      1.0  0.99680  0.32204  0.85090  1.0000
  H   H700      1.0  0.23039  0.41501  0.79936  1.0000
  H   H701      1.0  0.30205  0.48248  0.75597  1.0000
  N   N44       1.0  0.20603  0.34377  0.93569  1.0000
  H   H702      1.0  0.45669  0.47486  0.60954  1.0000
  H   H703      1.0  0.19545  0.37571  0.92296  1.0000
  C   C445      1.0  0.19818  0.33545  0.92053  1.0000
  C   C446      1.0  0.45671  0.24188  0.58499  1.0000
  H   H704      1.0  0.46198  0.40063  0.56477  1.0000
  H   H705      1.0  0.28769  0.27933  0.93993  1.0000
  N   N45       1.0  0.09576  0.42151  0.89692  1.0000
  H   H706      1.0  0.43188  0.39251  0.60564  1.0000
  H   H707      1.0  0.11795  0.27444  0.90869  1.0000
  H   H708      1.0  0.06358  0.25845  0.96480  1.0000
  H   H709      1.0  0.36216  0.42756  0.67057  1.0000
  H   H710      1.0  0.43757  0.35830  0.68965  1.0000
  H   H711      1.0  0.22160  0.36554  0.91243  1.0000
  H   H712      1.0  0.37556  0.37218  0.69520  1.0000
  C   C447      1.0  0.35920  0.24073  0.62317  1.0000
  H   H713      1.0  0.18688  0.32846  0.96180  1.0000
  H   H714      1.0  0.26228  0.42926  0.79511  1.0000
  H   H715      1.0  0.09412  0.26857  0.82568  1.0000
  C   C448      1.0  0.42129  0.38945  0.69214  1.0000
  S   S183      1.0  0.46203  0.40862  0.62949  1.0000
  N   N46       1.0  0.31452  0.32321  0.57014  1.0000
  C   C449      1.0  0.30093  0.33432  0.58631  1.0000
  C   C450      1.0  0.31168  0.33526  0.54940  1.0000
  C   C451      1.0  0.30909  0.30240  0.57229  1.0000
  C   C452      1.0  0.33650  0.32086  0.57252  1.0000
  H   H716      1.0  0.30463  0.35013  0.58495  1.0000
  H   H717      1.0  0.30295  0.32571  0.60212  1.0000
  H   H718      1.0  0.28418  0.33624  0.58509  1.0000
  H   H719      1.0  0.29520  0.33780  0.54710  1.0000
  H   H720      1.0  0.31643  0.35076  0.54694  1.0000
  H   H721      1.0  0.32150  0.32710  0.53683  1.0000
  H   H722      1.0  0.31112  0.29284  0.58775  1.0000
  H   H723      1.0  0.31937  0.29349  0.56053  1.0000
  H   H724      1.0  0.29268  0.30347  0.57035  1.0000
  H   H725      1.0  0.34097  0.33615  0.57198  1.0000
  H   H726      1.0  0.34706  0.31373  0.55977  1.0000
  H   H727      1.0  0.33971  0.31067  0.58737  1.0000
  S   S184      1.0  0.99614  0.37962  0.74945  1.0000
  C   C453      1.0  0.22922  0.47100  0.82419  1.0000
  C   C454      1.0  0.32948  0.46877  0.66371  1.0000
  C   C455      1.0  0.24033  0.39996  0.79635  1.0000
  C   C456      1.0  0.37392  0.47279  0.79609  1.0000
  H   H728      1.0  0.19487  0.31946  0.92686  1.0000
  H   H729      1.0  0.12728  0.27232  0.87100  1.0000
  H   H730      1.0  0.43464  0.39257  0.54971  1.0000
  C   C457      1.0  0.11121  0.24080  0.89681  1.0000
  H   H731      1.0  0.45994  0.36865  0.65619  1.0000
  C   C458      1.0  0.99970  0.24631  0.88301  1.0000
  H   H732      1.0  0.09387  0.26746  0.92316  1.0000
  H   H733      1.0  0.41535  0.44205  0.57077  1.0000
  H   H734      1.0  0.28645  0.41241  0.79910  1.0000
  H   H735      1.0  0.01186  0.25613  0.88073  1.0000
  H   H736      1.0  0.02649  0.24578  0.83187  1.0000
  H   H737      1.0  0.27597  0.37558  0.78304  1.0000
  C   C459      1.0  0.09666  0.40366  0.91421  1.0000
  H   H738      1.0  0.43299  0.48008  0.62746  1.0000
  C   C460      1.0  0.43583  0.37450  0.68233  1.0000
  C   C461      1.0  0.10151  0.27436  0.90756  1.0000
  H   H739      1.0  0.42507  0.41999  0.54313  1.0000
  C   C462      1.0  0.31812  0.47643  0.86568  1.0000
  H   H740      1.0  0.47511  0.29404  0.49765  1.0000
  H   H741      1.0  0.08583  0.42968  0.86720  1.0000
  S   S185      1.0  0.46855  0.35467  0.61443  1.0000
  H   H742      1.0  0.06626  0.43731  0.91090  1.0000
  C   C463      1.0  0.44891  0.47056  0.62582  1.0000
  H   H743      1.0  0.12419  0.43008  0.90039  1.0000
  N   N47       1.0  0.43728  0.24224  0.60041  1.0000
  H   H744      1.0  0.34284  0.24742  0.49948  1.0000
  C   C464      1.0  0.31084  0.44145  0.87440  1.0000
  H   H745      1.0  0.26460  0.36340  0.80829  1.0000
  H   H746      1.0  0.34765  0.37770  0.70022  1.0000
  C   C465      1.0  0.33304  0.24912  0.95175  1.0000
  C   C466      1.0  0.08697  0.41643  0.88039  1.0000
  H   H747      1.0  0.34219  0.26905  0.91233  1.0000
  H   H748      1.0  0.07110  0.41256  0.88620  1.0000
  C   C467      1.0  0.13193  0.38784  0.95981  1.0000
  C   C468      1.0  0.11702  0.42592  0.88850  1.0000
  C   C469      1.0  0.20989  0.36512  0.92688  1.0000
  H   H749      1.0  0.34827  0.25342  0.62921  1.0000
  H   H750      1.0  0.11706  0.43895  0.87503  1.0000
  C   C470      1.0  0.43812  0.25426  0.61637  1.0000
  S   S186      1.0  0.40506  0.38105  0.71549  1.0000
  S   S187      1.0  0.35199  0.26179  0.58515  1.0000
  C   C471      1.0  0.29002  0.46791  0.85309  1.0000
  H   H751      1.0  0.09702  0.40291  0.87384  1.0000
  C   C472      1.0  0.22561  0.33024  0.94070  1.0000
  C   C473      1.0  0.32800  0.27620  0.92217  1.0000
  N   N48       1.0  0.31121  0.46015  0.85811  1.0000
  C   C474      1.0  0.41458  0.42751  0.58238  1.0000
  C   C475      1.0  0.07834  0.26254  0.89093  1.0000
  H   H752      1.0  0.42348  0.25522  0.62798  1.0000
  C   C476      1.0  0.42755  0.39072  0.59096  1.0000
  H   H753      1.0  0.21574  0.37190  0.93795  1.0000
  C   C477      1.0  0.38849  0.47611  0.83137  1.0000
  H   H754      1.0  0.10626  0.38935  0.90884  1.0000
  H   H755      1.0  0.30027  0.44491  0.88895  1.0000
  H   H756      1.0  0.10373  0.40672  0.92674  1.0000
  C   C478      1.0  0.42398  0.40616  0.55559  1.0000
  N   N49       1.0  0.36174  0.39512  0.67190  1.0000
  C   C479      1.0  0.38071  0.39237  0.65601  1.0000
  C   C480      1.0  0.34300  0.39931  0.66204  1.0000
  C   C481      1.0  0.36177  0.41283  0.68198  1.0000
  C   C482      1.0  0.36146  0.37598  0.68767  1.0000
  H   H757      1.0  0.39510  0.38873  0.66307  1.0000
  H   H758      1.0  0.38169  0.40670  0.64416  1.0000
  H   H759      1.0  0.38099  0.37942  0.64776  1.0000
  H   H760      1.0  0.34260  0.41373  0.65022  1.0000
  H   H761      1.0  0.34244  0.38640  0.65411  1.0000
  H   H762      1.0  0.32838  0.40162  0.67356  1.0000
  H   H763      1.0  0.37542  0.41000  0.68999  1.0000
  H   H764      1.0  0.43799  0.37678  0.58563  1.0000
  H   H765      1.0  0.31705  0.28537  0.91166  1.0000
  H   H766      1.0  0.39409  0.47719  0.84512  1.0000
  H   H767      1.0  0.48033  0.44371  0.64109  1.0000
  H   H768      1.0  0.40431  0.25282  0.60108  1.0000
  H   H769      1.0  0.01500  0.24159  0.91814  1.0000
  C   C483      1.0  0.47541  0.31575  0.55852  1.0000
  N   N50       1.0  0.31822  0.26033  0.93776  1.0000
  H   H770      1.0  0.23788  0.32935  0.92666  1.0000
  C   C484      1.0  0.45071  0.41370  0.57090  1.0000
  S   S188      1.0  0.47057  0.35839  0.55529  1.0000
  C   C485      1.0  0.24521  0.48098  0.81166  1.0000
  H   H771      1.0  0.41806  0.43037  0.59704  1.0000
  H   H772      1.0  0.44871  0.45175  0.66621  1.0000
  S   S189      1.0  0.24226  0.36954  0.96731  1.0000
  H   H773      1.0  0.22313  0.31409  0.94766  1.0000
  H   H774      1.0  0.33776  0.26002  0.95976  1.0000
  C   C486      1.0  0.07652  0.24371  0.83780  1.0000
  H   H775      1.0  0.30528  0.42898  0.86936  1.0000
  H   H776      1.0  0.20973  0.33463  0.90597  1.0000
  H   H777      1.0  0.12466  0.39127  0.97504  1.0000
  H   H778      1.0  0.33385  0.47584  0.64772  1.0000
  H   H779      1.0  0.48866  0.31471  0.56594  1.0000
  H   H780      1.0  0.36834  0.47171  0.78241  1.0000
  C   C487      1.0  0.41928  0.25218  0.58993  1.0000
  C   C488      1.0  0.47905  0.27982  0.49037  1.0000
  H   H781      1.0  0.38265  0.47863  0.71803  1.0000
  C   C489      1.0  0.29921  0.27061  0.95001  1.0000
  H   H782      1.0  0.20946  0.46767  0.85409  1.0000
  H   H783      1.0  0.34754  0.24101  0.94310  1.0000
  H   H784      1.0  0.30300  0.28186  0.95819  1.0000
  H   H785      1.0  0.39635  0.47436  0.75105  1.0000
  H   H786      1.0  0.25116  0.47759  0.79622  1.0000
  C   C490      1.0  0.11389  0.24529  0.97339  1.0000
  H   H787      1.0  0.45768  0.47212  0.67375  1.0000
  H   H788      1.0  0.43349  0.47753  0.66420  1.0000
  C   C491      1.0  0.05734  0.23742  0.83974  1.0000
  S   S190      1.0  0.15006  0.30714  0.97735  1.0000
  S   S191      1.0  0.38738  0.24853  0.48342  1.0000
  H   H789      1.0  0.30762  0.48069  0.87998  1.0000
  H   H790      1.0  0.33426  0.47127  0.86920  1.0000
  H   H791      1.0  0.29141  0.25918  0.96206  1.0000
  H   H792      1.0  0.32651  0.23749  0.91770  1.0000
  H   H793      1.0  0.49065  0.46417  0.62248  1.0000
  H   H794      1.0  0.45585  0.23475  0.57162  1.0000
  H   H795      1.0  0.49110  0.46242  0.64959  1.0000
  S   S192      1.0  0.10667  0.49329  0.33184  1.0000
  Fe  Fe101     1.0  0.46824  0.58967  0.30715  1.0000
  S   S193      1.0  0.46187  0.57793  0.34144  1.0000
  C   C492      1.0  0.16810  0.58944  0.44128  1.0000
  Fe  Fe102     1.0  0.44537  0.63265  0.31254  1.0000
  S   S194      1.0  0.43699  0.62438  0.34708  1.0000
  S   S195      1.0  0.43756  0.66590  0.29790  1.0000
  Fe  Fe103     1.0  0.47004  0.60787  0.34493  1.0000
  N   N51       1.0  0.43059  0.66658  0.39021  1.0000
  Fe  Fe104     1.0  0.42926  0.59551  0.34037  1.0000
  S   S196      1.0  0.40248  0.58068  0.36053  1.0000
  H   H796      1.0  0.25042  0.51172  0.32538  1.0000
  S   S197      1.0  0.43493  0.60523  0.30576  1.0000
  Fe  Fe105     1.0  0.29447  0.55896  0.34737  1.0000
  S   S198      1.0  0.28642  0.53735  0.37761  1.0000
  S   S199      1.0  0.32667  0.56086  0.32788  1.0000
  Fe  Fe106     1.0  0.24954  0.58098  0.34773  1.0000
  S   S200      1.0  0.23884  0.56191  0.37801  1.0000
  S   S201      1.0  0.22319  0.60258  0.33404  1.0000
  Fe  Fe107     1.0  0.26729  0.56669  0.38788  1.0000
  S   S202      1.0  0.26210  0.57875  0.41808  1.0000
  Fe  Fe108     1.0  0.25828  0.53456  0.36456  1.0000
  S   S203      1.0  0.19623  0.56825  0.46625  1.0000
  S   S204      1.0  0.27650  0.58824  0.35848  1.0000
  S   S205      1.0  0.26800  0.55368  0.33358  1.0000
  Fe  Fe109     1.0  0.02329  0.61676  0.24491  1.0000
  S   S206      1.0  0.04611  0.63347  0.25277  1.0000
  Fe  Fe110     1.0  0.04447  0.57452  0.26520  1.0000
  S   S207      1.0  0.06854  0.58758  0.27498  1.0000
  S   S208      1.0  0.04681  0.53996  0.26857  1.0000
  Fe  Fe111     1.0  0.04234  0.61295  0.28418  1.0000
  S   S209      1.0  0.03642  0.62216  0.31620  1.0000
  Fe  Fe112     1.0  0.07029  0.60670  0.24314  1.0000
  S   S210      1.0  0.10108  0.60810  0.22220  1.0000
  S   S211      1.0  0.01765  0.59806  0.27703  1.0000
  S   S212      1.0  0.04802  0.59197  0.23259  1.0000
  Fe  Fe113     1.0  0.10622  0.63583  0.42672  1.0000
  S   S213      1.0  0.12271  0.65735  0.43613  1.0000
  C   C493      1.0  0.13351  0.58056  0.47115  1.0000
  Fe  Fe114     1.0  0.09665  0.66506  0.38708  1.0000
  S   S214      1.0  0.11208  0.68949  0.39396  1.0000
  S   S215      1.0  0.08819  0.67077  0.35462  1.0000
  Fe  Fe115     1.0  0.13715  0.66263  0.40260  1.0000
  S   S216      1.0  0.17165  0.66323  0.39476  1.0000
  Fe  Fe116     1.0  0.09617  0.68208  0.42718  1.0000
  S   S217      1.0  0.12291  0.63880  0.39394  1.0000
  S   S218      1.0  0.07842  0.65999  0.41961  1.0000
  Fe  Fe117     1.0  0.10534  0.51988  0.14325  1.0000
  H   H797      1.0  0.99186  0.64976  0.05328  1.0000
  H   H798      1.0  0.07254  0.61736  0.13760  1.0000
  Fe  Fe118     1.0  0.13113  0.55446  0.13171  1.0000
  S   S219      1.0  0.15888  0.53355  0.14339  1.0000
  S   S220      1.0  0.13358  0.58793  0.11888  1.0000
  Fe  Fe119     1.0  0.15165  0.51024  0.12729  1.0000
  C   C494      1.0  0.38510  0.71534  0.44255  1.0000
  Fe  Fe120     1.0  0.13572  0.52145  0.16991  1.0000
  S   S221      1.0  0.13758  0.51749  0.20337  1.0000
  S   S222      1.0  0.12527  0.53207  0.11378  1.0000
  S   S223      1.0  0.10861  0.54454  0.15988  1.0000
  Fe  Fe121     1.0  0.06154  0.72111  0.06247  1.0000
  S   S224      1.0  0.06830  0.69638  0.09000  1.0000
  Fe  Fe122     1.0  0.01761  0.71426  0.06694  1.0000
  S   S225      1.0  0.02012  0.68951  0.09487  1.0000
  S   S226      1.0  0.03119  0.71187  0.13885  1.0000
  Fe  Fe123     1.0  0.03669  0.71024  0.10511  1.0000
  H   H799      1.0  0.12812  0.71842  0.32771  1.0000
  Fe  Fe124     1.0  0.05129  0.67726  0.07757  1.0000
  S   S227      1.0  0.05595  0.64222  0.08088  1.0000
  C   C495      1.0  0.16169  0.56365  0.37436  1.0000
  S   S228      1.0  0.04747  0.70061  0.04831  1.0000
  N   N52       1.0  0.07903  0.49231  0.21861  1.0000
  C   C496      1.0  0.18498  0.57749  0.38894  1.0000
  H   H800      1.0  0.11771  0.53652  0.31364  1.0000
  N   N53       1.0  0.13124  0.54568  0.28177  1.0000
  H   H801      1.0  0.23771  0.49669  0.30032  1.0000
  H   H802      1.0  0.16037  0.54642  0.29060  1.0000
  H   H803      1.0  0.26763  0.60222  0.44716  1.0000
  C   C497      1.0  0.38334  0.67281  0.44821  1.0000
  H   H804      1.0  0.42171  0.56087  0.27000  1.0000
  H   H805      1.0  0.12050  0.70871  0.45194  1.0000
  H   H806      1.0  0.40412  0.72490  0.33278  1.0000
  H   H807      1.0  0.36034  0.58795  0.42575  1.0000
  H   H808      1.0  0.11760  0.69908  0.34767  1.0000
  C   C498      1.0  0.99701  0.65358  0.28076  1.0000
  C   C499      1.0  0.16384  0.55339  0.41080  1.0000
  H   H809      1.0  0.28742  0.72788  0.45356  1.0000
  H   H810      1.0  0.39504  0.54715  0.31221  1.0000
  H   H811      1.0  0.37713  0.58713  0.40104  1.0000
  H   H812      1.0  0.10209  0.55784  0.29960  1.0000
  H   H813      1.0  0.06236  0.65142  0.17736  1.0000
  N   N54       1.0  0.17577  0.55895  0.38980  1.0000
  C   C500      1.0  0.11198  0.60288  0.10836  1.0000
  C   C501      1.0  0.11036  0.62455  0.10330  1.0000
  C   C502      1.0  0.09319  0.63680  0.09487  1.0000
  C   C503      1.0  0.07776  0.62737  0.09118  1.0000
  C   C504      1.0  0.07951  0.60565  0.09608  1.0000
  C   C505      1.0  0.09646  0.59344  0.10488  1.0000
  H   H814      1.0  0.12239  0.63191  0.10592  1.0000
  H   H815      1.0  0.09208  0.65350  0.09095  1.0000
  H   H816      1.0  0.06777  0.59824  0.09302  1.0000
  H   H817      1.0  0.09760  0.57672  0.10874  1.0000
  H   H818      1.0  0.16255  0.53122  0.27073  1.0000
  H   H819      1.0  0.15448  0.54999  0.37451  1.0000
  H   H820      1.0  0.14881  0.57688  0.37751  1.0000
  H   H821      1.0  0.21406  0.61056  0.47167  1.0000
  C   C506      1.0  0.23796  0.50276  0.33075  1.0000
  C   C507      1.0  0.99929  0.63573  0.10554  1.0000
  H   H822      1.0  0.47856  0.65094  0.34515  1.0000
  C   C508      1.0  0.11177  0.58289  0.21726  1.0000
  C   C509      1.0  0.10268  0.56601  0.22867  1.0000
  C   C510      1.0  0.11111  0.54585  0.22489  1.0000
  C   C511      1.0  0.12835  0.54249  0.20930  1.0000
  C   C512      1.0  0.13717  0.55940  0.19745  1.0000
  C   C513      1.0  0.12908  0.57957  0.20166  1.0000
  H   H823      1.0  0.08916  0.56835  0.24051  1.0000
  H   H824      1.0  0.10391  0.53298  0.23379  1.0000
  H   H825      1.0  0.15029  0.55692  0.18509  1.0000
  H   H826      1.0  0.13605  0.59259  0.19263  1.0000
  C   C514      1.0  0.05265  0.63404  0.32653  1.0000
  C   C515      1.0  0.06631  0.64659  0.31379  1.0000
  C   C516      1.0  0.07731  0.65744  0.32267  1.0000
  C   C517      1.0  0.07522  0.65547  0.34434  1.0000
  C   C518      1.0  0.06208  0.64239  0.35707  1.0000
  C   C519      1.0  0.05066  0.63198  0.34819  1.0000
  H   H827      1.0  0.06785  0.64853  0.29712  1.0000
  H   H828      1.0  0.08726  0.66765  0.31266  1.0000
  H   H829      1.0  0.06015  0.64083  0.37375  1.0000
  H   H830      1.0  0.04006  0.62241  0.35820  1.0000
  C   C520      1.0  0.15261  0.53579  0.28520  1.0000
  H   H831      1.0  0.02606  0.60145  0.09672  1.0000
  H   H832      1.0  0.03347  0.61068  0.11691  1.0000
  C   C521      1.0  0.07654  0.52478  0.31807  1.0000
  C   C522      1.0  0.06362  0.53551  0.30373  1.0000
  C   C523      1.0  0.06209  0.52639  0.28720  1.0000
  C   C524      1.0  0.07337  0.50648  0.28514  1.0000
  S   S229      1.0  0.13106  0.49583  0.15534  1.0000
  H   H833      1.0  0.07766  0.53185  0.33087  1.0000
  H   H834      1.0  0.05461  0.55070  0.30563  1.0000
  H   H835      1.0  0.17548  0.63717  0.43763  1.0000
  C   C525      1.0  0.20914  0.61951  0.35084  1.0000
  C   C526      1.0  0.21922  0.62725  0.36322  1.0000
  C   C527      1.0  0.20769  0.64105  0.37636  1.0000
  C   C528      1.0  0.18597  0.64627  0.37795  1.0000
  C   C529      1.0  0.17594  0.63815  0.36586  1.0000
  C   C530      1.0  0.18752  0.62514  0.35202  1.0000
  H   H836      1.0  0.23596  0.62301  0.36224  1.0000
  H   H837      1.0  0.21566  0.64756  0.38534  1.0000
  H   H838      1.0  0.15934  0.64230  0.36675  1.0000
  H   H839      1.0  0.17971  0.61912  0.34248  1.0000
  H   H840      1.0  0.46188  0.65185  0.39407  1.0000
  H   H841      1.0  0.37470  0.71749  0.41360  1.0000
  C   C531      1.0  0.28397  0.57877  0.42894  1.0000
  C   C532      1.0  0.28199  0.59147  0.44378  1.0000
  H   H842      1.0  0.08420  0.52378  0.20772  1.0000
  C   C533      1.0  0.31638  0.57505  0.45132  1.0000
  C   C534      1.0  0.31855  0.56268  0.43616  1.0000
  C   C535      1.0  0.30251  0.56477  0.42473  1.0000
  S   S230      1.0  0.10523  0.60549  0.44828  1.0000
  C   C536      1.0  0.06710  0.49055  0.15514  1.0000
  H   H843      1.0  0.33257  0.55127  0.43341  1.0000
  H   H844      1.0  0.30412  0.55490  0.41333  1.0000
  C   C537      1.0  0.37872  0.70740  0.42757  1.0000
  H   H845      1.0  0.10371  0.62047  0.17679  1.0000
  H   H846      1.0  0.42127  0.55998  0.32566  1.0000
  S   S231      1.0  0.47914  0.61806  0.31082  1.0000
  H   H847      1.0  0.06511  0.64375  0.14192  1.0000
  C   C538      1.0  0.38106  0.57614  0.35122  1.0000
  C   C539      1.0  0.37802  0.58352  0.33072  1.0000
  C   C540      1.0  0.36105  0.57909  0.32385  1.0000
  C   C541      1.0  0.34662  0.56784  0.33753  1.0000
  C   C542      1.0  0.34937  0.56098  0.35817  1.0000
  C   C543      1.0  0.36670  0.56483  0.36486  1.0000
  H   H848      1.0  0.38875  0.59256  0.32015  1.0000
  H   H849      1.0  0.35898  0.58447  0.30786  1.0000
  H   H850      1.0  0.33858  0.55199  0.36875  1.0000
  H   H851      1.0  0.36918  0.55863  0.38059  1.0000
  C   C544      1.0  0.41829  0.67867  0.31530  1.0000
  C   C545      1.0  0.40332  0.66798  0.32853  1.0000
  C   C546      1.0  0.38855  0.67785  0.34321  1.0000
  C   C547      1.0  0.41840  0.69928  0.31667  1.0000
  H   H852      1.0  0.40293  0.65220  0.32719  1.0000
  H   H853      1.0  0.37693  0.66960  0.35335  1.0000
  H   H854      1.0  0.42998  0.70755  0.30645  1.0000
  H   H855      1.0  0.12114  0.51648  0.28552  1.0000
  C   C548      1.0  0.40381  0.70906  0.33157  1.0000
  S   S232      1.0  0.07826  0.70376  0.44972  1.0000
  N   N55       1.0  0.00039  0.61462  0.11809  1.0000
  C   C549      1.0  0.21522  0.61751  0.43051  1.0000
  H   H856      1.0  0.44209  0.63734  0.40830  1.0000
  H   H857      1.0  0.14088  0.56158  0.25088  1.0000
  S   S233      1.0  0.33615  0.57120  0.46622  1.0000
  S   S234      1.0  0.99815  0.63598  0.22690  1.0000
  H   H858      1.0  0.16931  0.68085  0.30155  1.0000
  H   H859      1.0  0.05590  0.48598  0.24568  1.0000
  C   C550      1.0  0.14788  0.59844  0.43760  1.0000
  C   C551      1.0  0.09632  0.48661  0.23063  1.0000
  H   H860      1.0  0.18142  0.59323  0.42988  1.0000
  H   H861      1.0  0.14570  0.60889  0.42326  1.0000
  C   C552      1.0  0.44666  0.64777  0.39346  1.0000
  H   H862      1.0  0.41313  0.57546  0.29085  1.0000
  C   C553      1.0  0.29827  0.58979  0.45479  1.0000
  C   C554      1.0  0.12186  0.53114  0.27418  1.0000
  C   C555      1.0  0.13201  0.56494  0.26622  1.0000
  H   H863      1.0  0.27938  0.55218  0.46621  1.0000
  C   C556      1.0  0.08676  0.49603  0.29910  1.0000
  S   S235      1.0  0.37128  0.70988  0.36419  1.0000
  N   N56       1.0  0.16817  0.55930  0.06722  1.0000
  C   C557      1.0  0.18349  0.56883  0.05069  1.0000
  C   C558      1.0  0.16655  0.53886  0.06295  1.0000
  C   C559      1.0  0.14758  0.57313  0.06789  1.0000
  C   C560      1.0  0.17512  0.55636  0.08738  1.0000
  H   H864      1.0  0.18511  0.58424  0.05351  1.0000
  H   H865      1.0  0.40510  0.65092  0.40576  1.0000
  H   H866      1.0  0.19919  0.55878  0.04980  1.0000
  H   H867      1.0  0.15513  0.53118  0.07512  1.0000
  H   H868      1.0  0.16146  0.54035  0.04780  1.0000
  H   H869      1.0  0.18173  0.52790  0.06275  1.0000
  H   H870      1.0  0.13563  0.56647  0.08024  1.0000
  H   H871      1.0  0.14179  0.57580  0.05294  1.0000
  H   H872      1.0  0.14819  0.58858  0.07141  1.0000
  H   H873      1.0  0.16386  0.54927  0.10009  1.0000
  H   H874      1.0  0.17635  0.57143  0.09131  1.0000
  H   H875      1.0  0.19048  0.54580  0.08763  1.0000
  S   S236      1.0  0.23964  0.50790  0.37072  1.0000
  H   H876      1.0  0.34502  0.60697  0.37378  1.0000
  H   H877      1.0  0.12484  0.56191  0.30765  1.0000
  H   H878      1.0  0.06950  0.63083  0.19796  1.0000
  C   C561      1.0  0.44465  0.52823  0.29076  1.0000
  H   H879      1.0  0.13110  0.52683  0.25933  1.0000
  C   C562      1.0  0.43666  0.67956  0.36995  1.0000
  H   H880      1.0  0.45127  0.68533  0.36937  1.0000
  H   H881      1.0  0.42442  0.69347  0.36684  1.0000
  H   H882      1.0  0.43906  0.67080  0.35692  1.0000
  H   H883      1.0  0.44939  0.63858  0.38077  1.0000
  H   H884      1.0  0.37317  0.68020  0.41857  1.0000
  C   C563      1.0  0.32994  0.61793  0.41149  1.0000
  N   N57       1.0  0.42787  0.54381  0.29979  1.0000
  H   H885      1.0  0.15704  0.53920  0.41217  1.0000
  H   H886      1.0  0.23371  0.62598  0.45914  1.0000
  C   C564      1.0  0.41043  0.66043  0.39057  1.0000
  C   C565      1.0  0.43327  0.54787  0.31874  1.0000
  H   H887      1.0  0.15249  0.52143  0.29719  1.0000
  H   H888      1.0  0.27509  0.53410  0.43891  1.0000
  N   N58       1.0  0.20638  0.63254  0.44482  1.0000
  H   H889      1.0  0.35151  0.58077  0.40512  1.0000
  H   H890      1.0  0.05965  0.51256  0.23879  1.0000
  H   H891      1.0  0.48553  0.68500  0.34886  1.0000
  H   H892      1.0  0.36990  0.61456  0.37079  1.0000
  H   H893      1.0  0.44045  0.56980  0.28032  1.0000
  H   H894      1.0  0.19564  0.57458  0.40045  1.0000
  H   H895      1.0  0.19428  0.58195  0.37335  1.0000
  C   C566      1.0  0.33118  0.69387  0.46420  1.0000
  H   H896      1.0  0.23204  0.61783  0.42431  1.0000
  H   H897      1.0  0.08067  0.59444  0.19129  1.0000
  H   H898      1.0  0.23235  0.53153  0.46444  1.0000
  C   C567      1.0  0.05922  0.49859  0.23234  1.0000
  H   H899      1.0  0.02327  0.58676  0.12265  1.0000
  C   C568      1.0  0.22967  0.49906  0.35190  1.0000
  H   H900      1.0  0.01229  0.64626  0.28555  1.0000
  H   H901      1.0  0.09792  0.50569  0.19109  1.0000
  H   H902      1.0  0.46972  0.71785  0.39589  1.0000
  H   H903      1.0  0.10530  0.61464  0.15145  1.0000
  H   H904      1.0  0.24441  0.55414  0.45790  1.0000
  C   C569      1.0  0.13055  0.59390  0.45250  1.0000
  H   H905      1.0  0.17654  0.64403  0.46197  1.0000
  C   C570      1.0  0.08843  0.50521  0.31554  1.0000
  C   C571      1.0  0.21355  0.48719  0.35851  1.0000
  H   H906      1.0  0.09718  0.64102  0.15590  1.0000
  H   H907      1.0  0.11607  0.57309  0.26377  1.0000
  H   H908      1.0  0.10562  0.53795  0.27163  1.0000
  H   H909      1.0  0.36344  0.62429  0.42453  1.0000
  C   C572      1.0  0.11845  0.55075  0.30153  1.0000
  H   H910      1.0  0.42371  0.66936  0.42246  1.0000
  H   H911      1.0  0.17391  0.55030  0.42289  1.0000
  H   H912      1.0  0.41156  0.65122  0.37819  1.0000
  C   C573      1.0  0.17105  0.57666  0.46024  1.0000
  H   H913      1.0  0.18630  0.52709  0.38525  1.0000
  C   C574      1.0  0.42568  0.56333  0.28457  1.0000
  H   H914      1.0  0.39806  0.67434  0.38789  1.0000
  C   C575      1.0  0.36410  0.62688  0.40742  1.0000
  H   H915      1.0  0.13950  0.57609  0.27113  1.0000
  C   C576      1.0  0.35341  0.61736  0.37880  1.0000
  C   C577      1.0  0.42853  0.67862  0.40694  1.0000
  H   H916      1.0  0.44112  0.52473  0.27643  1.0000
  S   S237      1.0  0.48574  0.56601  0.28697  1.0000
  C   C578      1.0  0.20997  0.65356  0.43429  1.0000
  C   C579      1.0  0.38890  0.69833  0.34482  1.0000
  H   H917      1.0  0.41664  0.69297  0.40497  1.0000
  C   C580      1.0  0.99523  0.61610  0.14038  1.0000
  H   H918      1.0  0.20230  0.65877  0.42034  1.0000
  H   H919      1.0  0.34158  0.73199  0.45673  1.0000
  N   N59       1.0  0.14470  0.68706  0.32706  1.0000
  C   C581      1.0  0.13986  0.66581  0.33127  1.0000
  C   C582      1.0  0.15458  0.69199  0.30513  1.0000
  C   C583      1.0  0.15914  0.68828  0.34070  1.0000
  C   C584      1.0  0.12522  0.70214  0.33115  1.0000
  H   H920      1.0  0.13263  0.66150  0.34776  1.0000
  C   C585      1.0  0.10970  0.71501  0.46452  1.0000
  H   H921      1.0  0.12847  0.66446  0.32174  1.0000
  H   H922      1.0  0.03133  0.72712  0.17541  1.0000
  H   H923      1.0  0.14404  0.69119  0.29448  1.0000
  H   H924      1.0  0.20352  0.66525  0.44472  1.0000
  C   C586      1.0  0.29868  0.71294  0.45433  1.0000
  H   H925      1.0  0.17410  0.67720  0.33799  1.0000
  C   C587      1.0  0.40795  0.53585  0.30510  1.0000
  H   H926      1.0  0.29013  0.70050  0.46377  1.0000
  H   H927      1.0  0.21408  0.60127  0.43836  1.0000
  C   C588      1.0  0.04637  0.48803  0.16232  1.0000
  H   H928      1.0  0.34659  0.63372  0.37296  1.0000
  S   S238      1.0  0.07239  0.51580  0.14574  1.0000
  H   H929      1.0  0.17029  0.56798  0.35838  1.0000
  S   S239      1.0  0.17804  0.49540  0.10510  1.0000
  H   H930      1.0  0.04587  0.63235  0.18839  1.0000
  H   H931      1.0  0.38086  0.62365  0.40027  1.0000
  H   H932      1.0  0.07042  0.51440  0.19204  1.0000
  C   C589      1.0  0.02173  0.60279  0.11346  1.0000
  C   C590      1.0  0.36066  0.59136  0.40867  1.0000
  H   H933      1.0  0.32292  0.63448  0.40677  1.0000
  H   H934      1.0  0.08211  0.58897  0.16587  1.0000
  N   N60       1.0  0.35203  0.61340  0.40159  1.0000
  C   C591      1.0  0.08849  0.71413  0.46708  1.0000
  H   H935      1.0  0.15848  0.70792  0.30138  1.0000
  H   H936      1.0  0.20209  0.54504  0.36937  1.0000
  H   H937      1.0  0.32833  0.61473  0.42868  1.0000
  H   H938      1.0  0.29648  0.59935  0.46650  1.0000
  H   H939      1.0  0.32042  0.60806  0.40726  1.0000
  H   H940      1.0  0.17873  0.57129  0.03523  1.0000
  H   H941      1.0  0.05711  0.59633  0.18145  1.0000
  H   H942      1.0  0.44692  0.51336  0.30190  1.0000
  H   H943      1.0  0.35810  0.64367  0.40232  1.0000
  C   C592      1.0  0.06243  0.63459  0.18363  1.0000
  H   H944      1.0  0.32354  0.68110  0.47415  1.0000
  H   H945      1.0  0.44350  0.68342  0.40713  1.0000
  H   H946      1.0  0.04772  0.62553  0.15291  1.0000
  H   H947      1.0  0.01030  0.64439  0.10912  1.0000
  C   C593      1.0  0.19257  0.54134  0.38503  1.0000
  C   C594      1.0  0.37790  0.68620  0.43037  1.0000
  C   C595      1.0  0.08302  0.50984  0.20163  1.0000
  N   N61       1.0  0.07405  0.62145  0.16823  1.0000
  C   C596      1.0  0.07342  0.59932  0.17707  1.0000
  C   C597      1.0  0.06440  0.62727  0.14934  1.0000
  C   C598      1.0  0.09601  0.62456  0.16284  1.0000
  H   H948      1.0  0.19977  0.48942  0.17550  1.0000
  C   C599      1.0  0.38981  0.70209  0.46080  1.0000
  H   H949      1.0  0.20350  0.53722  0.39640  1.0000
  H   H950      1.0  0.15411  0.65402  0.32803  1.0000
  H   H951      1.0  0.16297  0.70415  0.33816  1.0000
  H   H952      1.0  0.40905  0.52106  0.31649  1.0000
  H   H953      1.0  0.15071  0.56614  0.41473  1.0000
  H   H954      1.0  0.20689  0.62082  0.41709  1.0000
  C   C600      1.0  0.23070  0.49418  0.31654  1.0000
  H   H955      1.0  0.39464  0.70817  0.47249  1.0000
  S   S240      1.0  0.33264  0.63051  0.46550  1.0000
  H   H956      1.0  0.99803  0.67003  0.27361  1.0000
  H   H957      1.0  0.17277  0.59118  0.39222  1.0000
  H   H958      1.0  0.07208  0.49927  0.27256  1.0000
  H   H959      1.0  0.03400  0.50146  0.16164  1.0000
  H   H960      1.0  0.00627  0.62399  0.14498  1.0000
  N   N62       1.0  0.31683  0.71408  0.46333  1.0000
  H   H961      1.0  0.15225  0.68441  0.35739  1.0000
  C   C601      1.0  0.48895  0.65152  0.35543  1.0000
  H   H962      1.0  0.44845  0.55342  0.31535  1.0000
  H   H963      1.0  0.43452  0.53365  0.33084  1.0000
  H   H964      1.0  0.09744  0.49955  0.23820  1.0000
  H   H965      1.0  0.00351  0.63507  0.08866  1.0000
  H   H966      1.0  0.28907  0.51063  0.45190  1.0000
  H   H967      1.0  0.45985  0.53392  0.28651  1.0000
  H   H968      1.0  0.99498  0.64564  0.26840  1.0000
  H   H969      1.0  0.99855  0.65458  0.32035  1.0000
  H   H970      1.0  0.08607  0.65607  0.47075  1.0000
  H   H971      1.0  0.00495  0.68315  0.04591  1.0000
  H   H972      1.0  0.22690  0.65398  0.42910  1.0000
  C   C602      1.0  0.24288  0.53968  0.46954  1.0000
  H   H973      1.0  0.33660  0.68955  0.44854  1.0000
  H   H974      1.0  0.40318  0.53287  0.29114  1.0000
  H   H975      1.0  0.18048  0.61722  0.45947  1.0000
  H   H976      1.0  0.11360  0.70111  0.32173  1.0000
  C   C603      1.0  0.18372  0.63277  0.45124  1.0000
  H   H977      1.0  0.04579  0.50266  0.22383  1.0000
  S   S241      1.0  0.38507  0.64599  0.44989  1.0000
  C   C604      1.0  0.21659  0.62633  0.46334  1.0000
  H   H978      1.0  0.34515  0.69423  0.47071  1.0000
  C   C605      1.0  0.38899  0.68078  0.46361  1.0000
  C   C606      1.0  0.32786  0.73059  0.45030  1.0000
  H   H979      1.0  0.48706  0.72547  0.42183  1.0000
  H   H980      1.0  0.99366  0.62161  0.31243  1.0000
  H   H981      1.0  0.44886  0.72433  0.43023  1.0000
  H   H982      1.0  0.99857  0.59366  0.22056  1.0000
  H   H983      1.0  0.26372  0.51107  0.44608  1.0000
  H   H984      1.0  0.99548  0.60044  0.15031  1.0000
  C   C607      1.0  0.27328  0.52022  0.45125  1.0000
  H   H985      1.0  0.17183  0.49487  0.17931  1.0000
  H   H986      1.0  0.41779  0.72754  0.02646  1.0000
  C   C608      1.0  0.15374  0.57226  0.47517  1.0000
  Fe  Fe125     1.0  0.36208  0.63205  0.47577  1.0000
  N   N63       1.0  0.26338  0.52639  0.47149  1.0000
  H   H987      1.0  0.13327  0.72564  0.47554  1.0000
  H   H988      1.0  0.21026  0.63733  0.47447  1.0000
  C   C609      1.0  0.11690  0.72465  0.47791  1.0000
  H   H989      1.0  0.30358  0.70942  0.43829  1.0000
  C   C610      1.0  0.27678  0.53813  0.47787  1.0000
  H   H990      1.0  0.39333  0.67043  0.47739  1.0000
  H   H991      1.0  0.33380  0.72736  0.43424  1.0000
  S   S242      1.0  0.49090  0.60898  0.36719  1.0000
  S   S243      1.0  0.00106  0.71145  0.64062  1.0000
  S   S244      1.0  0.01311  0.63390  0.60139  1.0000
  N   N64       1.0  0.35535  0.53439  0.54299  1.0000
  Fe  Fe126     1.0  0.00696  0.68339  0.62545  1.0000
  S   S245      1.0  0.02927  0.67822  0.59627  1.0000
  H   H992      1.0  0.28398  0.49604  0.58506  1.0000
  C   C611      1.0  0.39181  0.56814  0.85162  1.0000
  Fe  Fe127     1.0  0.03734  0.64547  0.61255  1.0000
  S   S246      1.0  0.06979  0.62793  0.61513  1.0000
  S   S247      1.0  0.99704  0.68054  0.55563  1.0000
  S   S248      1.0  0.01732  0.65177  0.64272  1.0000
  Fe  Fe128     1.0  0.15887  0.58251  0.53491  1.0000
  S   S249      1.0  0.18007  0.55292  0.52775  1.0000
  S   S250      1.0  0.12385  0.58521  0.54080  1.0000
  Fe  Fe129     1.0  0.19451  0.60750  0.52134  1.0000
  S   S251      1.0  0.21842  0.58040  0.51241  1.0000
  S   S252      1.0  0.19955  0.64025  0.51754  1.0000
  Fe  Fe130     1.0  0.19313  0.57314  0.49889  1.0000
  H   H993      1.0  0.37361  0.50478  0.53745  1.0000
  Fe  Fe131     1.0  0.20321  0.56298  0.54225  1.0000
  C   C612      1.0  0.25345  0.60423  0.58154  1.0000
  S   S253      1.0  0.17069  0.60195  0.50512  1.0000
  S   S254      1.0  0.18066  0.59089  0.55207  1.0000
  H   H994      1.0  0.05892  0.56019  0.65908  1.0000
  H   H995      1.0  0.06808  0.64319  0.49031  1.0000
  Fe  Fe132     1.0  0.41576  0.55176  0.66339  1.0000
  S   S255      1.0  0.39195  0.57886  0.65282  1.0000
  S   S256      1.0  0.40933  0.51911  0.66706  1.0000
  Fe  Fe133     1.0  0.44407  0.57958  0.67122  1.0000
  S   S257      1.0  0.42264  0.60881  0.66023  1.0000
  S   S258      1.0  0.47220  0.57664  0.68701  1.0000
  Fe  Fe134     1.0  0.39692  0.59240  0.67895  1.0000
  S   S259      1.0  0.37118  0.60826  0.70081  1.0000
  Fe  Fe135     1.0  0.41970  0.59251  0.63479  1.0000
  S   S260      1.0  0.41895  0.60975  0.60179  1.0000
  S   S261      1.0  0.41822  0.56411  0.69139  1.0000
  S   S262      1.0  0.44360  0.56442  0.64396  1.0000
  Fe  Fe136     1.0  0.31701  0.63842  0.49648  1.0000
  S   S263      1.0  0.31864  0.60521  0.51234  1.0000
  H   H996      1.0  0.27875  0.66589  0.91500  1.0000
  C   C613      1.0  0.10304  0.73345  0.49402  1.0000
  H   H997      1.0  0.06953  0.66992  0.48997  1.0000
  H   H998      1.0  0.44786  0.50651  0.63854  1.0000
  H   H999      1.0  0.45728  0.64780  0.72715  1.0000
  Fe  Fe137     1.0  0.34917  0.60900  0.51942  1.0000
  S   S264      1.0  0.35406  0.59331  0.55192  1.0000
  H   H1000     1.0  0.31822  0.49089  0.85391  1.0000
  S   S265      1.0  0.34613  0.64302  0.50560  1.0000
  Fe  Fe138     1.0  0.28247  0.53400  0.83143  1.0000
  S   S266      1.0  0.30283  0.54368  0.84964  1.0000
  S   S267      1.0  0.25545  0.51796  0.84881  1.0000
  Fe  Fe139     1.0  0.31034  0.54573  0.79031  1.0000
  S   S268      1.0  0.33304  0.55578  0.80486  1.0000
  S   S269      1.0  0.31690  0.54346  0.75644  1.0000
  Fe  Fe140     1.0  0.32927  0.52751  0.82882  1.0000
  S   S270      1.0  0.47712  0.62848  0.81218  1.0000
  Fe  Fe141     1.0  0.30488  0.57153  0.82429  1.0000
  S   S271      1.0  0.30608  0.60490  0.82626  1.0000
  S   S272      1.0  0.30898  0.51577  0.81267  1.0000
  S   S273      1.0  0.28199  0.56349  0.80768  1.0000
  Fe  Fe142     1.0  0.35501  0.67010  0.88293  1.0000
  S   S274      1.0  0.37263  0.67709  0.90545  1.0000
  S   S275      1.0  0.34416  0.63877  0.89011  1.0000
  Fe  Fe143     1.0  0.35524  0.71324  0.85680  1.0000
  S   S276      1.0  0.37251  0.72364  0.87703  1.0000
  H   H1001     1.0  0.35277  0.51436  0.73323  1.0000
  Fe  Fe144     1.0  0.39209  0.69184  0.87682  1.0000
  S   S277      1.0  0.42671  0.69060  0.87197  1.0000
  Fe  Fe145     1.0  0.35149  0.70828  0.90357  1.0000
  S   S278      1.0  0.33268  0.72434  0.93000  1.0000
  S   S279      1.0  0.37631  0.68254  0.85443  1.0000
  S   S280      1.0  0.33241  0.70021  0.88326  1.0000
  H   H1002     1.0  0.22387  0.49306  0.86703  1.0000
  C   C614      1.0  0.40239  0.51636  0.60886  1.0000
  H   H1003     1.0  0.27575  0.49733  0.48931  1.0000
  H   H1004     1.0  0.33221  0.66663  0.92245  1.0000
  H   H1005     1.0  0.15589  0.56258  0.48997  1.0000
  H   H1006     1.0  0.09737  0.61504  0.49982  1.0000
  H   H1007     1.0  0.35196  0.67132  0.61004  1.0000
  Fe  Fe146     1.0  0.00275  0.66746  0.58811  1.0000
  S   S281      1.0  0.28929  0.66406  0.49854  1.0000
  C   C615      1.0  0.10736  0.62718  0.49672  1.0000
  N   N65       1.0  0.23632  0.60039  0.57267  1.0000
  C   C616      1.0  0.31664  0.61387  0.84431  1.0000
  C   C617      1.0  0.32218  0.63374  0.83909  1.0000
  C   C618      1.0  0.33079  0.64148  0.85286  1.0000
  C   C619      1.0  0.33375  0.62948  0.87213  1.0000
  C   C620      1.0  0.32810  0.60964  0.87746  1.0000
  C   C621      1.0  0.31958  0.60185  0.86362  1.0000
  H   H1008     1.0  0.31983  0.64320  0.82424  1.0000
  H   H1009     1.0  0.33499  0.65680  0.84857  1.0000
  H   H1010     1.0  0.33018  0.60031  0.89242  1.0000
  H   H1011     1.0  0.31495  0.58673  0.86798  1.0000
  C   C622      1.0  0.35558  0.59063  0.71606  1.0000
  C   C623      1.0  0.34556  0.59364  0.73605  1.0000
  C   C624      1.0  0.33358  0.57924  0.74856  1.0000
  C   C625      1.0  0.33119  0.56208  0.74088  1.0000
  C   C626      1.0  0.34058  0.55951  0.72059  1.0000
  C   C627      1.0  0.35308  0.57353  0.70834  1.0000
  H   H1012     1.0  0.34730  0.60695  0.74200  1.0000
  H   H1013     1.0  0.32598  0.58162  0.76402  1.0000
  H   H1014     1.0  0.33837  0.54659  0.71435  1.0000
  H   H1015     1.0  0.36056  0.57127  0.69282  1.0000
  C   C628      1.0  0.40188  0.60430  0.58732  1.0000
  C   C629      1.0  0.39035  0.58826  0.59509  1.0000
  C   C630      1.0  0.37585  0.58510  0.58399  1.0000
  C   C631      1.0  0.37293  0.59772  0.56486  1.0000
  C   C632      1.0  0.38470  0.61355  0.55685  1.0000
  C   C633      1.0  0.39908  0.61686  0.56811  1.0000
  H   H1016     1.0  0.39259  0.57823  0.60965  1.0000
  H   H1017     1.0  0.36688  0.57277  0.59031  1.0000
  H   H1018     1.0  0.38260  0.62335  0.54210  1.0000
  H   H1019     1.0  0.40800  0.62926  0.56194  1.0000
  H   H1020     1.0  0.29216  0.63643  0.95342  1.0000
  C   C634      1.0  0.48347  0.63267  0.69395  1.0000
  H   H1021     1.0  0.39815  0.55660  0.81427  1.0000
  C   C635      1.0  0.46337  0.64597  0.82861  1.0000
  C   C636      1.0  0.47217  0.66220  0.83154  1.0000
  C   C637      1.0  0.46094  0.67573  0.84511  1.0000
  C   C638      1.0  0.44072  0.67338  0.85530  1.0000
  C   C639      1.0  0.43186  0.65732  0.85214  1.0000
  C   C640      1.0  0.44323  0.64355  0.83894  1.0000
  H   H1022     1.0  0.05834  0.72144  0.48591  1.0000
  H   H1023     1.0  0.46795  0.68797  0.84774  1.0000
  H   H1024     1.0  0.41646  0.65515  0.86029  1.0000
  H   H1025     1.0  0.43646  0.63091  0.83684  1.0000
  H   H1026     1.0  0.33476  0.66204  0.63303  1.0000
  H   H1027     1.0  0.47159  0.50069  0.62076  1.0000
  C   C641      1.0  0.36624  0.54631  0.52425  1.0000
  H   H1028     1.0  0.46489  0.62228  0.67634  1.0000
  C   C642      1.0  0.37068  0.48965  0.82574  1.0000
  H   H1029     1.0  0.00340  0.57452  0.65160  1.0000
  C   C643      1.0  0.36386  0.50521  0.74348  1.0000
  C   C644      1.0  0.46740  0.62371  0.76250  1.0000
  S   S282      1.0  0.31181  0.49158  0.54587  1.0000
  C   C645      1.0  0.35885  0.55678  0.85582  1.0000
  C   C646      1.0  0.24521  0.58920  0.55508  1.0000
  H   H1030     1.0  0.27628  0.62435  0.50067  1.0000
  C   C647      1.0  0.24564  0.49997  0.83889  1.0000
  H   H1031     1.0  0.37458  0.73371  0.92595  1.0000
  H   H1032     1.0  0.21058  0.61820  0.55816  1.0000
  H   H1033     1.0  0.32297  0.71960  0.49184  1.0000
  H   H1034     1.0  0.20998  0.58461  0.58253  1.0000
  H   H1035     1.0  0.29875  0.73395  0.48454  1.0000
  C   C648      1.0  0.03199  0.72840  0.61186  1.0000
  C   C649      1.0  0.40147  0.51261  0.64593  1.0000
  C   C650      1.0  0.40656  0.52333  0.62578  1.0000
  C   C651      1.0  0.25340  0.49541  0.81893  1.0000
  C   C652      1.0  0.29558  0.66098  0.91607  1.0000
  H   H1036     1.0  0.45522  0.65771  0.78030  1.0000
  H   H1037     1.0  0.41429  0.53661  0.62316  1.0000
  C   C653      1.0  0.22487  0.64596  0.51156  1.0000
  C   C654      1.0  0.24258  0.63073  0.50776  1.0000
  C   C655      1.0  0.26260  0.63604  0.50366  1.0000
  C   C656      1.0  0.26477  0.65657  0.50331  1.0000
  C   C657      1.0  0.24704  0.67169  0.50684  1.0000
  C   C658      1.0  0.22718  0.66640  0.51097  1.0000
  H   H1038     1.0  0.24088  0.61495  0.50798  1.0000
  H   H1039     1.0  0.06611  0.58136  0.62385  1.0000
  H   H1040     1.0  0.24862  0.68756  0.50656  1.0000
  H   H1041     1.0  0.21353  0.67822  0.51388  1.0000
  H   H1042     1.0  0.04558  0.54451  0.64926  1.0000
  C   C659      1.0  0.25668  0.53033  0.54037  1.0000
  C   C660      1.0  0.27684  0.51869  0.53599  1.0000
  H   H1043     1.0  0.24904  0.53979  0.52797  1.0000
  H   H1044     1.0  0.28485  0.51916  0.52017  1.0000
  H   H1045     1.0  0.11654  0.66545  0.48016  1.0000
  C   C661      1.0  0.28706  0.49949  0.72091  1.0000
  S   S283      1.0  0.22115  0.54390  0.56711  1.0000
  H   H1046     1.0  0.07540  0.66047  0.52668  1.0000
  H   H1047     1.0  0.40407  0.49162  0.70562  1.0000
  C   C662      1.0  0.38676  0.48876  0.63220  1.0000
  C   C663      1.0  0.08475  0.61719  0.59375  1.0000
  C   C664      1.0  0.07531  0.61342  0.57838  1.0000
  C   C665      1.0  0.08746  0.60319  0.56243  1.0000
  C   C666      1.0  0.10915  0.59756  0.56125  1.0000
  C   C667      1.0  0.11863  0.60175  0.57634  1.0000
  C   C668      1.0  0.10639  0.61126  0.59274  1.0000
  H   H1048     1.0  0.05865  0.61798  0.57902  1.0000
  H   H1049     1.0  0.08007  0.59973  0.55089  1.0000
  H   H1050     1.0  0.13532  0.59732  0.57561  1.0000
  H   H1051     1.0  0.11372  0.61411  0.60465  1.0000
  H   H1052     1.0  0.25474  0.57380  0.56011  1.0000
  H   H1053     1.0  0.26369  0.61377  0.56976  1.0000
  H   H1054     1.0  0.25841  0.50852  0.76756  1.0000
  H   H1055     1.0  0.04831  0.59864  0.65346  1.0000
  H   H1056     1.0  0.38300  0.53923  0.52076  1.0000
  H   H1057     1.0  0.38142  0.53446  0.71471  1.0000
  H   H1058     1.0  0.48779  0.66401  0.82372  1.0000
  H   H1059     1.0  0.36459  0.54097  0.86411  1.0000
  H   H1060     1.0  0.36561  0.56255  0.52628  1.0000
  C   C669      1.0  0.33308  0.54407  0.54678  1.0000
  C   C670      1.0  0.35707  0.51279  0.53990  1.0000
  H   H1061     1.0  0.32537  0.54434  0.53343  1.0000
  H   H1062     1.0  0.33121  0.56039  0.54928  1.0000
  H   H1063     1.0  0.32439  0.53528  0.56072  1.0000
  C   C671      1.0  0.08199  0.73170  0.49714  1.0000
  H   H1064     1.0  0.35004  0.51217  0.52636  1.0000
  H   H1065     1.0  0.34870  0.50360  0.55369  1.0000
  N   N66       1.0  0.44853  0.63968  0.76014  1.0000
  S   S284      1.0  0.36788  0.59836  0.49026  1.0000
  C   C672      1.0  0.45294  0.65517  0.74125  1.0000
  C   C673      1.0  0.44245  0.65019  0.77843  1.0000
  C   C674      1.0  0.25641  0.51733  0.57696  1.0000
  C   C675      1.0  0.28812  0.65350  0.95347  1.0000
  H   H1066     1.0  0.46104  0.71313  0.77350  1.0000
  N   N67       1.0  0.38564  0.50354  0.73239  1.0000
  H   H1067     1.0  0.30456  0.66935  0.90207  1.0000
  H   H1068     1.0  0.24732  0.61273  0.59482  1.0000
  H   H1069     1.0  0.34719  0.48587  0.67559  1.0000
  H   H1070     1.0  0.38927  0.53258  0.73924  1.0000
  H   H1071     1.0  0.26680  0.53789  0.72638  1.0000
  H   H1072     1.0  0.05312  0.56534  0.61401  1.0000
  H   H1073     1.0  0.35412  0.58448  0.82145  1.0000
  H   H1074     1.0  0.39831  0.49693  0.76066  1.0000
  H   H1075     1.0  0.29619  0.50586  0.76717  1.0000
  H   H1076     1.0  0.42781  0.61769  0.77227  1.0000
  H   H1077     1.0  0.36385  0.55024  0.56408  1.0000
  H   H1078     1.0  0.35045  0.49905  0.80292  1.0000
  C   C676      1.0  0.22346  0.62047  0.56531  1.0000
  H   H1079     1.0  0.23223  0.57207  0.59417  1.0000
  H   H1080     1.0  0.40775  0.52364  0.71777  1.0000
  Fe  Fe147     1.0  0.99251  0.64202  0.63079  1.0000
  H   H1081     1.0  0.46516  0.70958  0.81002  1.0000
  H   H1082     1.0  0.23265  0.58609  0.54811  1.0000
  H   H1083     1.0  0.02738  0.61032  0.63963  1.0000
  C   C677      1.0  0.07473  0.72235  0.48358  1.0000
  H   H1084     1.0  0.46628  0.66262  0.74178  1.0000
  H   H1085     1.0  0.34605  0.55528  0.84813  1.0000
  C   C678      1.0  0.43137  0.62960  0.75833  1.0000
  H   H1086     1.0  0.26554  0.50316  0.80908  1.0000
  H   H1087     1.0  0.99782  0.71921  0.59576  1.0000
  H   H1088     1.0  0.25527  0.59830  0.54267  1.0000
  H   H1089     1.0  0.24926  0.50802  0.74428  1.0000
  H   H1090     1.0  0.21617  0.62923  0.57819  1.0000
  C   C679      1.0  0.01782  0.72960  0.63044  1.0000
  H   H1091     1.0  0.40483  0.57458  0.84061  1.0000
  C   C680      1.0  0.36711  0.58570  0.82908  1.0000
  H   H1092     1.0  0.21639  0.59536  0.60237  1.0000
  C   C681      1.0  0.47183  0.72458  0.76913  1.0000
  H   H1093     1.0  0.00879  0.58929  0.62625  1.0000
  H   H1094     1.0  0.35726  0.52520  0.57546  1.0000
  C   C682      1.0  0.32272  0.65829  0.93599  1.0000
  C   C683      1.0  0.27966  0.53103  0.73536  1.0000
  H   H1095     1.0  0.25295  0.51182  0.50271  1.0000
  H   H1096     1.0  0.35192  0.56690  0.86766  1.0000
  H   H1097     1.0  0.32772  0.64138  0.93538  1.0000
  H   H1098     1.0  0.47186  0.61477  0.74949  1.0000
  C   C684      1.0  0.08480  0.64542  0.52290  1.0000
  N   N68       1.0  0.30021  0.66512  0.93539  1.0000
  H   H1099     1.0  0.29809  0.69139  0.95026  1.0000
  H   H1100     1.0  0.30188  0.50362  0.71125  1.0000
  C   C685      1.0  0.38525  0.55077  0.82597  1.0000
  H   H1101     1.0  0.43922  0.66769  0.73911  1.0000
  H   H1102     1.0  0.47929  0.64892  0.68742  1.0000
  H   H1103     1.0  0.10018  0.67845  0.50014  1.0000
  H   H1104     1.0  0.37356  0.54827  0.81744  1.0000
  H   H1105     1.0  0.37917  0.59223  0.81679  1.0000
  N   N69       1.0  0.37575  0.56535  0.84060  1.0000
  H   H1106     1.0  0.36071  0.59734  0.83955  1.0000
  H   H1107     1.0  0.23288  0.63064  0.55334  1.0000
  H   H1108     1.0  0.09649  0.64008  0.53351  1.0000
  C   C686      1.0  0.39127  0.52447  0.72583  1.0000
  H   H1109     1.0  0.01291  0.73160  0.56015  1.0000
  H   H1110     1.0  0.38515  0.57910  0.86279  1.0000
  H   H1111     1.0  0.11960  0.62137  0.50667  1.0000
  S   S285      1.0  0.32978  0.48598  0.59929  1.0000
  H   H1112     1.0  0.47221  0.49919  0.64778  1.0000
  H   H1113     1.0  0.04506  0.59308  0.61017  1.0000
  H   H1114     1.0  0.27617  0.53806  0.74970  1.0000
  C   C687      1.0  0.27651  0.50566  0.57257  1.0000
  H   H1115     1.0  0.35928  0.48962  0.74892  1.0000
  N   N70       1.0  0.28216  0.50810  0.74036  1.0000
  H   H1116     1.0  0.36147  0.51297  0.75722  1.0000
  H   H1117     1.0  0.07410  0.63390  0.52664  1.0000
  H   H1118     1.0  0.48789  0.71581  0.76495  1.0000
  H   H1119     1.0  0.03327  0.71589  0.60360  1.0000
  C   C688      1.0  0.29448  0.68766  0.93605  1.0000
  C   C689      1.0  0.22318  0.58761  0.58869  1.0000
  H   H1120     1.0  0.26343  0.58937  0.58725  1.0000
  H   H1121     1.0  0.30334  0.69690  0.92264  1.0000
  C   C690      1.0  0.28672  0.50622  0.55204  1.0000
  H   H1122     1.0  0.24850  0.51666  0.59288  1.0000
  H   H1123     1.0  0.41639  0.48913  0.73855  1.0000
  H   H1124     1.0  0.36591  0.63478  0.60461  1.0000
  C   C691      1.0  0.26258  0.50210  0.75284  1.0000
  H   H1125     1.0  0.43912  0.63894  0.79300  1.0000
  H   H1126     1.0  0.42831  0.66240  0.77722  1.0000
  H   H1127     1.0  0.01631  0.56146  0.63016  1.0000
  H   H1128     1.0  0.38181  0.52719  0.55871  1.0000
  H   H1129     1.0  0.31429  0.50433  0.74344  1.0000
  C   C692      1.0  0.36413  0.63026  0.62179  1.0000
  C   C693      1.0  0.47520  0.61760  0.68767  1.0000
  H   H1130     1.0  0.27105  0.65824  0.95350  1.0000
  S   S286      1.0  0.38950  0.48956  0.59023  1.0000
  C   C694      1.0  0.47603  0.72094  0.80476  1.0000
  H   H1131     1.0  0.37602  0.61613  0.62503  1.0000
  H   H1132     1.0  0.26953  0.54358  0.49275  1.0000
  C   C695      1.0  0.07896  0.65447  0.48745  1.0000
  C   C696      1.0  0.36496  0.53426  0.56107  1.0000
  C   C697      1.0  0.39150  0.49536  0.64910  1.0000
  N   N71       1.0  0.03566  0.57748  0.64116  1.0000
  C   C698      1.0  0.05064  0.57928  0.62145  1.0000
  C   C699      1.0  0.04354  0.55902  0.65571  1.0000
  C   C700      1.0  0.01520  0.57549  0.63710  1.0000
  C   C701      1.0  0.03321  0.59631  0.65036  1.0000
  C   C702      1.0  0.22992  0.48970  0.85155  1.0000
  C   C703      1.0  0.48093  0.59645  0.69549  1.0000
  H   H1133     1.0  0.12018  0.57717  0.48281  1.0000
  H   H1134     1.0  0.43554  0.62161  0.74457  1.0000
  H   H1135     1.0  0.30000  0.64413  0.91496  1.0000
  H   H1136     1.0  0.03257  0.55737  0.67075  1.0000
  H   H1137     1.0  0.39860  0.55309  0.86055  1.0000
  C   C704      1.0  0.29936  0.49978  0.75232  1.0000
  H   H1138     1.0  0.37781  0.50383  0.70268  1.0000
  S   S287      1.0  0.35729  0.50815  0.84126  1.0000
  H   H1139     1.0  0.46515  0.61243  0.77724  1.0000
  H   H1140     1.0  0.02173  0.59585  0.66509  1.0000
  H   H1141     1.0  0.34855  0.62568  0.62763  1.0000
  C   C705      1.0  0.24637  0.52955  0.56089  1.0000
  H   H1142     1.0  0.27759  0.69343  0.93570  1.0000
  H   H1143     1.0  0.29421  0.53610  0.72602  1.0000
  H   H1144     1.0  0.40692  0.52440  0.59327  1.0000
  C   C706      1.0  0.10895  0.66303  0.49671  1.0000
  C   C707      1.0  0.38767  0.49398  0.71388  1.0000
  N   N72       1.0  0.36684  0.64719  0.63162  1.0000
  C   C708      1.0  0.38778  0.65259  0.62338  1.0000
  C   C709      1.0  0.35073  0.66564  0.62705  1.0000
  C   C710      1.0  0.36479  0.64017  0.65428  1.0000
  H   H1145     1.0  0.39053  0.65658  0.60614  1.0000
  H   H1146     1.0  0.40028  0.63930  0.62757  1.0000
  H   H1147     1.0  0.39009  0.66593  0.62971  1.0000
  H   H1148     1.0  0.35227  0.67867  0.63435  1.0000
  H   H1149     1.0  0.34927  0.63579  0.66122  1.0000
  H   H1150     1.0  0.36698  0.65233  0.66237  1.0000
  H   H1151     1.0  0.37669  0.62620  0.65814  1.0000
  N   N73       1.0  0.09502  0.64752  0.50093  1.0000
  H   H1152     1.0  0.35907  0.54710  0.51038  1.0000
  H   H1153     1.0  0.32695  0.66134  0.95020  1.0000
  H   H1154     1.0  0.39166  0.53515  0.83421  1.0000
  H   H1155     1.0  0.48098  0.63085  0.76271  1.0000
  H   H1156     1.0  0.41684  0.64115  0.75656  1.0000
  H   H1157     1.0  0.29129  0.65624  0.96830  1.0000
  H   H1158     1.0  0.41272  0.72243  0.89780  1.0000
  H   H1159     1.0  0.12148  0.65810  0.50638  1.0000
  H   H1160     1.0  0.27452  0.50543  0.71136  1.0000
  H   H1161     1.0  0.23474  0.54454  0.48451  1.0000
  Fe  Fe148     1.0  0.33714  0.59759  0.48199  1.0000
  C   C711      1.0  0.36365  0.48822  0.80785  1.0000
  C   C712      1.0  0.26054  0.50764  0.48729  1.0000
  H   H1162     1.0  0.47553  0.72894  0.81791  1.0000
  C   C713      1.0  0.42621  0.72955  0.89848  1.0000
  H   H1163     1.0  0.29239  0.52861  0.47970  1.0000
  H   H1164     1.0  0.25051  0.49838  0.48296  1.0000
  H   H1165     1.0  0.38756  0.48695  0.66464  1.0000
  H   H1166     1.0  0.44561  0.72983  0.85927  1.0000
  C   C714      1.0  0.39256  0.49904  0.61198  1.0000
  H   H1167     1.0  0.44038  0.71728  0.89660  1.0000
  C   C715      1.0  0.39978  0.49046  0.74626  1.0000
  C   C716      1.0  0.46329  0.49601  0.63677  1.0000
  H   H1168     1.0  0.30124  0.70656  0.49474  1.0000
  C   C717      1.0  0.30962  0.71879  0.48455  1.0000
  H   H1169     1.0  0.26395  0.48489  0.75700  1.0000
  H   H1170     1.0  0.11523  0.62809  0.48026  1.0000
  H   H1171     1.0  0.42402  0.73342  0.91426  1.0000
  C   C718      1.0  0.08581  0.79431  0.00389  1.0000
  C   C719      1.0  0.46973  0.86223  0.25523  1.0000
  Fe  Fe149     1.0  0.19649  0.89209  0.08105  1.0000
  S   S288      1.0  0.20655  0.91655  0.05460  1.0000
  S   S289      1.0  0.22252  0.86894  0.09389  1.0000
  Fe  Fe150     1.0  0.15064  0.91167  0.08427  1.0000
  S   S290      1.0  0.15768  0.93840  0.05865  1.0000
  S   S291      1.0  0.11698  0.91085  0.10035  1.0000
  Fe  Fe151     1.0  0.17847  0.91332  0.04242  1.0000
  S   S292      1.0  0.18131  0.91060  0.00860  1.0000
  Fe  Fe152     1.0  0.18519  0.93915  0.07353  1.0000
  S   S293      1.0  0.19422  0.96960  0.07705  1.0000
  S   S294      1.0  0.17037  0.88668  0.06731  1.0000
  S   S295      1.0  0.17614  0.91467  0.10060  1.0000
  H   H1172     1.0  0.45122  0.73770  0.38364  1.0000
  H   H1173     1.0  0.23023  0.94239  0.09363  1.0000
  C   C720      1.0  0.10116  0.95182  0.05016  1.0000
  S   S296      1.0  0.00964  0.82903  0.10305  1.0000
  S   S297      1.0  0.48070  0.84628  0.35400  1.0000
  Fe  Fe153     1.0  0.02098  0.85850  0.10323  1.0000
  S   S298      1.0  0.05293  0.86011  0.08316  1.0000
  C   C721      1.0  0.47458  0.88187  0.24626  1.0000
  S   S299      1.0  0.01252  0.85710  0.13773  1.0000
  C   C722      1.0  0.33284  0.92817  0.16185  1.0000
  H   H1174     1.0  0.45273  0.91327  0.31796  1.0000
  Fe  Fe154     1.0  0.36868  0.78564  0.36962  1.0000
  S   S300      1.0  0.39524  0.78499  0.38600  1.0000
  S   S301      1.0  0.34444  0.81370  0.36136  1.0000
  H   H1175     1.0  0.08131  0.91156  0.04253  1.0000
  C   C723      1.0  0.06499  0.80017  0.00110  1.0000
  H   H1176     1.0  0.16268  0.87520  0.00706  1.0000
  Fe  Fe155     1.0  0.38681  0.75489  0.40455  1.0000
  N   N74       1.0  0.34264  0.81645  0.18073  1.0000
  Fe  Fe156     1.0  0.41383  0.76564  0.36236  1.0000
  S   S302      1.0  0.44710  0.76692  0.34650  1.0000
  S   S303      1.0  0.35834  0.75746  0.39077  1.0000
  S   S304      1.0  0.38773  0.76783  0.34496  1.0000
  Fe  Fe157     1.0  0.35504  0.92744  0.31251  1.0000
  S   S305      1.0  0.32037  0.93930  0.31553  1.0000
  S   S306      1.0  0.37713  0.89839  0.32331  1.0000
  Fe  Fe158     1.0  0.36603  0.96567  0.28274  1.0000
  C   C724      1.0  0.26058  0.85835  0.99333  1.0000
  S   S307      1.0  0.39629  0.97508  0.26633  1.0000
  Fe  Fe159     1.0  0.32779  0.97045  0.31662  1.0000
  H   H1177     1.0  0.35893  0.84159  0.16626  1.0000
  Fe  Fe160     1.0  0.32710  0.94988  0.28106  1.0000
  S   S308      1.0  0.30499  0.94668  0.26117  1.0000
  S   S309      1.0  0.36179  0.95752  0.31722  1.0000
  S   S310      1.0  0.36076  0.93526  0.27789  1.0000
  H   H1178     1.0  0.41133  0.74628  0.00418  1.0000
  Fe  Fe161     1.0  0.33238  0.84321  0.00654  1.0000
  H   H1179     1.0  0.41705  0.94731  0.30385  1.0000
  C   C725      1.0  0.30605  0.95603  0.15003  1.0000
  Fe  Fe162     1.0  0.34622  0.81048  0.04251  1.0000
  S   S311      1.0  0.33358  0.78588  0.03249  1.0000
  S   S312      1.0  0.36417  0.79840  0.06946  1.0000
  Fe  Fe163     1.0  0.34813  0.79823  0.00009  1.0000
  Fe  Fe164     1.0  0.30611  0.81104  0.02681  1.0000
  S   S313      1.0  0.27220  0.80857  0.03253  1.0000
  S   S314      1.0  0.36245  0.82130  0.01029  1.0000
  S   S315      1.0  0.31725  0.83451  0.03954  1.0000
  Fe  Fe165     1.0  0.40042  0.89594  0.15496  1.0000
  S   S316      1.0  0.37454  0.88004  0.15304  1.0000
  S   S317      1.0  0.40238  0.92532  0.13165  1.0000
  Fe  Fe166     1.0  0.41501  0.86447  0.19119  1.0000
  S   S318      1.0  0.39052  0.84565  0.19151  1.0000
  S   S319      1.0  0.43283  0.85190  0.21828  1.0000
  Fe  Fe167     1.0  0.39813  0.85089  0.15667  1.0000
  S   S320      1.0  0.39913  0.82300  0.14156  1.0000
  Fe  Fe168     1.0  0.36882  0.87602  0.18765  1.0000
  S   S321      1.0  0.33580  0.87753  0.20463  1.0000
  S   S322      1.0  0.42495  0.86685  0.15642  1.0000
  S   S323      1.0  0.39245  0.89471  0.18948  1.0000
  C   C726      1.0  0.37281  0.80732  0.08903  1.0000
  C   C727      1.0  0.38401  0.79218  0.10239  1.0000
  C   C728      1.0  0.39181  0.79758  0.11806  1.0000
  C   C729      1.0  0.38858  0.81827  0.12092  1.0000
  C   C730      1.0  0.37713  0.83369  0.10778  1.0000
  C   C731      1.0  0.36927  0.82822  0.09177  1.0000
  H   H1180     1.0  0.38679  0.77604  0.10061  1.0000
  H   H1181     1.0  0.40057  0.78554  0.12804  1.0000
  H   H1182     1.0  0.37457  0.84977  0.10975  1.0000
  H   H1183     1.0  0.36069  0.84010  0.08153  1.0000
  C   C732      1.0  0.44864  0.86410  0.22869  1.0000
  C   C733      1.0  0.45691  0.85339  0.24645  1.0000
  H   H1184     1.0  0.45346  0.83808  0.25342  1.0000
  N   N75       1.0  0.24038  0.86086  0.98639  1.0000
  C   C734      1.0  0.31410  0.92683  0.24633  1.0000
  C   C735      1.0  0.29982  0.91631  0.24201  1.0000
  C   C736      1.0  0.30670  0.90075  0.22970  1.0000
  C   C737      1.0  0.32782  0.89604  0.22119  1.0000
  C   C738      1.0  0.34206  0.90667  0.22538  1.0000
  C   C739      1.0  0.33526  0.92197  0.23803  1.0000
  H   H1185     1.0  0.28342  0.92008  0.24837  1.0000
  H   H1186     1.0  0.29557  0.89259  0.22658  1.0000
  H   H1187     1.0  0.35829  0.90324  0.21883  1.0000
  H   H1188     1.0  0.34629  0.93041  0.24085  1.0000
  H   H1189     1.0  0.09896  0.78495  0.08570  1.0000
  H   H1190     1.0  0.33161  0.84726  0.16515  1.0000
  H   H1191     1.0  0.28981  0.96456  0.15360  1.0000
  C   C740      1.0  0.35365  0.83715  0.35067  1.0000
  C   C741      1.0  0.37484  0.83809  0.34806  1.0000
  C   C742      1.0  0.38181  0.85705  0.33986  1.0000
  C   C743      1.0  0.36765  0.87511  0.33409  1.0000
  C   C744      1.0  0.34651  0.87415  0.33637  1.0000
  C   C745      1.0  0.33952  0.85518  0.34469  1.0000
  H   H1192     1.0  0.38583  0.82425  0.35257  1.0000
  H   H1193     1.0  0.39820  0.85770  0.33813  1.0000
  H   H1194     1.0  0.33550  0.88801  0.33196  1.0000
  H   H1195     1.0  0.32311  0.85450  0.34671  1.0000
  C   C746      1.0  0.45588  0.78976  0.34727  1.0000
  H   H1196     1.0  0.42268  0.92833  0.26474  1.0000
  H   H1197     1.0  0.03431  0.79199  0.00998  1.0000
  C   C747      1.0  0.35630  0.97905  0.15655  1.0000
  C   C748      1.0  0.45018  0.82324  0.35829  1.0000
  C   C749      1.0  0.44245  0.80600  0.35602  1.0000
  C   C750      1.0  0.41721  0.74418  0.01907  1.0000
  C   C751      1.0  0.29659  0.92506  0.17282  1.0000
  H   H1198     1.0  0.43977  0.83568  0.36527  1.0000
  H   H1199     1.0  0.42612  0.80537  0.36105  1.0000
  C   C752      1.0  0.47122  0.82462  0.35117  1.0000
  H   H1200     1.0  0.31443  0.93747  0.19942  1.0000
  S   S324      1.0  0.33293  0.98151  0.28231  1.0000
  C   C753      1.0  0.31068  0.94935  0.18578  1.0000
  H   H1201     1.0  0.44677  0.89243  0.20632  1.0000
  C   C754      1.0  0.32554  0.80728  0.17728  1.0000
  S   S325      1.0  0.33086  0.87717  0.99321  1.0000
  H   H1202     1.0  0.34935  0.83065  0.14869  1.0000
  C   C755      1.0  0.36874  0.96479  0.16945  1.0000
  C   C756      1.0  0.38315  0.94851  0.16169  1.0000
  C   C757      1.0  0.38540  0.94658  0.14092  1.0000
  C   C758      1.0  0.37335  0.96119  0.12781  1.0000
  C   C759      1.0  0.07899  0.80803  0.46688  1.0000
  H   H1203     1.0  0.36715  0.96618  0.18555  1.0000
  H   H1204     1.0  0.39281  0.93767  0.17170  1.0000
  H   H1205     1.0  0.37517  0.95976  0.11169  1.0000
  N   N76       1.0  0.31154  0.93965  0.16761  1.0000
  C   C760      1.0  0.23539  0.85065  0.07808  1.0000
  C   C761      1.0  0.25552  0.84015  0.08057  1.0000
  C   C762      1.0  0.26677  0.82681  0.06688  1.0000
  C   C763      1.0  0.25763  0.82340  0.05114  1.0000
  C   C764      1.0  0.23703  0.83290  0.04950  1.0000
  C   C765      1.0  0.22610  0.84696  0.06259  1.0000
  H   H1206     1.0  0.26256  0.84264  0.09284  1.0000
  H   H1207     1.0  0.28240  0.81892  0.06871  1.0000
  H   H1208     1.0  0.22958  0.82959  0.03798  1.0000
  H   H1209     1.0  0.21037  0.85466  0.06095  1.0000
  H   H1210     1.0  0.03925  0.85250  0.02508  1.0000
  H   H1211     1.0  0.41209  0.73875  0.06089  1.0000
  C   C766      1.0  0.10031  0.89456  0.09715  1.0000
  C   C767      1.0  0.10650  0.88061  0.08309  1.0000
  C   C768      1.0  0.09191  0.87000  0.07912  1.0000
  C   C769      1.0  0.07112  0.87277  0.08953  1.0000
  C   C770      1.0  0.06513  0.88613  0.10411  1.0000
  C   C771      1.0  0.07962  0.89703  0.10780  1.0000
  H   H1212     1.0  0.12244  0.87824  0.07502  1.0000
  H   H1213     1.0  0.09675  0.85960  0.06791  1.0000
  H   H1214     1.0  0.04921  0.88840  0.11228  1.0000
  H   H1215     1.0  0.07465  0.90772  0.11874  1.0000
  H   H1216     1.0  0.03662  0.79037  0.46098  1.0000
  C   C772      1.0  0.01943  0.75998  0.16954  1.0000
  C   C773      1.0  0.15951  0.90854  0.99835  1.0000
  C   C774      1.0  0.13895  0.88744  0.98774  1.0000
  C   C775      1.0  0.03119  0.84003  0.03515  1.0000
  H   H1217     1.0  0.26536  0.87363  0.99199  1.0000
  C   C776      1.0  0.24502  0.96232  0.10569  1.0000
  H   H1218     1.0  0.30710  0.94945  0.13579  1.0000
  C   C777      1.0  0.00917  0.77371  0.13598  1.0000
  H   H1219     1.0  0.25742  0.94991  0.11021  1.0000
  C   C778      1.0  0.09786  0.94404  0.01737  1.0000
  C   C779      1.0  0.35861  0.97734  0.13568  1.0000
  H   H1220     1.0  0.38050  0.89563  0.24557  1.0000
  H   H1221     1.0  0.34443  0.93874  0.15751  1.0000
  H   H1222     1.0  0.08348  0.95599  0.01642  1.0000
  H   H1223     1.0  0.00261  0.78663  0.12520  1.0000
  N   N77       1.0  0.37964  0.86823  0.26901  1.0000
  H   H1224     1.0  0.37535  0.80728  0.18237  1.0000
  N   N78       1.0  0.46334  0.74696  0.40703  1.0000
  C   C780      1.0  0.37696  0.85516  0.25473  1.0000
  H   H1225     1.0  0.26754  0.88083  0.07945  1.0000
  H   H1226     1.0  0.30058  0.91229  0.18579  1.0000
  H   H1227     1.0  0.39228  0.84864  0.24598  1.0000
  H   H1228     1.0  0.99923  0.82512  0.06228  1.0000
  N   N79       1.0  0.40371  0.75816  0.03281  1.0000
  H   H1229     1.0  0.35107  0.86391  0.29009  1.0000
  H   H1230     1.0  0.46956  0.90804  0.22168  1.0000
  H   H1231     1.0  0.11894  0.90620  0.03205  1.0000
  N   N80       1.0  0.06660  0.78189  0.09272  1.0000
  C   C781      1.0  0.04883  0.78543  0.08159  1.0000
  C   C782      1.0  0.06143  0.79497  0.10907  1.0000
  C   C783      1.0  0.08519  0.78746  0.07788  1.0000
  C   C784      1.0  0.07098  0.75970  0.10225  1.0000
  H   H1232     1.0  0.05233  0.77581  0.06912  1.0000
  H   H1233     1.0  0.04514  0.80201  0.07421  1.0000
  H   H1234     1.0  0.03455  0.78129  0.09228  1.0000
  H   H1235     1.0  0.07443  0.79258  0.11791  1.0000
  H   H1236     1.0  0.05824  0.81186  0.10240  1.0000
  H   H1237     1.0  0.04735  0.79134  0.12047  1.0000
  H   H1238     1.0  0.08243  0.80411  0.07036  1.0000
  H   H1239     1.0  0.08950  0.77785  0.06533  1.0000
  S   S326      1.0  0.40789  0.73554  0.38254  1.0000
  H   H1240     1.0  0.05733  0.75493  0.11360  1.0000
  H   H1241     1.0  0.08440  0.75638  0.11067  1.0000
  H   H1242     1.0  0.07481  0.74940  0.09032  1.0000
  C   C785      1.0  0.33728  0.82289  0.20132  1.0000
  H   H1243     1.0  0.34985  0.82997  0.20434  1.0000
  H   H1244     1.0  0.13527  0.87237  0.98788  1.0000
  H   H1245     1.0  0.33007  0.97599  0.23810  1.0000
  H   H1246     1.0  0.36688  0.79606  0.16424  1.0000
  H   H1247     1.0  0.36040  0.88700  0.29069  1.0000
  H   H1248     1.0  0.08237  0.91950  0.06620  1.0000
  H   H1249     1.0  0.47588  0.85374  0.26890  1.0000
  H   H1250     1.0  0.41866  0.89576  0.29019  1.0000
  H   H1251     1.0  0.47835  0.73917  0.37723  1.0000
  S   S327      1.0  0.38764  0.74163  0.43819  1.0000
  C   C786      1.0  0.39270  0.85554  0.28409  1.0000
  H   H1252     1.0  0.04528  0.75979  0.03417  1.0000
  C   C787      1.0  0.00778  0.84424  0.01072  1.0000
  C   C788      1.0  0.44600  0.74120  0.42357  1.0000
  H   H1253     1.0  0.03747  0.81396  0.46954  1.0000
  C   C789      1.0  0.41182  0.75500  0.05243  1.0000
  H   H1254     1.0  0.46789  0.91243  0.29253  1.0000
  C   C790      1.0  0.21349  0.97385  0.09012  1.0000
  S   S328      1.0  0.49117  0.89337  0.25649  1.0000
  H   H1255     1.0  0.27312  0.84863  0.98393  1.0000
  C   C791      1.0  0.02513  0.74006  0.16438  1.0000
  C   C792      1.0  0.22961  0.95798  0.09626  1.0000
  H   H1256     1.0  0.45059  0.92085  0.26178  1.0000
  S   S329      1.0  0.08547  0.74134  0.04655  1.0000
  H   H1257     1.0  0.09286  0.76841  0.46111  1.0000
  C   C793      1.0  0.38997  0.88561  0.25698  1.0000
  C   C794      1.0  0.01167  0.77685  0.15532  1.0000
  C   C795      1.0  0.26405  0.89708  0.07107  1.0000
  C   C796      1.0  0.08187  0.92519  0.04946  1.0000
  H   H1258     1.0  0.22010  0.84129  0.98240  1.0000
  N   N81       1.0  0.27378  0.89897  0.04894  1.0000
  C   C797      1.0  0.26629  0.88473  0.03906  1.0000
  C   C798      1.0  0.29672  0.89344  0.04717  1.0000
  C   C799      1.0  0.26806  0.92063  0.03840  1.0000
  H   H1259     1.0  0.27287  0.88626  0.02223  1.0000
  H   H1260     1.0  0.24895  0.88779  0.04089  1.0000
  H   H1261     1.0  0.30303  0.90403  0.05416  1.0000
  H   H1262     1.0  0.30154  0.87726  0.05520  1.0000
  H   H1263     1.0  0.30456  0.89433  0.03065  1.0000
  H   H1264     1.0  0.32279  0.79338  0.18927  1.0000
  H   H1265     1.0  0.27322  0.93183  0.04565  1.0000
  H   H1266     1.0  0.27530  0.92270  0.02170  1.0000
  C   C800      1.0  0.07739  0.76364  0.02876  1.0000
  H   H1267     1.0  0.01624  0.85624  0.00030  1.0000
  H   H1268     1.0  0.29657  0.91774  0.15932  1.0000
  C   C801      1.0  0.34566  0.83481  0.16449  1.0000
  C   C802      1.0  0.04667  0.80200  0.46018  1.0000
  C   C803      1.0  0.36210  0.80089  0.17976  1.0000
  H   H1269     1.0  0.33773  0.91606  0.17492  1.0000
  H   H1270     1.0  0.29495  0.95850  0.19033  1.0000
  H   H1271     1.0  0.32280  0.83484  0.20254  1.0000
  H   H1272     1.0  0.39235  0.89569  0.26730  1.0000
  C   C804      1.0  0.45310  0.88396  0.21995  1.0000
  N   N82       1.0  0.10005  0.93514  0.03912  1.0000
  H   H1273     1.0  0.11469  0.95970  0.04278  1.0000
  S   S330      1.0  0.00549  0.80156  0.16225  1.0000
  C   C805      1.0  0.99797  0.86304  0.03940  1.0000
  H   H1274     1.0  0.43116  0.88968  0.31248  1.0000
  H   H1275     1.0  0.10306  0.94547  0.06660  1.0000
  N   N83       1.0  0.06623  0.79205  0.46801  1.0000
  H   H1276     1.0  0.15333  0.94127  0.98614  1.0000
  H   H1277     1.0  0.44398  0.77337  0.39200  1.0000
  C   C806      1.0  0.07808  0.77627  0.45539  1.0000
  H   H1278     1.0  0.41368  0.92359  0.32193  1.0000
  H   H1279     1.0  0.44663  0.88830  0.28719  1.0000
  H   H1280     1.0  0.40170  0.93028  0.29924  1.0000
  H   H1281     1.0  0.03997  0.82503  0.03072  1.0000
  H   H1282     1.0  0.03270  0.83998  0.05144  1.0000
  C   C807      1.0  0.40342  0.77999  0.02236  1.0000
  H   H1283     1.0  0.41933  0.78401  0.01849  1.0000
  H   H1284     1.0  0.08228  0.78333  0.43884  1.0000
  H   H1285     1.0  0.25084  0.92523  0.03927  1.0000
  H   H1286     1.0  0.01263  0.75121  0.11607  1.0000
  H   H1287     1.0  0.31065  0.81867  0.17779  1.0000
  H   H1288     1.0  0.10807  0.77174  0.01992  1.0000
  H   H1289     1.0  0.23549  0.83033  0.00251  1.0000
  H   H1290     1.0  0.33488  0.80947  0.21402  1.0000
  H   H1291     1.0  0.02122  0.76236  0.18455  1.0000
  H   H1292     1.0  0.33410  0.92036  0.14837  1.0000
  H   H1293     1.0  0.36043  0.78668  0.19163  1.0000
  C   C808      1.0  0.46604  0.89276  0.22869  1.0000
  H   H1294     1.0  0.28038  0.93313  0.17763  1.0000
  H   H1295     1.0  0.06693  0.93627  0.04850  1.0000
  H   H1296     1.0  0.39701  0.78305  0.00767  1.0000
  C   C809      1.0  0.35899  0.87659  0.28023  1.0000
  C   C810      1.0  0.05040  0.78769  0.01219  1.0000
  H   H1297     1.0  0.32217  0.96001  0.18255  1.0000
  S   S331      1.0  0.31954  0.82126  0.99352  1.0000
  H   H1298     1.0  0.45544  0.93702  0.29989  1.0000
  H   H1299     1.0  0.42793  0.75839  0.04964  1.0000
  H   H1300     1.0  0.36721  0.86427  0.24310  1.0000
  H   H1301     1.0  0.43808  0.94558  0.26885  1.0000
  H   H1302     1.0  0.06899  0.76386  0.45599  1.0000
  H   H1303     1.0  0.26953  0.90737  0.07914  1.0000
  H   H1304     1.0  0.00765  0.81062  0.04126  1.0000
  C   C811      1.0  0.43663  0.92889  0.27121  1.0000
  C   C812      1.0  0.05659  0.76943  0.02590  1.0000
  C   C813      1.0  0.01488  0.75369  0.13081  1.0000
  H   H1305     1.0  0.08258  0.81654  0.45078  1.0000
  H   H1306     1.0  0.38524  0.84248  0.29378  1.0000
  H   H1307     1.0  0.40832  0.84874  0.27613  1.0000
  H   H1308     1.0  0.22240  0.86406  0.01663  1.0000
  C   C814      1.0  0.11940  0.91951  0.03950  1.0000
  H   H1309     1.0  0.40551  0.87981  0.24816  1.0000
  H   H1310     1.0  0.34847  0.88580  0.26936  1.0000
  C   C815      1.0  0.47693  0.79117  0.34012  1.0000
  H   H1311     1.0  0.25988  0.85042  0.00976  1.0000
  H   H1312     1.0  0.32919  0.80226  0.16184  1.0000
  H   H1313     1.0  0.36928  0.84185  0.26331  1.0000
  C   C816      1.0  0.09195  0.77615  0.01777  1.0000
  H   H1314     1.0  0.29583  0.97963  0.22708  1.0000
  H   H1315     1.0  0.27105  0.86821  0.04614  1.0000
  H   H1316     1.0  0.43349  0.74727  0.01522  1.0000
  H   H1317     1.0  0.31660  0.96772  0.14615  1.0000
  H   H1318     1.0  0.24674  0.90142  0.07297  1.0000
  H   H1319     1.0  0.39522  0.86502  0.29493  1.0000
  C   C817      1.0  0.23558  0.84009  0.98687  1.0000
  C   C818      1.0  0.15439  0.88907  0.99872  1.0000
  N   N84       1.0  0.43473  0.91935  0.29339  1.0000
  C   C819      1.0  0.43273  0.89728  0.29587  1.0000
  C   C820      1.0  0.45350  0.92060  0.30132  1.0000
  C   C821      1.0  0.41603  0.93064  0.30518  1.0000
  H   H1320     1.0  0.37182  0.76349  0.04810  1.0000
  H   H1321     1.0  0.09715  0.80384  0.99552  1.0000
  C   C822      1.0  0.38230  0.75355  0.03735  1.0000
  C   C823      1.0  0.14907  0.92628  0.98704  1.0000
  H   H1322     1.0  0.09703  0.93176  0.00868  1.0000
  C   C824      1.0  0.45863  0.76943  0.39866  1.0000
  H   H1323     1.0  0.99861  0.86285  0.05594  1.0000
  C   C825      1.0  0.48458  0.80866  0.34188  1.0000
  C   C826      1.0  0.22374  0.87226  0.00029  1.0000
  H   H1324     1.0  0.12207  0.91316  0.05563  1.0000
  H   H1325     1.0  0.40190  0.76550  0.06302  1.0000
  H   H1326     1.0  0.13331  0.92640  0.03126  1.0000
  H   H1327     1.0  0.11137  0.95161  0.00908  1.0000
  H   H1328     1.0  0.08676  0.96385  0.05042  1.0000
  H   H1329     1.0  0.04982  0.80988  0.44376  1.0000
  H   H1330     1.0  0.48738  0.77868  0.33343  1.0000
  N   N85       1.0  0.00909  0.84329  0.03269  1.0000
  H   H1331     1.0  0.45661  0.77911  0.41085  1.0000
  H   H1332     1.0  0.09414  0.80090  0.47215  1.0000
  C   C827      1.0  0.02316  0.73693  0.14493  1.0000
  H   H1333     1.0  0.39360  0.79096  0.03245  1.0000
  H   H1334     1.0  0.22655  0.88819  0.00000  1.0000
  C   C828      1.0  0.99933  0.82586  0.04551  1.0000
  H   H1335     1.0  0.37544  0.75635  0.02294  1.0000
  H   H1336     1.0  0.20825  0.87405  0.99563  1.0000
  H   H1337     1.0  0.44361  0.75007  0.43649  1.0000
  S   S332      1.0  0.03118  0.73648  0.07887  1.0000
  C   C829      1.0  0.48295  0.74234  0.41554  1.0000
  H   H1338     1.0  0.01486  0.82913  0.00553  1.0000
  Fe  Fe169     1.0  0.99945  0.82887  0.13718  1.0000
  H   H1339     1.0  0.07079  0.81972  0.47694  1.0000
  S   S333      1.0  0.05640  0.82355  0.98489  1.0000
  Fe  Fe170     1.0  0.37989  0.73953  0.36773  1.0000
  C   C830      1.0  0.24446  0.98247  0.10944  1.0000
  H   H1340     1.0  0.47131  0.77440  0.38606  1.0000
  H   H1341     1.0  0.48176  0.75118  0.42826  1.0000
  H   H1342     1.0  0.00485  0.87654  0.02997  1.0000
  H   H1343     1.0  0.31749  0.74607  0.44908  1.0000
  H   H1344     1.0  0.43099  0.74459  0.41758  1.0000
  H   H1345     1.0  0.38193  0.73709  0.04487  1.0000
  H   H1346     1.0  0.32723  0.77079  0.97972  1.0000
  H   H1347     1.0  0.99131  0.84789  0.00815  1.0000
  C   C831      1.0  0.46576  0.73486  0.39026  1.0000
  C   C832      1.0  0.48940  0.78951  0.85558  1.0000
  Fe  Fe171     1.0  0.45516  0.79417  0.82113  1.0000
  S   S334      1.0  0.45765  0.80121  0.78666  1.0000
  H   H1348     1.0  0.11834  0.95558  0.54800  1.0000
  Fe  Fe172     1.0  0.42016  0.83044  0.82817  1.0000
  S   S335      1.0  0.41964  0.84079  0.79409  1.0000
  S   S336      1.0  0.39846  0.84592  0.85342  1.0000
  Fe  Fe173     1.0  0.42278  0.80669  0.79360  1.0000
  S   S337      1.0  0.40516  0.79344  0.77583  1.0000
  Fe  Fe174     1.0  0.45474  0.83429  0.79032  1.0000
  S   S338      1.0  0.47529  0.85634  0.77012  1.0000
  S   S339      1.0  0.42054  0.79689  0.82790  1.0000
  S   S340      1.0  0.45500  0.82683  0.82461  1.0000
  Fe  Fe175     1.0  0.24566  0.86123  0.91065  1.0000
  S   S341      1.0  0.23694  0.89588  0.90834  1.0000
  S   S342      1.0  0.22871  0.84102  0.93719  1.0000
  Fe  Fe176     1.0  0.28037  0.86400  0.87341  1.0000
  S   S343      1.0  0.27455  0.89888  0.86759  1.0000
  S   S344      1.0  0.30395  0.84375  0.85350  1.0000
  Fe  Fe177     1.0  0.27145  0.89514  0.90225  1.0000
  S   S345      1.0  0.28457  0.91585  0.91678  1.0000
  Fe  Fe178     1.0  0.24054  0.89654  0.87414  1.0000
  S   S346      1.0  0.21708  0.91358  0.85356  1.0000
  S   S347      1.0  0.28002  0.86036  0.90754  1.0000
  S   S348      1.0  0.24665  0.86177  0.87698  1.0000
  H   H1349     1.0  0.28850  0.87454  0.94197  1.0000
  Fe  Fe179     1.0  0.06231  0.80921  0.53167  1.0000
  S   S349      1.0  0.07046  0.81722  0.55940  1.0000
  S   S350      1.0  0.03627  0.82889  0.51627  1.0000
  Fe  Fe180     1.0  0.09563  0.77093  0.52986  1.0000
  S   S351      1.0  0.10688  0.77532  0.55814  1.0000
  Fe  Fe181     1.0  0.07292  0.78307  0.57152  1.0000
  H   H1350     1.0  0.17233  0.97113  0.81635  1.0000
  Fe  Fe182     1.0  0.10370  0.80938  0.54448  1.0000
  S   S352      1.0  0.12854  0.82713  0.54698  1.0000
  S   S353      1.0  0.06173  0.77558  0.54482  1.0000
  S   S354      1.0  0.09542  0.80453  0.51509  1.0000
  Fe  Fe183     1.0  0.15911  0.95223  0.59299  1.0000
  S   S355      1.0  0.12530  0.96191  0.58977  1.0000
  C   C833      1.0  0.11016  0.96339  0.70903  1.0000
  Fe  Fe184     1.0  0.14961  0.91594  0.62738  1.0000
  S   S356      1.0  0.11541  0.92323  0.62657  1.0000
  S   S357      1.0  0.16285  0.88805  0.64896  1.0000
  Fe  Fe185     1.0  0.12514  0.92786  0.59212  1.0000
  S   S358      1.0  0.10672  0.91670  0.57293  1.0000
  Fe  Fe186     1.0  0.11913  0.95623  0.62445  1.0000
  H   H1351     1.0  0.40773  0.76418  0.81441  1.0000
  S   S359      1.0  0.15939  0.91836  0.59285  1.0000
  S   S360      1.0  0.15292  0.94861  0.62777  1.0000
  Fe  Fe187     1.0  0.05611  0.91351  0.75576  1.0000
  S   S361      1.0  0.07654  0.88583  0.77097  1.0000
  S   S362      1.0  0.06466  0.94533  0.75323  1.0000
  Fe  Fe188     1.0  0.02939  0.88631  0.74389  1.0000
  S   S363      1.0  0.04790  0.85698  0.75882  1.0000
  Fe  Fe189     1.0  0.04676  0.87397  0.78491  1.0000
  S   S364      1.0  0.04017  0.85698  0.81806  1.0000
  Fe  Fe190     1.0  0.07587  0.87163  0.74359  1.0000
  S   S365      1.0  0.10478  0.85148  0.72984  1.0000
  S   S366      1.0  0.02601  0.90260  0.77135  1.0000
  S   S367      1.0  0.05769  0.90013  0.72697  1.0000
  Fe  Fe191     1.0  0.08015  0.83961  0.96132  1.0000
  S   S368      1.0  0.07142  0.87405  0.95009  1.0000
  C   C834      1.0  0.13494  0.93556  0.51600  1.0000
  Fe  Fe192     1.0  0.12118  0.83630  0.93256  1.0000
  S   S369      1.0  0.11607  0.87021  0.91962  1.0000
  S   S370      1.0  0.14953  0.81796  0.91587  1.0000
  Fe  Fe193     1.0  0.10435  0.87516  0.95239  1.0000
  H   H1352     1.0  0.48134  0.76269  0.76623  1.0000
  Fe  Fe194     1.0  0.08379  0.86652  0.91812  1.0000
  S   S371      1.0  0.07374  0.88554  0.88840  1.0000
  S   S372      1.0  0.11242  0.84122  0.96579  1.0000
  S   S373      1.0  0.08966  0.83205  0.92901  1.0000
  N   N86       1.0  0.11323  0.94332  0.70177  1.0000
  H   H1353     1.0  0.33876  0.84357  0.90753  1.0000
  H   H1354     1.0  0.36186  0.81240  0.92306  1.0000
  H   H1355     1.0  0.05206  0.95352  0.89506  1.0000
  S   S374      1.0  0.09443  0.97659  0.64342  1.0000
  S   S375      1.0  0.18044  0.97188  0.56982  1.0000
  C   C835      1.0  0.04994  0.86473  0.83745  1.0000
  C   C836      1.0  0.05869  0.88276  0.83332  1.0000
  C   C837      1.0  0.06587  0.88887  0.84911  1.0000
  C   C838      1.0  0.06471  0.87687  0.86910  1.0000
  C   C839      1.0  0.05623  0.85864  0.87321  1.0000
  C   C840      1.0  0.04873  0.85270  0.85746  1.0000
  H   H1356     1.0  0.05959  0.89224  0.81804  1.0000
  H   H1357     1.0  0.07227  0.90306  0.84576  1.0000
  H   H1358     1.0  0.05499  0.84941  0.88860  1.0000
  H   H1359     1.0  0.04184  0.83881  0.86083  1.0000
  C   C841      1.0  0.02965  0.76062  0.63346  1.0000
  H   H1360     1.0  0.47332  0.79704  0.85880  1.0000
  H   H1361     1.0  0.06614  0.96710  0.90664  1.0000
  C   C842      1.0  0.14611  0.87861  0.67134  1.0000
  C   C843      1.0  0.15382  0.86064  0.68437  1.0000
  C   C844      1.0  0.14091  0.85241  0.70216  1.0000
  C   C845      1.0  0.12025  0.86225  0.70724  1.0000
  C   C846      1.0  0.11238  0.88015  0.69416  1.0000
  C   C847      1.0  0.12529  0.88828  0.67617  1.0000
  H   H1362     1.0  0.16986  0.85304  0.68074  1.0000
  H   H1363     1.0  0.14703  0.83850  0.71218  1.0000
  H   H1364     1.0  0.09631  0.88753  0.69781  1.0000
  H   H1365     1.0  0.11912  0.90203  0.66618  1.0000
  C   C848      1.0  0.12209  0.85188  0.55454  1.0000
  C   C849      1.0  0.13797  0.86083  0.55831  1.0000
  C   C850      1.0  0.13342  0.88048  0.56440  1.0000
  C   C851      1.0  0.11296  0.89148  0.56647  1.0000
  C   C852      1.0  0.09713  0.88265  0.56250  1.0000
  C   C853      1.0  0.10161  0.86284  0.55676  1.0000
  H   H1366     1.0  0.15388  0.85250  0.55644  1.0000
  H   H1367     1.0  0.14582  0.88724  0.56708  1.0000
  H   H1368     1.0  0.08130  0.89118  0.56380  1.0000
  H   H1369     1.0  0.08931  0.85624  0.55365  1.0000
  C   C854      1.0  0.01439  0.83577  0.53487  1.0000
  H   H1370     1.0  0.40559  0.76841  0.90028  1.0000
  C   C855      1.0  0.99406  0.83020  0.56967  1.0000
  H   H1371     1.0  0.43358  0.75537  0.84884  1.0000
  C   C856      1.0  0.07678  0.97730  0.79375  1.0000
  H   H1372     1.0  0.19413  0.96635  0.60968  1.0000
  H   H1373     1.0  0.00904  0.84131  0.75745  1.0000
  C   C857      1.0  0.35929  0.85406  0.94596  1.0000
  H   H1374     1.0  0.19260  0.89702  0.93975  1.0000
  H   H1375     1.0  0.02305  0.81061  0.55927  1.0000
  S   S376      1.0  0.11272  0.74676  0.50944  1.0000
  S   S377      1.0  0.06479  0.97866  0.83581  1.0000
  C   C858      1.0  0.15939  0.95943  0.50844  1.0000
  H   H1376     1.0  0.02911  0.83769  0.58935  1.0000
  N   N87       1.0  0.17170  0.89359  0.92057  1.0000
  C   C859      1.0  0.20801  0.83195  0.93144  1.0000
  C   C860      1.0  0.19168  0.82684  0.94740  1.0000
  C   C861      1.0  0.17371  0.82227  0.94274  1.0000
  C   C862      1.0  0.17244  0.82197  0.92220  1.0000
  C   C863      1.0  0.18924  0.82591  0.90640  1.0000
  C   C864      1.0  0.20692  0.83110  0.91100  1.0000
  H   H1377     1.0  0.19253  0.82726  0.96328  1.0000
  H   H1378     1.0  0.16082  0.81899  0.95503  1.0000
  H   H1379     1.0  0.18837  0.82551  0.89052  1.0000
  H   H1380     1.0  0.21966  0.83443  0.89869  1.0000
  C   C865      1.0  0.29677  0.90469  0.93835  1.0000
  C   C866      1.0  0.29649  0.88397  0.94781  1.0000
  C   C867      1.0  0.37673  0.84828  0.91169  1.0000
  C   C868      1.0  0.19665  0.94168  0.87920  1.0000
  H   H1381     1.0  0.17161  0.94839  0.50018  1.0000
  C   C869      1.0  0.30702  0.91687  0.94615  1.0000
  H   H1382     1.0  0.25361  0.86430  0.95398  1.0000
  H   H1383     1.0  0.09547  0.92629  0.69006  1.0000
  H   H1384     1.0  0.30724  0.93294  0.93889  1.0000
  C   C870      1.0  0.37217  0.84661  0.85220  1.0000
  C   C871      1.0  0.36693  0.83439  0.84010  1.0000
  C   C872      1.0  0.34592  0.83403  0.84018  1.0000
  C   C873      1.0  0.33005  0.84585  0.85236  1.0000
  C   C874      1.0  0.33524  0.85846  0.86413  1.0000
  C   C875      1.0  0.35629  0.85889  0.86396  1.0000
  H   H1385     1.0  0.37903  0.82523  0.83061  1.0000
  H   H1386     1.0  0.34206  0.82467  0.83061  1.0000
  H   H1387     1.0  0.32304  0.86795  0.87323  1.0000
  H   H1388     1.0  0.36025  0.86897  0.87272  1.0000
  C   C876      1.0  0.38826  0.77710  0.79121  1.0000
  C   C877      1.0  0.36976  0.77655  0.78469  1.0000
  C   C878      1.0  0.02062  0.81709  0.62834  1.0000
  S   S378      1.0  0.05918  0.77883  0.60540  1.0000
  C   C879      1.0  0.00919  0.85094  0.71092  1.0000
  H   H1389     1.0  0.36588  0.78639  0.77048  1.0000
  H   H1390     1.0  0.08933  0.94508  0.85825  1.0000
  H   H1391     1.0  0.32578  0.84774  0.93302  1.0000
  H   H1392     1.0  0.17834  0.93048  0.83972  1.0000
  H   H1393     1.0  0.99816  0.84009  0.81449  1.0000
  H   H1394     1.0  0.08080  0.94054  0.70990  1.0000
  C   C880      1.0  0.02796  0.84750  0.63756  1.0000
  N   N88       1.0  0.35926  0.84358  0.92854  1.0000
  C   C881      1.0  0.31723  0.90833  0.96313  1.0000
  H   H1395     1.0  0.15952  0.86510  0.92737  1.0000
  C   C882      1.0  0.34310  0.74005  0.94226  1.0000
  H   H1396     1.0  0.14861  0.95716  0.85124  1.0000
  H   H1397     1.0  0.17545  0.86744  0.94513  1.0000
  H   H1398     1.0  0.99540  0.81981  0.76732  1.0000
  H   H1399     1.0  0.03641  0.80850  0.63081  1.0000
  C   C883      1.0  0.06579  0.95351  0.77648  1.0000
  C   C884      1.0  0.05551  0.94465  0.79566  1.0000
  C   C885      1.0  0.05550  0.95237  0.81373  1.0000
  H   H1400     1.0  0.00160  0.86219  0.51394  1.0000
  H   H1401     1.0  0.04718  0.93212  0.79654  1.0000
  H   H1402     1.0  0.04717  0.94564  0.82842  1.0000
  H   H1403     1.0  0.01819  0.83839  0.79234  1.0000
  H   H1404     1.0  0.03529  0.86002  0.59621  1.0000
  C   C886      1.0  0.19620  0.93225  0.86253  1.0000
  C   C887      1.0  0.18873  0.88504  0.90500  1.0000
  H   H1405     1.0  0.18323  0.87562  0.89599  1.0000
  H   H1406     1.0  0.20153  0.87476  0.91247  1.0000
  H   H1407     1.0  0.44451  0.75909  0.77761  1.0000
  H   H1408     1.0  0.02896  0.77274  0.64218  1.0000
  C   C888      1.0  0.17880  0.93791  0.85251  1.0000
  H   H1409     1.0  0.09622  0.91295  0.90918  1.0000
  H   H1410     1.0  0.14648  0.92368  0.50823  1.0000
  H   H1411     1.0  0.37653  0.81463  0.94200  1.0000
  H   H1412     1.0  0.14484  0.94537  0.68679  1.0000
  C   C889      1.0  0.36107  0.75062  0.81487  1.0000
  H   H1413     1.0  0.08229  0.93217  0.92450  1.0000
  N   N89       1.0  0.14529  0.94827  0.52500  1.0000
  N   N90       1.0  0.31310  0.77990  0.86701  1.0000
  C   C890      1.0  0.32550  0.78827  0.87826  1.0000
  C   C891      1.0  0.31974  0.78585  0.84440  1.0000
  C   C892      1.0  0.29072  0.78841  0.87272  1.0000
  C   C893      1.0  0.31650  0.75699  0.87270  1.0000
  H   H1414     1.0  0.32121  0.78367  0.89535  1.0000
  H   H1415     1.0  0.32298  0.80555  0.87470  1.0000
  H   H1416     1.0  0.34249  0.78258  0.87383  1.0000
  H   H1417     1.0  0.33681  0.78080  0.83966  1.0000
  H   H1418     1.0  0.31177  0.77859  0.83539  1.0000
  H   H1419     1.0  0.31616  0.80301  0.83935  1.0000
  H   H1420     1.0  0.28099  0.78246  0.86438  1.0000
  H   H1421     1.0  0.28763  0.80571  0.86865  1.0000
  H   H1422     1.0  0.28516  0.78426  0.88967  1.0000
  H   H1423     1.0  0.31174  0.75185  0.88965  1.0000
  H   H1424     1.0  0.33322  0.75023  0.86852  1.0000
  H   H1425     1.0  0.30767  0.75000  0.86428  1.0000
  N   N91       1.0  0.02057  0.83964  0.62178  1.0000
  S   S379      1.0  0.00076  0.88649  0.72949  1.0000
  H   H1426     1.0  0.31352  0.74941  0.96118  1.0000
  H   H1427     1.0  0.01602  0.81030  0.61645  1.0000
  H   H1428     1.0  0.05551  0.74271  0.58945  1.0000
  H   H1429     1.0  0.40963  0.77791  0.87283  1.0000
  C   C894      1.0  0.00387  0.83745  0.69988  1.0000
  C   C895      1.0  0.04460  0.74365  0.60380  1.0000
  H   H1430     1.0  0.00413  0.81730  0.80244  1.0000
  C   C896      1.0  0.99916  0.85065  0.61974  1.0000
  C   C897      1.0  0.07654  0.96976  0.77563  1.0000
  C   C898      1.0  0.01166  0.82420  0.55502  1.0000
  H   H1431     1.0  0.14955  0.88180  0.94615  1.0000
  C   C899      1.0  0.17966  0.90634  0.93178  1.0000
  H   H1432     1.0  0.16517  0.94366  0.54778  1.0000
  C   C900      1.0  0.24163  0.87272  0.96502  1.0000
  H   H1433     1.0  0.24572  0.88831  0.96392  1.0000
  H   H1434     1.0  0.19555  0.89756  0.89375  1.0000
  H   H1435     1.0  0.07558  0.77496  0.49648  1.0000
  H   H1436     1.0  0.09782  0.96406  0.72304  1.0000
  H   H1437     1.0  0.34877  0.81668  0.94849  1.0000
  H   H1438     1.0  0.32534  0.91782  0.96887  1.0000
  H   H1439     1.0  0.02367  0.84684  0.71696  1.0000
  N   N92       1.0  0.42806  0.74809  0.88216  1.0000
  H   H1440     1.0  0.18573  0.91969  0.92106  1.0000
  C   C901      1.0  0.16370  0.87623  0.93543  1.0000
  H   H1441     1.0  0.12555  0.94536  0.50439  1.0000
  H   H1442     1.0  0.10549  0.97672  0.69680  1.0000
  C   C902      1.0  0.37199  0.75398  0.94815  1.0000
  H   H1443     1.0  0.01771  0.84477  0.65297  1.0000
  H   H1444     1.0  0.14849  0.89752  0.90140  1.0000
  H   H1445     1.0  0.35650  0.87132  0.94134  1.0000
  H   H1446     1.0  0.21890  0.97148  0.80872  1.0000
  N   N93       1.0  0.08512  0.94243  0.89144  1.0000
  C   C903      1.0  0.06692  0.95941  0.89318  1.0000
  C   C904      1.0  0.08612  0.93362  0.87265  1.0000
  C   C905      1.0  0.08291  0.92611  0.91004  1.0000
  C   C906      1.0  0.10448  0.95060  0.88989  1.0000
  H   H1447     1.0  0.21012  0.93752  0.88688  1.0000
  H   H1448     1.0  0.10678  0.96277  0.87589  1.0000
  H   H1449     1.0  0.22650  0.87521  0.95947  1.0000
  H   H1450     1.0  0.14159  0.91326  0.92146  1.0000
  H   H1451     1.0  0.12167  0.91067  0.71345  1.0000
  C   C907      1.0  0.37981  0.75080  0.82121  1.0000
  C   C908      1.0  0.04347  0.75972  0.61468  1.0000
  C   C909      1.0  0.44920  0.74752  0.79120  1.0000
  C   C910      1.0  0.36421  0.74191  0.93750  1.0000
  H   H1452     1.0  0.00579  0.74682  0.65551  1.0000
  H   H1453     1.0  0.09855  0.91964  0.87165  1.0000
  H   H1454     1.0  0.06752  0.97147  0.87897  1.0000
  H   H1455     1.0  0.39204  0.84315  0.91707  1.0000
  H   H1456     1.0  0.39494  0.75732  0.88338  1.0000
  C   C911      1.0  0.15474  0.90665  0.91008  1.0000
  H   H1457     1.0  0.37517  0.86527  0.90549  1.0000
  S   S380      1.0  0.11030  0.90438  0.96091  1.0000
  N   N94       1.0  0.12955  0.84798  0.62704  1.0000
  C   C912      1.0  0.12598  0.83692  0.61143  1.0000
  C   C913      1.0  0.11173  0.84818  0.64440  1.0000
  C   C914      1.0  0.13165  0.86961  0.61734  1.0000
  C   C915      1.0  0.14889  0.83734  0.63501  1.0000
  H   H1458     1.0  0.13939  0.83606  0.59836  1.0000
  H   H1459     1.0  0.11190  0.84493  0.60453  1.0000
  H   H1460     1.0  0.12381  0.82067  0.61826  1.0000
  H   H1461     1.0  0.11413  0.85622  0.65655  1.0000
  H   H1462     1.0  0.09694  0.85643  0.63900  1.0000
  H   H1463     1.0  0.10955  0.83211  0.65205  1.0000
  H   H1464     1.0  0.13374  0.87849  0.62886  1.0000
  H   H1465     1.0  0.11761  0.87807  0.61061  1.0000
  H   H1466     1.0  0.14545  0.87013  0.60473  1.0000
  H   H1467     1.0  0.15216  0.84550  0.64662  1.0000
  H   H1468     1.0  0.16268  0.83693  0.62234  1.0000
  H   H1469     1.0  0.14783  0.82102  0.64266  1.0000
  H   H1470     1.0  0.05070  0.83460  0.60247  1.0000
  H   H1471     1.0  0.14738  0.92564  0.55266  1.0000
  H   H1472     1.0  0.46098  0.74625  0.88077  1.0000
  H   H1473     1.0  0.18029  0.96439  0.89839  1.0000
  C   C916      1.0  0.16203  0.95313  0.85891  1.0000
  N   N95       1.0  0.11958  0.82452  0.86469  1.0000
  C   C917      1.0  0.11485  0.80621  0.88039  1.0000
  C   C918      1.0  0.10736  0.82730  0.84788  1.0000
  C   C919      1.0  0.14211  0.82136  0.85607  1.0000
  C   C920      1.0  0.11399  0.84325  0.87454  1.0000
  H   H1474     1.0  0.12370  0.80378  0.89340  1.0000
  H   H1475     1.0  0.11897  0.79172  0.87359  1.0000
  H   H1476     1.0  0.09797  0.80812  0.88730  1.0000
  H   H1477     1.0  0.11129  0.81357  0.83990  1.0000
  H   H1478     1.0  0.09030  0.82955  0.85396  1.0000
  H   H1479     1.0  0.11020  0.84124  0.83594  1.0000
  H   H1480     1.0  0.14693  0.80737  0.84844  1.0000
  H   H1481     1.0  0.15169  0.81909  0.86850  1.0000
  H   H1482     1.0  0.11605  0.85765  0.86304  1.0000
  H   H1483     1.0  0.12366  0.84217  0.88656  1.0000
  H   H1484     1.0  0.09744  0.84531  0.88232  1.0000
  C   C921      1.0  0.36172  0.82085  0.93580  1.0000
  C   C922      1.0  0.35606  0.76356  0.79663  1.0000
  C   C923      1.0  0.99955  0.85321  0.52944  1.0000
  C   C924      1.0  0.06603  0.96878  0.81286  1.0000
  C   C925      1.0  0.33760  0.76289  0.96793  1.0000
  S   S381      1.0  0.14190  0.98224  0.88333  1.0000
  H   H1485     1.0  0.12412  0.92704  0.52821  1.0000
  H   H1486     1.0  0.10427  0.95774  0.90359  1.0000
  H   H1487     1.0  0.37748  0.84029  0.89843  1.0000
  H   H1488     1.0  0.04405  0.83952  0.63957  1.0000
  H   H1489     1.0  0.34690  0.85012  0.95930  1.0000
  H   H1490     1.0  0.33681  0.86825  0.91516  1.0000
  H   H1491     1.0  0.37439  0.84936  0.95179  1.0000
  C   C926      1.0  0.33929  0.85110  0.92073  1.0000
  H   H1492     1.0  0.02799  0.86452  0.63328  1.0000
  C   C927      1.0  0.35876  0.76439  0.96352  1.0000
  H   H1493     1.0  0.10688  0.92580  0.73254  1.0000
  H   H1494     1.0  0.07110  0.92887  0.87242  1.0000
  H   H1495     1.0  0.11984  0.97424  0.52447  1.0000
  H   H1496     1.0  0.01437  0.82302  0.69762  1.0000
  H   H1497     1.0  0.00976  0.81368  0.64317  1.0000
  H   H1498     1.0  0.14626  0.83499  0.84434  1.0000
  C   C928      1.0  0.11921  0.92605  0.71844  1.0000
  H   H1499     1.0  0.00710  0.75513  0.58572  1.0000
  H   H1500     1.0  0.11848  0.93814  0.88872  1.0000
  H   H1501     1.0  0.38839  0.75502  0.94468  1.0000
  H   H1502     1.0  0.16719  0.91278  0.94382  1.0000
  C   C929      1.0  0.99691  0.73857  0.55691  1.0000
  S   S382      1.0  0.47585  0.76568  0.83431  1.0000
  C   C930      1.0  0.17981  0.95692  0.88563  1.0000
  C   C931      1.0  0.43141  0.74197  0.86155  1.0000
  C   C932      1.0  0.16260  0.96287  0.87531  1.0000
  C   C933      1.0  0.39328  0.76420  0.80952  1.0000
  H   H1503     1.0  0.12559  0.95549  0.67033  1.0000
  H   H1504     1.0  0.06847  0.91955  0.91168  1.0000
  C   C934      1.0  0.30669  0.87544  0.96485  1.0000
  H   H1505     1.0  0.44451  0.76120  0.89941  1.0000
  H   H1506     1.0  0.05207  0.76931  0.49121  1.0000
  C   C935      1.0  0.15754  0.93457  0.54023  1.0000
  C   C936      1.0  0.48540  0.75074  0.77976  1.0000
  C   C937      1.0  0.09359  0.94092  0.69623  1.0000
  H   H1507     1.0  0.16035  0.91990  0.89879  1.0000
  H   H1508     1.0  0.16754  0.96896  0.51493  1.0000
  H   H1509     1.0  0.05172  0.79311  0.49968  1.0000
  H   H1510     1.0  0.13394  0.92736  0.72308  1.0000
  C   C938      1.0  0.12992  0.94300  0.68336  1.0000
  H   H1511     1.0  0.00048  0.87188  0.77464  1.0000
  C   C939      1.0  0.17902  0.98251  0.80342  1.0000
  C   C940      1.0  0.03455  0.84322  0.60159  1.0000
  H   H1512     1.0  0.44726  0.77168  0.87221  1.0000
  H   H1513     1.0  0.12472  0.96585  0.71316  1.0000
  S   S383      1.0  0.34332  0.73495  0.82980  1.0000
  C   C941      1.0  0.40869  0.76363  0.88480  1.0000
  H   H1514     1.0  0.16999  0.92306  0.53290  1.0000
  H   H1515     1.0  0.08825  0.95397  0.68411  1.0000
  C   C942      1.0  0.32986  0.75073  0.95739  1.0000
  C   C943      1.0  0.44595  0.75719  0.88379  1.0000
  H   H1516     1.0  0.44787  0.75623  0.80404  1.0000
  H   H1517     1.0  0.34164  0.76345  0.79161  1.0000
  H   H1518     1.0  0.20258  0.96979  0.83371  1.0000
  H   H1519     1.0  0.13312  0.92795  0.67765  1.0000
  H   H1520     1.0  0.99822  0.75204  0.54406  1.0000
  H   H1521     1.0  0.30652  0.85950  0.97194  1.0000
  H   H1522     1.0  0.08476  0.97655  0.76092  1.0000
  H   H1523     1.0  0.07132  0.73755  0.51002  1.0000
  C   C944      1.0  0.01662  0.74583  0.64112  1.0000
  C   C945      1.0  0.12933  0.96351  0.53548  1.0000
  H   H1524     1.0  0.15068  0.97009  0.49671  1.0000
  H   H1525     1.0  0.38403  0.74055  0.83498  1.0000
  H   H1526     1.0  0.13661  0.97314  0.54275  1.0000
  C   C946      1.0  0.99565  0.86950  0.71436  1.0000
  H   H1527     1.0  0.18890  0.97363  0.79147  1.0000
  C   C947      1.0  0.06118  0.78188  0.48978  1.0000
  C   C948      1.0  0.20102  0.97872  0.59922  1.0000
  C   C949      1.0  0.00248  0.83455  0.79931  1.0000
  S   S384      1.0  0.36925  0.77886  0.97708  1.0000
  H   H1528     1.0  0.48564  0.75893  0.79254  1.0000
  C   C950      1.0  0.20848  0.98089  0.81998  1.0000
  H   H1529     1.0  0.12594  0.93855  0.96734  1.0000
  C   C951      1.0  0.31720  0.88756  0.97246  1.0000
  H   H1530     1.0  0.03587  0.98154  0.73290  1.0000
  H   H1531     1.0  0.24736  0.83139  0.97587  1.0000
  C   C952      1.0  0.12866  0.90529  0.97631  1.0000
  C   C953      1.0  0.99374  0.83700  0.76545  1.0000
  H   H1532     1.0  0.21839  0.98339  0.62128  1.0000
  H   H1533     1.0  0.99857  0.86771  0.61477  1.0000
  H   H1534     1.0  0.43757  0.73690  0.79604  1.0000
  C   C954      1.0  0.13362  0.92469  0.97628  1.0000
  H   H1535     1.0  0.99300  0.84514  0.60801  1.0000
  H   H1536     1.0  0.46778  0.73543  0.75491  1.0000
  N   N96       1.0  0.47062  0.73594  0.78621  1.0000
  H   H1537     1.0  0.99189  0.82115  0.58510  1.0000
  H   H1538     1.0  0.41801  0.73549  0.85949  1.0000
  C   C955      1.0  0.19668  0.98464  0.57901  1.0000
  C   C956      1.0  0.74877  0.13284  0.98488  1.0000
  S   S385      1.0  0.51088  0.14580  0.09540  1.0000
  S   S386      1.0  0.50316  0.20706  0.09417  1.0000
  N   N97       1.0  0.63521  0.19407  0.04006  1.0000
  H   H1539     1.0  0.79310  0.06213  0.01041  1.0000
  H   H1540     1.0  0.85691  0.09876  0.26189  1.0000
  Fe  Fe195     1.0  0.51998  0.13071  0.12624  1.0000
  S   S387      1.0  0.54967  0.10748  0.12861  1.0000
  H   H1541     1.0  0.77246  0.01462  0.30939  1.0000
  S   S388      1.0  0.51160  0.16000  0.14000  1.0000
  H   H1542     1.0  0.75015  0.06390  0.03785  1.0000
  Fe  Fe196     1.0  0.65540  0.10982  0.05907  1.0000
  S   S389      1.0  0.65597  0.07549  0.06903  1.0000
  S   S390      1.0  0.63079  0.13530  0.07119  1.0000
  Fe  Fe197     1.0  0.69202  0.10406  0.02367  1.0000
  S   S391      1.0  0.69543  0.06931  0.03049  1.0000
  S   S392      1.0  0.71231  0.11780  0.99514  1.0000
  Fe  Fe198     1.0  0.66056  0.07520  0.03492  1.0000
  S   S393      1.0  0.64289  0.05871  0.02040  1.0000
  Fe  Fe199     1.0  0.69096  0.07302  0.06371  1.0000
  S   S394      1.0  0.71208  0.05420  0.08601  1.0000
  S   S395      1.0  0.65753  0.10959  0.02525  1.0000
  S   S396      1.0  0.68998  0.10766  0.05660  1.0000
  C   C957      1.0  0.88525  0.01765  0.11971  1.0000
  H   H1543     1.0  0.62890  0.09895  0.99651  1.0000
  Fe  Fe200     1.0  0.89239  0.05552  0.17484  1.0000
  S   S397      1.0  0.87380  0.08310  0.15767  1.0000
  S   S398      1.0  0.88262  0.02424  0.17926  1.0000
  Fe  Fe201     1.0  0.91908  0.08195  0.18731  1.0000
  S   S399      1.0  0.90276  0.11156  0.17038  1.0000
  S   S400      1.0  0.94264  0.07867  0.20886  1.0000
  Fe  Fe202     1.0  0.87354  0.09871  0.18423  1.0000
  S   S401      1.0  0.84464  0.12050  0.19485  1.0000
  Fe  Fe203     1.0  0.90453  0.09340  0.14497  1.0000
  S   S402      1.0  0.90987  0.10957  0.11149  1.0000
  S   S403      1.0  0.88931  0.07024  0.20287  1.0000
  S   S404      1.0  0.92363  0.06449  0.16053  1.0000
  Fe  Fe204     1.0  0.81170  0.14152  0.00291  1.0000
  S   S405      1.0  0.81572  0.10767  0.01647  1.0000
  C   C958      1.0  0.87420  0.00134  0.12202  1.0000
  C   C959      1.0  0.92406  0.99473  0.20168  1.0000
  H   H1544     1.0  0.92295  0.99412  0.16211  1.0000
  H   H1545     1.0  0.84632  0.03469  0.25094  1.0000
  H   H1546     1.0  0.74920  0.08896  0.98287  1.0000
  Fe  Fe205     1.0  0.84716  0.11173  0.02083  1.0000
  S   S406      1.0  0.85499  0.09283  0.05145  1.0000
  C   C960      1.0  0.59551  0.21655  0.98337  1.0000
  S   S407      1.0  0.84199  0.14636  0.00935  1.0000
  H   H1547     1.0  0.95768  0.99238  0.17165  1.0000
  C   C961      1.0  0.96458  0.09177  0.23304  1.0000
  C   C962      1.0  0.89658  0.02512  0.27145  1.0000
  H   H1548     1.0  0.96834  0.07543  0.23942  1.0000
  H   H1549     1.0  0.88615  0.07221  0.25026  1.0000
  Fe  Fe206     1.0  0.85908  0.18638  0.38883  1.0000
  S   S408      1.0  0.87566  0.19012  0.41385  1.0000
  S   S409      1.0  0.86040  0.15356  0.38279  1.0000
  Fe  Fe207     1.0  0.85183  0.21942  0.41713  1.0000
  H   H1550     1.0  0.93174  0.99367  0.21523  1.0000
  Fe  Fe208     1.0  0.89346  0.21053  0.38845  1.0000
  S   S410      1.0  0.92798  0.21071  0.38093  1.0000
  S   S411      1.0  0.83346  0.21394  0.39440  1.0000
  S   S412      1.0  0.87865  0.20521  0.36343  1.0000
  Fe  Fe209     1.0  0.83486  0.05447  0.31050  1.0000
  S   S413      1.0  0.81065  0.04096  0.30129  1.0000
  S   S414      1.0  0.86900  0.04910  0.29695  1.0000
  Fe  Fe210     1.0  0.80373  0.08388  0.33577  1.0000
  S   S415      1.0  0.77651  0.07269  0.32898  1.0000
  S   S416      1.0  0.79657  0.11208  0.35203  1.0000
  Fe  Fe211     1.0  0.79480  0.04028  0.33439  1.0000
  S   S417      1.0  0.77820  0.01347  0.35189  1.0000
  Fe  Fe212     1.0  0.79399  0.07385  0.29654  1.0000
  S   S418      1.0  0.77822  0.08627  0.26892  1.0000
  S   S419      1.0  0.82074  0.05114  0.34440  1.0000
  S   S420      1.0  0.81946  0.08765  0.30254  1.0000
  C   C963      1.0  0.86825  0.10594  0.26696  1.0000
  H   H1551     1.0  0.54199  0.18368  0.10716  1.0000
  C   C964      1.0  0.89701  0.08027  0.25495  1.0000
  C   C965      1.0  0.84259  0.14289  0.37333  1.0000
  C   C966      1.0  0.82237  0.15343  0.37145  1.0000
  C   C967      1.0  0.80857  0.14387  0.36469  1.0000
  C   C968      1.0  0.81493  0.12389  0.35933  1.0000
  C   C969      1.0  0.83535  0.11361  0.36066  1.0000
  C   C970      1.0  0.84900  0.12298  0.36782  1.0000
  H   H1552     1.0  0.81717  0.16869  0.37571  1.0000
  H   H1553     1.0  0.79278  0.15191  0.36380  1.0000
  H   H1554     1.0  0.84038  0.09816  0.35682  1.0000
  H   H1555     1.0  0.86449  0.11455  0.36947  1.0000
  H   H1556     1.0  0.86902  0.09854  0.28341  1.0000
  N   N98       1.0  0.88899  0.10280  0.25366  1.0000
  H   H1557     1.0  0.90641  0.03666  0.26901  1.0000
  H   H1558     1.0  0.81124  0.18517  0.98948  1.0000
  C   C971      1.0  0.71855  0.00702  0.12467  1.0000
  C   C972      1.0  0.96832  0.12762  0.23178  1.0000
  H   H1559     1.0  0.57699  0.19346  0.10226  1.0000
  H   H1560     1.0  0.91767  0.00714  0.25008  1.0000
  H   H1561     1.0  0.74161  0.99203  0.15535  1.0000
  C   C973      1.0  0.64176  0.20894  0.04993  1.0000
  C   C974      1.0  0.96198  0.15244  0.35458  1.0000
  C   C975      1.0  0.96698  0.17192  0.34513  1.0000
  C   C976      1.0  0.95665  0.18973  0.35338  1.0000
  C   C977      1.0  0.94117  0.18820  0.37105  1.0000
  C   C978      1.0  0.93624  0.16869  0.38061  1.0000
  C   C979      1.0  0.94692  0.15078  0.37259  1.0000
  H   H1562     1.0  0.96019  0.20474  0.34553  1.0000
  H   H1563     1.0  0.92431  0.16742  0.39430  1.0000
  H   H1564     1.0  0.94308  0.13574  0.38008  1.0000
  S   S421      1.0  0.78099  0.16179  0.01160  1.0000
  Fe  Fe213     1.0  0.85464  0.23268  0.37094  1.0000
  C   C980      1.0  0.79680  0.09464  0.24782  1.0000
  C   C981      1.0  0.79050  0.11087  0.23227  1.0000
  C   C982      1.0  0.80535  0.11858  0.21601  1.0000
  C   C983      1.0  0.82644  0.10955  0.21477  1.0000
  C   C984      1.0  0.83270  0.09269  0.22986  1.0000
  C   C985      1.0  0.81793  0.08555  0.24666  1.0000
  H   H1565     1.0  0.77422  0.11800  0.23320  1.0000
  H   H1566     1.0  0.80045  0.13166  0.20444  1.0000
  H   H1567     1.0  0.84894  0.08563  0.22903  1.0000
  H   H1568     1.0  0.82289  0.07315  0.25879  1.0000
  C   C986      1.0  0.95205  0.09799  0.21747  1.0000
  H   H1569     1.0  0.93784  0.12428  0.19736  1.0000
  C   C987      1.0  0.81822  0.00893  0.23100  1.0000
  C   C988      1.0  0.89565  0.10427  0.09421  1.0000
  C   C989      1.0  0.88550  0.08710  0.09935  1.0000
  C   C990      1.0  0.87332  0.08378  0.08592  1.0000
  C   C991      1.0  0.87116  0.09755  0.06721  1.0000
  C   C992      1.0  0.88153  0.11459  0.06186  1.0000
  C   C993      1.0  0.89383  0.11786  0.07531  1.0000
  H   H1570     1.0  0.88710  0.07631  0.11365  1.0000
  H   H1571     1.0  0.86553  0.07044  0.09011  1.0000
  H   H1572     1.0  0.88008  0.12521  0.04742  1.0000
  H   H1573     1.0  0.90180  0.13108  0.07115  1.0000
  H   H1574     1.0  0.84966  0.04515  0.21245  1.0000
  H   H1575     1.0  0.89908  0.07280  0.27107  1.0000
  C   C994      1.0  0.90306  0.00827  0.26081  1.0000
  C   C995      1.0  0.94733  0.11920  0.20940  1.0000
  H   H1576     1.0  0.89822  0.12956  0.25994  1.0000
  H   H1577     1.0  0.91944  0.11014  0.25119  1.0000
  H   H1578     1.0  0.87586  0.10585  0.22616  1.0000
  C   C996      1.0  0.73484  0.03772  0.07648  1.0000
  C   C997      1.0  0.63125  0.20412  0.01904  1.0000
  H   H1579     1.0  0.85100  0.01245  0.29975  1.0000
  C   C998      1.0  0.49384  0.19768  0.17633  1.0000
  S   S422      1.0  0.86280  0.10357  0.98966  1.0000
  H   H1580     1.0  0.86163  0.12274  0.26659  1.0000
  H   H1581     1.0  0.82174  0.04912  0.21523  1.0000
  C   C999      1.0  0.87865  0.01633  0.15701  1.0000
  C   C1000     1.0  0.88730  0.02528  0.13713  1.0000
  H   H1582     1.0  0.50871  0.19594  0.16506  1.0000
  C   C1001     1.0  0.97260  0.10646  0.24021  1.0000
  C   C1002     1.0  0.78248  0.05191  0.00881  1.0000
  H   H1583     1.0  0.74533  0.03860  0.01736  1.0000
  H   H1584     1.0  0.78364  0.01757  0.08739  1.0000
  C   C1003     1.0  0.73077  0.13081  0.99972  1.0000
  H   H1585     1.0  0.97855  0.17341  0.33120  1.0000
  C   C1004     1.0  0.86752  0.00007  0.15934  1.0000
  C   C1005     1.0  0.76141  0.15036  0.00685  1.0000
  C   C1006     1.0  0.74311  0.14897  0.02140  1.0000
  C   C1007     1.0  0.72792  0.13891  0.01798  1.0000
  H   H1586     1.0  0.64537  0.20943  0.00902  1.0000
  C   C1008     1.0  0.76444  0.07956  0.98612  1.0000
  H   H1587     1.0  0.74090  0.15525  0.03553  1.0000
  H   H1588     1.0  0.71392  0.13770  0.02934  1.0000
  C   C1009     1.0  0.84328  0.12553  0.11347  1.0000
  C   C1010     1.0  0.73532  0.02699  0.06047  1.0000
  H   H1589     1.0  0.83790  0.03218  0.19821  1.0000
  H   H1590     1.0  0.70299  0.01064  0.13444  1.0000
  H   H1591     1.0  0.95212  0.15016  0.20975  1.0000
  C   C1011     1.0  0.64627  0.06821  0.99362  1.0000
  H   H1592     1.0  0.92557  0.00999  0.19146  1.0000
  C   C1012     1.0  0.75233  0.03414  0.08618  1.0000
  H   H1593     1.0  0.79032  0.04378  0.99556  1.0000
  H   H1594     1.0  0.75205  0.04239  0.09859  1.0000
  H   H1595     1.0  0.66437  0.03933  0.98568  1.0000
  C   C1013     1.0  0.95549  0.13386  0.21646  1.0000
  H   H1596     1.0  0.85244  0.00134  0.06498  1.0000
  C   C1014     1.0  0.57236  0.11581  0.11369  1.0000
  C   C1015     1.0  0.57164  0.13597  0.10229  1.0000
  C   C1016     1.0  0.58977  0.14200  0.08968  1.0000
  C   C1017     1.0  0.60862  0.12781  0.08818  1.0000
  C   C1018     1.0  0.60936  0.10770  0.09967  1.0000
  C   C1019     1.0  0.59129  0.10176  0.11249  1.0000
  H   H1597     1.0  0.55708  0.14688  0.10314  1.0000
  H   H1598     1.0  0.58903  0.15761  0.08090  1.0000
  H   H1599     1.0  0.62391  0.09680  0.09892  1.0000
  H   H1600     1.0  0.59193  0.08619  0.12139  1.0000
  C   C1020     1.0  0.52800  0.21337  0.09155  1.0000
  H   H1601     1.0  0.73662  0.08431  0.02088  1.0000
  C   C1021     1.0  0.56421  0.20463  0.09659  1.0000
  H   H1602     1.0  0.85035  0.10971  0.12065  1.0000
  H   H1603     1.0  0.90249  0.10957  0.22142  1.0000
  C   C1022     1.0  0.54442  0.19906  0.09931  1.0000
  H   H1604     1.0  0.61800  0.18082  0.06896  1.0000
  H   H1605     1.0  0.88173  0.12944  0.23028  1.0000
  H   H1606     1.0  0.82760  0.12457  0.11076  1.0000
  C   C1023     1.0  0.74753  0.99736  0.31221  1.0000
  H   H1607     1.0  0.85305  0.12942  0.09804  1.0000
  H   H1608     1.0  0.81844  0.03836  0.25306  1.0000
  C   C1024     1.0  0.83316  0.02694  0.25052  1.0000
  H   H1609     1.0  0.80302  0.01976  0.23275  1.0000
  H   H1610     1.0  0.74754  0.00002  0.29570  1.0000
  H   H1611     1.0  0.75542  0.04134  0.99012  1.0000
  C   C1025     1.0  0.76425  0.14222  0.98862  1.0000
  H   H1612     1.0  0.98247  0.10136  0.25194  1.0000
  C   C1026     1.0  0.88720  0.11234  0.23194  1.0000
  H   H1613     1.0  0.57173  0.06921  0.04107  1.0000
  H   H1614     1.0  0.66662  0.17987  0.02893  1.0000
  H   H1615     1.0  0.89236  0.02437  0.10440  1.0000
  S   S423      1.0  0.59237  0.23134  0.08070  1.0000
  C   C1027     1.0  0.63779  0.08878  0.98595  1.0000
  C   C1028     1.0  0.83622  0.03726  0.21340  1.0000
  H   H1616     1.0  0.84403  0.02950  0.08611  1.0000
  Fe  Fe214     1.0  0.83087  0.10248  0.98446  1.0000
  N   N99       1.0  0.76185  0.06412  0.00530  1.0000
  H   H1617     1.0  0.85811  0.99851  0.21310  1.0000
  H   H1618     1.0  0.91244  0.07711  0.24486  1.0000
  S   S424      1.0  0.79284  0.99097  0.05615  1.0000
  N   N100      1.0  0.84211  0.14103  0.12674  1.0000
  C   C1029     1.0  0.82889  0.13527  0.14695  1.0000
  C   C1030     1.0  0.83298  0.16182  0.11651  1.0000
  C   C1031     1.0  0.86329  0.14150  0.13002  1.0000
  H   H1619     1.0  0.81266  0.13516  0.14519  1.0000
  H   H1620     1.0  0.83517  0.11945  0.15485  1.0000
  H   H1621     1.0  0.82815  0.14622  0.15769  1.0000
  H   H1622     1.0  0.83179  0.17385  0.12620  1.0000
  H   H1623     1.0  0.81704  0.16201  0.11364  1.0000
  H   H1624     1.0  0.84272  0.16660  0.10125  1.0000
  H   H1625     1.0  0.86308  0.15296  0.14003  1.0000
  H   H1626     1.0  0.87386  0.14546  0.11508  1.0000
  H   H1627     1.0  0.87066  0.12612  0.13775  1.0000
  N   N101      1.0  0.72452  0.06325  0.30637  1.0000
  C   C1032     1.0  0.72614  0.08519  0.30549  1.0000
  C   C1033     1.0  0.70423  0.06232  0.30117  1.0000
  C   C1034     1.0  0.72610  0.05144  0.32748  1.0000
  C   C1035     1.0  0.74160  0.05403  0.29123  1.0000
  H   H1628     1.0  0.74152  0.08650  0.30866  1.0000
  H   H1629     1.0  0.71386  0.09264  0.31701  1.0000
  H   H1630     1.0  0.72479  0.09455  0.28982  1.0000
  H   H1631     1.0  0.70248  0.04593  0.30180  1.0000
  H   H1632     1.0  0.69099  0.06927  0.31222  1.0000
  H   H1633     1.0  0.70259  0.07088  0.28527  1.0000
  H   H1634     1.0  0.74159  0.05088  0.33165  1.0000
  H   H1635     1.0  0.72408  0.03504  0.32887  1.0000
  H   H1636     1.0  0.71401  0.05847  0.33943  1.0000
  H   H1637     1.0  0.75712  0.05330  0.29544  1.0000
  H   H1638     1.0  0.74178  0.06338  0.27535  1.0000
  H   H1639     1.0  0.74013  0.03799  0.29039  1.0000
  N   N102      1.0  0.84759  0.03394  0.05286  1.0000
  C   C1036     1.0  0.84510  0.01252  0.05266  1.0000
  C   C1037     1.0  0.83814  0.04828  0.03593  1.0000
  C   C1038     1.0  0.87005  0.03485  0.04991  1.0000
  C   C1039     1.0  0.83707  0.03994  0.07304  1.0000
  H   H1640     1.0  0.62628  0.19333  0.01113  1.0000
  H   H1641     1.0  0.85256  0.00748  0.03761  1.0000
  H   H1642     1.0  0.82835  0.01105  0.05538  1.0000
  H   H1643     1.0  0.83973  0.06460  0.03560  1.0000
  H   H1644     1.0  0.84576  0.04424  0.02048  1.0000
  H   H1645     1.0  0.82122  0.04792  0.03780  1.0000
  H   H1646     1.0  0.87256  0.05076  0.05011  1.0000
  H   H1647     1.0  0.87853  0.03041  0.03489  1.0000
  H   H1648     1.0  0.87757  0.02417  0.06251  1.0000
  C   C1040     1.0  0.87210  0.99435  0.27833  1.0000
  H   H1649     1.0  0.82016  0.03912  0.07599  1.0000
  H   H1650     1.0  0.83853  0.05609  0.07368  1.0000
  C   C1041     1.0  0.86510  0.99274  0.14187  1.0000
  H   H1651     1.0  0.85578  0.99084  0.24069  1.0000
  C   C1042     1.0  0.74827  0.05013  0.00303  1.0000
  H   H1652     1.0  0.76000  0.99193  0.11986  1.0000
  H   H1653     1.0  0.81995  0.00257  0.21648  1.0000
  C   C1043     1.0  0.75323  0.01272  0.05427  1.0000
  H   H1654     1.0  0.60134  0.07803  0.07897  1.0000
  H   H1655     1.0  0.78111  0.03989  0.02311  1.0000
  H   H1656     1.0  0.96755  0.23036  0.35979  1.0000
  S   S425      1.0  0.81424  0.98831  0.10677  1.0000
  H   H1657     1.0  0.64728  0.16382  0.03177  1.0000
  H   H1658     1.0  0.72169  0.02929  0.05325  1.0000
  H   H1659     1.0  0.60272  0.20102  0.05344  1.0000
  H   H1660     1.0  0.76193  0.08604  0.02478  1.0000
  C   C1044     1.0  0.75224  0.07502  0.02300  1.0000
  C   C1045     1.0  0.65775  0.05519  0.97981  1.0000
  S   S426      1.0  0.97305  0.13056  0.34277  1.0000
  C   C1046     1.0  0.76164  0.00566  0.31992  1.0000
  H   H1661     1.0  0.65624  0.21427  0.04083  1.0000
  H   H1662     1.0  0.65544  0.16787  0.05427  1.0000
  H   H1663     1.0  0.83261  0.01391  0.26393  1.0000
  H   H1664     1.0  0.61872  0.21808  0.01959  1.0000
  C   C1047     1.0  0.77021  0.01994  0.07996  1.0000
  H   H1665     1.0  0.90714  0.99498  0.20774  1.0000
  H   H1666     1.0  0.62946  0.22294  0.05134  1.0000
  H   H1667     1.0  0.61096  0.17566  0.04630  1.0000
  H   H1668     1.0  0.64464  0.20189  0.06592  1.0000
  H   H1669     1.0  0.71605  0.00999  0.10829  1.0000
  H   H1670     1.0  0.90537  0.10563  0.27717  1.0000
  H   H1671     1.0  0.81731  0.99559  0.24410  1.0000
  H   H1672     1.0  0.86923  0.01182  0.22761  1.0000
  C   C1048     1.0  0.77066  0.00902  0.06412  1.0000
  H   H1673     1.0  0.89601  0.03774  0.13519  1.0000
  H   H1674     1.0  0.58680  0.06062  0.07354  1.0000
  N   N103      1.0  0.90736  0.15161  0.33064  1.0000
  C   C1049     1.0  0.91983  0.16844  0.32601  1.0000
  C   C1050     1.0  0.90932  0.13951  0.35153  1.0000
  C   C1051     1.0  0.91513  0.13770  0.31512  1.0000
  C   C1052     1.0  0.88520  0.16073  0.32994  1.0000
  H   H1675     1.0  0.93676  0.16201  0.32510  1.0000
  H   H1676     1.0  0.91544  0.17841  0.33824  1.0000
  H   H1677     1.0  0.91777  0.17867  0.31092  1.0000
  H   H1678     1.0  0.92562  0.13139  0.35229  1.0000
  H   H1679     1.0  0.90466  0.14971  0.36357  1.0000
  H   H1680     1.0  0.89909  0.12753  0.35612  1.0000
  H   H1681     1.0  0.90607  0.12482  0.31820  1.0000
  H   H1682     1.0  0.93183  0.13052  0.31540  1.0000
  H   H1683     1.0  0.91410  0.14634  0.29913  1.0000
  H   H1684     1.0  0.87894  0.17129  0.34150  1.0000
  H   H1685     1.0  0.87525  0.14850  0.33376  1.0000
  H   H1686     1.0  0.88299  0.16991  0.31442  1.0000
  C   C1053     1.0  0.87751  0.02700  0.28507  1.0000
  N   N104      1.0  0.83579  0.01942  0.23070  1.0000
  H   H1687     1.0  0.61202  0.06345  0.05837  1.0000
  Fe  Fe215     1.0  0.50016  0.17441  0.11010  1.0000
  C   C1054     1.0  0.76163  0.00242  0.34128  1.0000
  H   H1688     1.0  0.72802  0.01844  0.12601  1.0000
  C   C1055     1.0  0.90361  0.11251  0.26085  1.0000
  C   C1056     1.0  0.85557  0.00449  0.22792  1.0000
  H   H1689     1.0  0.75344  0.00418  0.04211  1.0000
  H   H1690     1.0  0.73286  0.05902  0.99961  1.0000
  S   S427      1.0  0.87277  0.99150  0.09992  1.0000
  S   S428      1.0  0.98147  0.16654  0.28796  1.0000
  C   C1057     1.0  0.61588  0.18763  0.05269  1.0000
  H   H1691     1.0  0.74781  0.98756  0.37124  1.0000
  C   C1058     1.0  0.86537  0.01146  0.28870  1.0000
  C   C1059     1.0  0.65191  0.17565  0.03864  1.0000
  S   S429      1.0  0.97872  0.14687  0.23945  1.0000
  N   N105      1.0  0.58740  0.08913  0.05156  1.0000
  C   C1060     1.0  0.56795  0.10005  0.06265  1.0000
  C   C1061     1.0  0.60187  0.10394  0.04249  1.0000
  C   C1062     1.0  0.58261  0.08048  0.03481  1.0000
  C   C1063     1.0  0.59731  0.07204  0.06626  1.0000
  H   H1692     1.0  0.57112  0.10695  0.07520  1.0000
  H   H1693     1.0  0.55675  0.08930  0.07005  1.0000
  H   H1694     1.0  0.55996  0.11297  0.05203  1.0000
  H   H1695     1.0  0.61668  0.09612  0.03411  1.0000
  H   H1696     1.0  0.59501  0.11707  0.03129  1.0000
  H   H1697     1.0  0.60598  0.11070  0.05465  1.0000
  H   H1698     1.0  0.59704  0.07212  0.02619  1.0000
  H   H1699     1.0  0.57529  0.09296  0.02332  1.0000
  C   C1064     1.0  0.74794  0.99017  0.35470  1.0000
  C   C1065     1.0  0.56751  0.22444  0.08603  1.0000
  H   H1700     1.0  0.49732  0.20103  0.19075  1.0000
  H   H1701     1.0  0.57613  0.19362  0.98586  1.0000
  S   S430      1.0  0.83455  0.23119  0.44680  1.0000
  H   H1702     1.0  0.77454  0.09050  0.98720  1.0000
  C   C1066     1.0  0.89078  0.99290  0.26412  1.0000
  H   H1703     1.0  0.77903  0.21066  0.99131  1.0000
  H   H1704     1.0  0.86083  0.99302  0.17466  1.0000
  H   H1705     1.0  0.58859  0.22062  0.99840  1.0000
  C   C1067     1.0  0.73329  0.98579  0.32573  1.0000
  C   C1068     1.0  0.53132  0.23323  0.08140  1.0000
  H   H1706     1.0  0.49992  0.23346  0.15053  1.0000
  H   H1707     1.0  0.79438  0.23104  0.98417  1.0000
  H   H1708     1.0  0.82727  0.20476  0.98092  1.0000
  N   N106      1.0  0.72891  0.98537  0.13087  1.0000
  H   H1709     1.0  0.55285  0.23442  0.99497  1.0000
  H   H1710     1.0  0.71598  0.98530  0.16318  1.0000
  H   H1711     1.0  0.84420  0.08971  0.90772  1.0000
  Fe  Fe216     1.0  0.75310  0.04649  0.85985  1.0000
  S   S431      1.0  0.76842  0.06233  0.82938  1.0000
  H   H1712     1.0  0.70292  0.07592  0.53805  1.0000
  Fe  Fe217     1.0  0.76366  0.07714  0.88350  1.0000
  S   S432      1.0  0.77888  0.09536  0.85440  1.0000
  S   S433      1.0  0.75962  0.09067  0.91266  1.0000
  Fe  Fe218     1.0  0.75199  0.09187  0.84082  1.0000
  S   S434      1.0  0.73505  0.11748  0.81963  1.0000
  Fe  Fe219     1.0  0.79387  0.06404  0.84634  1.0000
  S   S435      1.0  0.82822  0.05501  0.83331  1.0000
  S   S436      1.0  0.73541  0.07606  0.87049  1.0000
  S   S437      1.0  0.77989  0.04573  0.87634  1.0000
  Fe  Fe220     1.0  0.96795  0.08859  0.81540  1.0000
  S   S438      1.0  0.95219  0.08120  0.84856  1.0000
  H   H1713     1.0  0.92328  0.22757  0.83010  1.0000
  Fe  Fe221     1.0  0.95545  0.13479  0.81378  1.0000
  S   S439      1.0  0.93843  0.13120  0.84651  1.0000
  S   S440      1.0  0.95888  0.16712  0.79747  1.0000
  Fe  Fe222     1.0  0.96607  0.10734  0.85350  1.0000
  H   H1714     1.0  0.88785  0.17939  0.83487  1.0000
  Fe  Fe223     1.0  0.92580  0.10576  0.83831  1.0000
  S   S441      1.0  0.89150  0.10597  0.85168  1.0000
  H   H1715     1.0  0.77260  0.02084  0.81381  1.0000
  S   S442      1.0  0.94067  0.11149  0.80463  1.0000
  Fe  Fe224     1.0  0.55114  0.12132  0.76508  1.0000
  S   S443      1.0  0.52098  0.11032  0.76711  1.0000
  S   S444      1.0  0.55346  0.14431  0.78493  1.0000
  Fe  Fe225     1.0  0.57243  0.09768  0.72985  1.0000
  S   S445      1.0  0.54447  0.08392  0.72973  1.0000
  S   S446      1.0  0.60053  0.09458  0.70482  1.0000
  Fe  Fe226     1.0  0.52643  0.11596  0.73217  1.0000
  Fe  Fe227     1.0  0.54166  0.07931  0.76437  1.0000
  S   S447      1.0  0.53121  0.05184  0.78668  1.0000
  S   S448      1.0  0.55472  0.13003  0.73042  1.0000
  S   S449      1.0  0.57148  0.08998  0.76435  1.0000
  Fe  Fe228     1.0  0.63600  0.12174  0.91326  1.0000
  S   S450      1.0  0.63960  0.15403  0.91465  1.0000
  S   S451      1.0  0.65730  0.09232  0.92395  1.0000
  Fe  Fe229     1.0  0.60060  0.13601  0.88786  1.0000
  S   S452      1.0  0.60051  0.16995  0.88748  1.0000
  S   S453      1.0  0.58524  0.11800  0.87155  1.0000
  Fe  Fe230     1.0  0.63548  0.16106  0.88139  1.0000
  S   S454      1.0  0.65605  0.17841  0.85587  1.0000
  Fe  Fe231     1.0  0.60455  0.16051  0.92115  1.0000
  S   S455      1.0  0.63526  0.12824  0.87932  1.0000
  S   S456      1.0  0.60130  0.12720  0.92218  1.0000
  Fe  Fe232     1.0  0.51342  0.20615  0.55365  1.0000
  S   S457      1.0  0.50772  0.18676  0.58496  1.0000
  H   H1716     1.0  0.97723  0.21670  0.90231  1.0000
  Fe  Fe233     1.0  0.54886  0.22169  0.56302  1.0000
  S   S458      1.0  0.54668  0.20332  0.59556  1.0000
  Fe  Fe234     1.0  0.54245  0.17704  0.58141  1.0000
  S   S459      1.0  0.54857  0.14282  0.59522  1.0000
  Fe  Fe235     1.0  0.51230  0.21399  0.59679  1.0000
  H   H1717     1.0  0.80290  0.18531  0.94555  1.0000
  S   S460      1.0  0.54784  0.19431  0.54863  1.0000
  C   C1069     1.0  0.68189  0.13340  0.94305  1.0000
  Fe  Fe236     1.0  0.63124  0.04542  0.59980  1.0000
  S   S461      1.0  0.65571  0.02775  0.61861  1.0000
  S   S462      1.0  0.63353  0.07870  0.58474  1.0000
  Fe  Fe237     1.0  0.61208  0.00682  0.60320  1.0000
  N   N107      1.0  0.66306  0.01664  0.71679  1.0000
  S   S463      1.0  0.88296  0.21660  0.85071  1.0000
  Fe  Fe238     1.0  0.62967  0.01285  0.63889  1.0000
  S   S464      1.0  0.62194  0.00861  0.67357  1.0000
  Fe  Fe239     1.0  0.65877  0.00283  0.59967  1.0000
  H   H1718     1.0  0.56449  0.15107  0.66482  1.0000
  S   S465      1.0  0.60485  0.03253  0.62183  1.0000
  S   S466      1.0  0.63602  0.02149  0.57945  1.0000
  H   H1719     1.0  0.52686  0.13456  0.65883  1.0000
  H   H1720     1.0  0.77822  0.14344  0.97723  1.0000
  H   H1721     1.0  0.69072  0.11462  0.90952  1.0000
  H   H1722     1.0  0.71827  0.11446  0.90452  1.0000
  N   N108      1.0  0.86770  0.10502  0.91282  1.0000
  H   H1723     1.0  0.97991  0.08281  0.72651  1.0000
  H   H1724     1.0  0.51589  0.09041  0.58780  1.0000
  H   H1725     1.0  0.49280  0.14414  0.56521  1.0000
  S   S467      1.0  0.49464  0.20712  0.52923  1.0000
  H   H1726     1.0  0.63029  0.02618  0.72734  1.0000
  C   C1070     1.0  0.90203  0.18578  0.82909  1.0000
  H   H1727     1.0  0.68404  0.06232  0.57275  1.0000
  C   C1071     1.0  0.92199  0.21297  0.82630  1.0000
  C   C1072     1.0  0.64431  0.14136  0.82103  1.0000
  C   C1073     1.0  0.57250  0.12565  0.59139  1.0000
  C   C1074     1.0  0.57294  0.10459  0.60007  1.0000
  C   C1075     1.0  0.59155  0.09023  0.59789  1.0000
  C   C1076     1.0  0.61001  0.09675  0.58717  1.0000
  C   C1077     1.0  0.60969  0.11786  0.57847  1.0000
  C   C1078     1.0  0.59091  0.13233  0.58053  1.0000
  H   H1728     1.0  0.55893  0.09925  0.60875  1.0000
  H   H1729     1.0  0.59157  0.07408  0.60454  1.0000
  H   H1730     1.0  0.62395  0.12303  0.57014  1.0000
  H   H1731     1.0  0.59073  0.14857  0.57382  1.0000
  C   C1079     1.0  0.57923  0.00050  0.81573  1.0000
  C   C1080     1.0  0.71804  0.01694  0.80853  1.0000
  H   H1732     1.0  0.71908  0.05080  0.53693  1.0000
  H   H1733     1.0  0.67276  0.03961  0.57596  1.0000
  N   N109      1.0  0.49623  0.11984  0.59168  1.0000
  C   C1081     1.0  0.60499  0.07104  0.69563  1.0000
  C   C1082     1.0  0.59667  0.05395  0.70764  1.0000
  C   C1083     1.0  0.60134  0.03487  0.70053  1.0000
  C   C1084     1.0  0.61405  0.03300  0.68129  1.0000
  C   C1085     1.0  0.62160  0.05035  0.66891  1.0000
  C   C1086     1.0  0.61733  0.06927  0.67621  1.0000
  H   H1734     1.0  0.58717  0.05523  0.72269  1.0000
  H   H1735     1.0  0.59541  0.02150  0.71012  1.0000
  H   H1736     1.0  0.63137  0.04902  0.65401  1.0000
  H   H1737     1.0  0.62377  0.08249  0.66686  1.0000
  C   C1087     1.0  0.56374  0.13706  0.80824  1.0000
  C   C1088     1.0  0.57384  0.11679  0.81450  1.0000
  C   C1089     1.0  0.58066  0.11127  0.83381  1.0000
  C   C1090     1.0  0.57791  0.12607  0.84677  1.0000
  C   C1091     1.0  0.56828  0.14647  0.84026  1.0000
  C   C1092     1.0  0.56126  0.15193  0.82107  1.0000
  H   H1738     1.0  0.57613  0.10533  0.80457  1.0000
  H   H1739     1.0  0.58806  0.09544  0.83876  1.0000
  H   H1740     1.0  0.56568  0.15790  0.85030  1.0000
  H   H1741     1.0  0.55339  0.16764  0.81635  1.0000
  C   C1093     1.0  0.72672  0.02319  0.82332  1.0000
  N   N110      1.0  0.79928  0.00039  0.82439  1.0000
  H   H1742     1.0  0.64123  0.00094  0.73973  1.0000
  H   H1743     1.0  0.51879  0.13658  0.57089  1.0000
  C   C1094     1.0  0.81344  0.01537  0.81452  1.0000
  H   H1744     1.0  0.89734  0.08721  0.91903  1.0000
  C   C1095     1.0  0.89071  0.10213  0.90982  1.0000
  C   C1096     1.0  0.81067  0.08125  0.95171  1.0000
  S   S468      1.0  0.87543  0.15323  0.95004  1.0000
  C   C1097     1.0  0.87116  0.18054  0.94626  1.0000
  C   C1098     1.0  0.63850  0.17668  0.80259  1.0000
  H   H1745     1.0  0.71681  0.14967  0.92765  1.0000
  H   H1746     1.0  0.66602  0.06663  0.52282  1.0000
  H   H1747     1.0  0.82075  0.23257  0.95162  1.0000
  H   H1748     1.0  0.63386  0.11202  0.95860  1.0000
  H   H1749     1.0  0.62147  0.17226  0.84198  1.0000
  H   H1750     1.0  0.79809  0.11269  0.95653  1.0000
  C   C1099     1.0  0.55807  0.00297  0.82450  1.0000
  H   H1751     1.0  0.70524  0.10022  0.96196  1.0000
  C   C1100     1.0  0.71406  0.13469  0.83091  1.0000
  C   C1101     1.0  0.70375  0.12956  0.85129  1.0000
  C   C1102     1.0  0.68607  0.14310  0.85924  1.0000
  C   C1103     1.0  0.67911  0.16207  0.84704  1.0000
  C   C1104     1.0  0.68979  0.16745  0.82695  1.0000
  C   C1105     1.0  0.70700  0.15365  0.81881  1.0000
  H   H1752     1.0  0.70920  0.11509  0.86078  1.0000
  H   H1753     1.0  0.67789  0.13894  0.87481  1.0000
  H   H1754     1.0  0.68457  0.18213  0.81751  1.0000
  H   H1755     1.0  0.71500  0.15774  0.80311  1.0000
  C   C1106     1.0  0.84586  0.06955  0.83779  1.0000
  C   C1107     1.0  0.83889  0.08536  0.84970  1.0000
  C   C1108     1.0  0.85303  0.09666  0.85323  1.0000
  C   C1109     1.0  0.87439  0.09217  0.84515  1.0000
  C   C1110     1.0  0.88147  0.07638  0.83317  1.0000
  C   C1111     1.0  0.86722  0.06513  0.82950  1.0000
  H   H1756     1.0  0.82259  0.08890  0.85626  1.0000
  H   H1757     1.0  0.84731  0.10895  0.86232  1.0000
  H   H1758     1.0  0.89788  0.07273  0.82689  1.0000
  H   H1759     1.0  0.87279  0.05293  0.82026  1.0000
  C   C1112     1.0  0.78104  0.08767  0.92538  1.0000
  C   C1113     1.0  0.79504  0.06884  0.92771  1.0000
  H   H1760     1.0  0.68522  0.03048  0.72623  1.0000
  C   C1114     1.0  0.98299  0.07530  0.75885  1.0000
  C   C1115     1.0  0.79760  0.10055  0.94829  1.0000
  C   C1116     1.0  0.78259  0.10360  0.93545  1.0000
  H   H1761     1.0  0.79387  0.05643  0.92009  1.0000
  C   C1117     1.0  0.86932  0.19188  0.92643  1.0000
  H   H1762     1.0  0.86772  0.22101  0.97132  1.0000
  H   H1763     1.0  0.77183  0.11820  0.93373  1.0000
  H   H1764     1.0  0.63666  0.00433  0.71383  1.0000
  C   C1118     1.0  0.71393  0.99568  0.84924  1.0000
  C   C1119     1.0  0.54358  0.01853  0.81514  1.0000
  C   C1120     1.0  0.55015  0.03217  0.79721  1.0000
  C   C1121     1.0  0.57138  0.03003  0.78848  1.0000
  C   C1122     1.0  0.58592  0.01399  0.79762  1.0000
  H   H1765     1.0  0.52721  0.02007  0.82190  1.0000
  H   H1766     1.0  0.57654  0.04051  0.77459  1.0000
  H   H1767     1.0  0.60226  0.01227  0.79085  1.0000
  H   H1768     1.0  0.77447  0.23107  0.96963  1.0000
  H   H1769     1.0  0.86927  0.18392  0.91394  1.0000
  C   C1123     1.0  0.70712  0.00012  0.81397  1.0000
  H   H1770     1.0  0.55281  0.99264  0.83848  1.0000
  H   H1771     1.0  0.75096  0.12684  0.97061  1.0000
  H   H1772     1.0  0.81981  0.05063  0.94354  1.0000
  C   C1124     1.0  0.66309  0.03088  0.69666  1.0000
  C   C1125     1.0  0.65235  0.08318  0.95074  1.0000
  H   H1773     1.0  0.78613  0.00281  0.79696  1.0000
  H   H1774     1.0  0.50566  0.13980  0.60810  1.0000
  C   C1126     1.0  0.51205  0.10196  0.59846  1.0000
  H   H1775     1.0  0.86641  0.07246  0.91655  1.0000
  C   C1127     1.0  0.66931  0.02662  0.73177  1.0000
  H   H1776     1.0  0.66427  0.07924  0.54460  1.0000
  C   C1128     1.0  0.86693  0.22415  0.93877  1.0000
  N   N111      1.0  0.55869  0.12141  0.66192  1.0000
  C   C1129     1.0  0.55307  0.10227  0.67559  1.0000
  C   C1130     1.0  0.54238  0.13067  0.64905  1.0000
  C   C1131     1.0  0.57901  0.11622  0.64847  1.0000
  C   C1132     1.0  0.56024  0.13646  0.67466  1.0000
  H   H1777     1.0  0.56521  0.09468  0.68526  1.0000
  H   H1778     1.0  0.55137  0.09070  0.66651  1.0000
  H   H1779     1.0  0.53805  0.10570  0.68626  1.0000
  H   H1780     1.0  0.54597  0.14530  0.63867  1.0000
  H   H1781     1.0  0.54094  0.11987  0.63901  1.0000
  H   H1782     1.0  0.58311  0.12998  0.63690  1.0000
  H   H1783     1.0  0.57889  0.10380  0.63974  1.0000
  H   H1784     1.0  0.57236  0.12993  0.68466  1.0000
  H   H1785     1.0  0.54518  0.14069  0.68505  1.0000
  C   C1133     1.0  0.93785  0.18412  0.87355  1.0000
  C   C1134     1.0  0.90746  0.16810  0.88717  1.0000
  H   H1786     1.0  0.95261  0.18729  0.87655  1.0000
  H   H1787     1.0  0.92795  0.19939  0.86884  1.0000
  H   H1788     1.0  0.91135  0.19852  0.90584  1.0000
  H   H1789     1.0  0.89685  0.18304  0.88290  1.0000
  H   H1790     1.0  0.89886  0.15871  0.90067  1.0000
  H   H1791     1.0  0.91063  0.15978  0.87375  1.0000
  C   C1135     1.0  0.50768  0.07952  0.82636  1.0000
  H   H1792     1.0  0.86602  0.12524  0.88342  1.0000
  N   N112      1.0  0.52418  0.08510  0.83485  1.0000
  S   S469      1.0  0.98805  0.06291  0.79956  1.0000
  H   H1793     1.0  0.54530  0.98796  0.61392  1.0000
  C   C1136     1.0  0.90368  0.20466  0.83396  1.0000
  C   C1137     1.0  0.70591  0.10084  0.94510  1.0000
  H   H1794     1.0  0.70465  0.06321  0.51640  1.0000
  C   C1138     1.0  0.99059  0.07946  0.73746  1.0000
  H   H1795     1.0  0.58178  0.99199  0.67411  1.0000
  C   C1139     1.0  0.64060  0.09620  0.96448  1.0000
  H   H1796     1.0  0.94182  0.17586  0.85999  1.0000
  S   S470      1.0  0.98407  0.11249  0.82136  1.0000
  H   H1797     1.0  0.77944  0.20449  0.94713  1.0000
  C   C1140     1.0  0.54482  0.07499  0.82517  1.0000
  C   C1141     1.0  0.86145  0.08754  0.90659  1.0000
  H   H1798     1.0  0.72136  0.09217  0.93901  1.0000
  C   C1142     1.0  0.92189  0.18342  0.90947  1.0000
  S   S471      1.0  0.98174  0.10612  0.88065  1.0000
  H   H1799     1.0  0.62685  0.19031  0.79724  1.0000
  C   C1143     1.0  0.86810  0.21288  0.95879  1.0000
  H   H1800     1.0  0.52678  0.10713  0.59876  1.0000
  C   C1144     1.0  0.80969  0.06558  0.94103  1.0000
  H   H1801     1.0  0.53367  0.08178  0.86437  1.0000
  H   H1802     1.0  0.59181  0.11041  0.65776  1.0000
  H   H1803     1.0  0.84225  0.12732  0.90176  1.0000
  H   H1804     1.0  0.67019  0.05267  0.94788  1.0000
  C   C1145     1.0  0.58858  0.20114  0.97630  1.0000
  C   C1146     1.0  0.85954  0.12488  0.90018  1.0000
  H   H1805     1.0  0.78395  0.18430  0.96895  1.0000
  H   H1806     1.0  0.91730  0.16021  0.81345  1.0000
  H   H1807     1.0  0.52620  0.11381  0.81333  1.0000
  H   H1808     1.0  0.86361  0.13839  0.90485  1.0000
  H   H1809     1.0  0.65833  0.04130  0.73438  1.0000
  H   H1810     1.0  0.50108  0.09142  0.70853  1.0000
  S   S472      1.0  0.82405  0.13613  0.97040  1.0000
  H   H1811     1.0  0.67849  0.98620  0.72894  1.0000
  N   N113      1.0  0.62831  0.15904  0.81414  1.0000
  H   H1812     1.0  0.67858  0.14981  0.93507  1.0000
  N   N114      1.0  0.67372  0.06169  0.87324  1.0000
  C   C1147     1.0  0.65139  0.06224  0.88218  1.0000
  C   C1148     1.0  0.67786  0.08321  0.86645  1.0000
  C   C1149     1.0  0.67916  0.05077  0.85523  1.0000
  C   C1150     1.0  0.68655  0.05055  0.88911  1.0000
  H   H1813     1.0  0.64118  0.07067  0.87074  1.0000
  H   H1814     1.0  0.64686  0.07033  0.89585  1.0000
  H   H1815     1.0  0.64770  0.04628  0.88746  1.0000
  H   H1816     1.0  0.67493  0.09160  0.87981  1.0000
  H   H1817     1.0  0.69433  0.08342  0.85873  1.0000
  H   H1818     1.0  0.66778  0.09237  0.85518  1.0000
  H   H1819     1.0  0.69584  0.05049  0.84798  1.0000
  H   H1820     1.0  0.66957  0.05846  0.84306  1.0000
  H   H1821     1.0  0.67683  0.03428  0.85983  1.0000
  H   H1822     1.0  0.70349  0.04952  0.88282  1.0000
  H   H1823     1.0  0.68373  0.03430  0.89468  1.0000
  H   H1824     1.0  0.68312  0.05849  0.90283  1.0000
  C   C1151     1.0  0.85904  0.10557  0.93489  1.0000
  H   H1825     1.0  0.80540  0.03172  0.81496  1.0000
  H   H1826     1.0  0.62087  0.20090  0.92976  1.0000
  H   H1827     1.0  0.69396  0.00014  0.70743  1.0000
  H   H1828     1.0  0.67874  0.03505  0.69017  1.0000
  C   C1152     1.0  0.93882  0.20199  0.81409  1.0000
  H   H1829     1.0  0.86445  0.09069  0.94495  1.0000
  C   C1153     1.0  0.86745  0.21359  0.92263  1.0000
  C   C1154     1.0  0.61383  0.20509  0.94475  1.0000
  S   S473      1.0  0.63510  0.98597  0.62189  1.0000
  C   C1155     1.0  0.59757  0.19544  0.95688  1.0000
  S   S474      1.0  0.58596  0.99585  0.59457  1.0000
  C   C1156     1.0  0.66103  0.06275  0.95844  1.0000
  C   C1157     1.0  0.91873  0.17489  0.81700  1.0000
  H   H1830     1.0  0.55767  0.07868  0.83129  1.0000
  H   H1831     1.0  0.89588  0.11496  0.91462  1.0000
  C   C1158     1.0  0.93725  0.18276  0.80975  1.0000
  H   H1832     1.0  0.89779  0.10182  0.89325  1.0000
  H   H1833     1.0  0.95527  0.15393  0.90160  1.0000
  H   H1834     1.0  0.86862  0.08594  0.89032  1.0000
  H   H1835     1.0  0.86378  0.11826  0.94030  1.0000
  H   H1836     1.0  0.80070  0.23282  0.93721  1.0000
  C   C1159     1.0  0.72500  0.01237  0.84373  1.0000
  H   H1837     1.0  0.64730  0.18190  0.81249  1.0000
  H   H1838     1.0  0.73484  0.03629  0.81884  1.0000
  H   H1839     1.0  0.97903  0.13412  0.77219  1.0000
  C   C1160     1.0  0.71893  0.13333  0.93604  1.0000
  H   H1840     1.0  0.50831  0.12000  0.55922  1.0000
  H   H1841     1.0  0.93620  0.18682  0.91326  1.0000
  C   C1161     1.0  0.79166  0.19506  0.95601  1.0000
  H   H1842     1.0  0.64982  0.17238  0.78874  1.0000
  H   H1843     1.0  0.66951  0.01620  0.74712  1.0000
  S   S475      1.0  0.73646  0.01896  0.86281  1.0000
  H   H1844     1.0  0.65268  0.05671  0.54798  1.0000
  H   H1845     1.0  0.54624  0.05775  0.82810  1.0000
  S   S476      1.0  0.68947  0.98954  0.58170  1.0000
  H   H1846     1.0  0.82395  0.21348  0.93541  1.0000
  C   C1162     1.0  0.49141  0.13447  0.60654  1.0000
  H   H1847     1.0  0.94469  0.14246  0.88504  1.0000
  H   H1848     1.0  0.63716  0.12765  0.82947  1.0000
  H   H1849     1.0  0.97863  0.14722  0.85502  1.0000
  H   H1850     1.0  0.71980  0.02521  0.79271  1.0000
  C   C1163     1.0  0.94044  0.15169  0.89783  1.0000
  H   H1851     1.0  0.91390  0.17443  0.92375  1.0000
  H   H1852     1.0  0.81959  0.01411  0.79797  1.0000
  H   H1853     1.0  0.84171  0.10819  0.93759  1.0000
  H   H1854     1.0  0.50914  0.08516  0.80934  1.0000
  C   C1164     1.0  0.81830  0.19522  0.97552  1.0000
  H   H1855     1.0  0.54751  0.08004  0.80804  1.0000
  C   C1165     1.0  0.67788  0.99715  0.71395  1.0000
  H   H1856     1.0  0.50717  0.11615  0.83643  1.0000
  S   S477      1.0  0.58725  0.17713  0.94795  1.0000
  H   H1857     1.0  0.67315  0.98889  0.70326  1.0000
  H   H1858     1.0  0.86612  0.22220  0.90721  1.0000
  N   N115      1.0  0.92692  0.17182  0.89199  1.0000
  C   C1166     1.0  0.52291  0.10795  0.83034  1.0000
  H   H1859     1.0  0.66911  0.12555  0.94184  1.0000
  S   S478      1.0  0.82676  0.07567  0.97076  1.0000
  H   H1860     1.0  0.82955  0.18477  0.96581  1.0000
  H   H1861     1.0  0.95322  0.20801  0.80863  1.0000
  H   H1862     1.0  0.50652  0.09379  0.61434  1.0000
  C   C1167     1.0  0.49250  0.12339  0.69452  1.0000
  H   H1863     1.0  0.65860  0.02365  0.68501  1.0000
  H   H1864     1.0  0.78273  0.01835  0.84764  1.0000
  C   C1168     1.0  0.81230  0.22243  0.94629  1.0000
  H   H1865     1.0  0.50868  0.06233  0.82873  1.0000
  C   C1169     1.0  0.64187  0.01189  0.72477  1.0000
  N   N116      1.0  0.70242  0.12254  0.93397  1.0000
  H   H1866     1.0  0.71893  0.13378  0.95254  1.0000
  C   C1170     1.0  0.52134  0.07790  0.85752  1.0000
  H   H1867     1.0  0.76986  0.99406  0.82094  1.0000
  S   S479      1.0  0.50395  0.13423  0.71052  1.0000
  H   H1868     1.0  0.65175  0.04559  0.69819  1.0000
  C   C1171     1.0  0.61676  0.15259  0.80060  1.0000
  C   C1172     1.0  0.61367  0.16551  0.83245  1.0000
  H   H1869     1.0  0.60912  0.13915  0.80885  1.0000
  H   H1870     1.0  0.62727  0.14783  0.78649  1.0000
  H   H1871     1.0  0.60422  0.16537  0.79540  1.0000
  H   H1872     1.0  0.65609  0.13647  0.80771  1.0000
  H   H1873     1.0  0.60737  0.15211  0.84275  1.0000
  H   H1874     1.0  0.60026  0.17750  0.82793  1.0000
  C   C1173     1.0  0.70293  0.12261  0.91175  1.0000
  H   H1875     1.0  0.96649  0.07542  0.76436  1.0000
  H   H1876     1.0  0.65284  0.14553  0.83177  1.0000
  H   H1877     1.0  0.98983  0.04833  0.84137  1.0000
  H   H1878     1.0  0.93263  0.14202  0.91167  1.0000
  N   N117      1.0  0.68617  0.05044  0.54465  1.0000
  C   C1174     1.0  0.68822  0.03007  0.53827  1.0000
  C   C1175     1.0  0.68595  0.04729  0.56721  1.0000
  C   C1176     1.0  0.66648  0.06384  0.53970  1.0000
  C   C1177     1.0  0.70401  0.06055  0.53350  1.0000
  H   H1879     1.0  0.68863  0.03173  0.52132  1.0000
  H   H1880     1.0  0.67497  0.02204  0.54640  1.0000
  H   H1881     1.0  0.70269  0.01938  0.54222  1.0000
  H   H1882     1.0  0.70046  0.03709  0.57164  1.0000
  N   N118      1.0  0.80227  0.20842  0.96390  1.0000
  H   H1883     1.0  0.70033  0.13874  0.90289  1.0000
  H   H1884     1.0  0.53436  0.11283  0.83751  1.0000
  C   C1178     1.0  0.87041  0.19105  0.96251  1.0000
  H   H1885     1.0  0.73464  0.12539  0.92959  1.0000
  H   H1886     1.0  0.68110  0.13356  0.95983  1.0000
  C   C1179     1.0  0.97089  0.23253  0.90611  1.0000
  H   H1887     1.0  0.69390  0.09222  0.94348  1.0000
  C   C1180     1.0  0.62063  0.22064  0.95176  1.0000
  C   C1181     1.0  0.78122  0.00466  0.81351  1.0000
  C   C1182     1.0  0.50439  0.13058  0.57084  1.0000
  C   C1183     1.0  0.79181  0.00258  0.84634  1.0000
  C   C1184     1.0  0.49309  0.10198  0.69688  1.0000
  H   H1888     1.0  0.71242  0.98720  0.86497  1.0000
  H   H1889     1.0  0.63298  0.22825  0.94209  1.0000
  H   H1890     1.0  0.82704  0.01297  0.82261  1.0000
  H   H1891     1.0  0.77155  0.07186  0.97247  1.0000
  C   C1185     1.0  0.70491  0.98967  0.83452  1.0000
  C   C1186     1.0  0.61134  0.22666  0.97096  1.0000
  H   H1892     1.0  0.96162  0.23072  0.92204  1.0000
  C   C1187     1.0  0.98801  0.14663  0.86662  1.0000
  H   H1893     1.0  0.80497  0.00017  0.85500  1.0000
  H   H1894     1.0  0.50598  0.08531  0.86538  1.0000
  S   S480      1.0  0.69735  0.99242  0.79433  1.0000
  H   H1895     1.0  0.78125  0.99138  0.85443  1.0000
  H   H1896     1.0  0.52216  0.06073  0.86142  1.0000
  H   H1897     1.0  0.99048  0.17914  0.85814  1.0000
  S   S481      1.0  0.64587  0.98644  0.78180  1.0000
  H   H1898     1.0  0.49315  0.23297  0.66393  1.0000
  H   H1899     1.0  0.87194  0.18236  0.97785  1.0000
  H   H1900     1.0  0.98808  0.16635  0.75025  1.0000
  H   H1901     1.0  0.98846  0.12002  0.75101  1.0000
  C   C1188     1.0  0.78684  0.22088  0.97786  1.0000
  Fe  Fe240     1.0  0.85495  0.13787  0.97768  1.0000
  H   H1902     1.0  0.49183  0.08637  0.83364  1.0000
  S   S482      1.0  0.51465  0.23463  0.56574  1.0000
  H   H1903     1.0  0.83580  0.32657  0.43474  1.0000
  Fe  Fe241     1.0  0.95165  0.34680  0.27092  1.0000
  S   S483      1.0  0.94010  0.37175  0.29053  1.0000
  S   S484      1.0  0.96667  0.35211  0.23730  1.0000
  Fe  Fe242     1.0  0.93780  0.31304  0.30550  1.0000
  S   S485      1.0  0.92550  0.33451  0.32858  1.0000
  S   S486      1.0  0.93791  0.27886  0.31121  1.0000
  Fe  Fe243     1.0  0.91200  0.35620  0.30234  1.0000
  S   S487      1.0  0.87929  0.37477  0.30562  1.0000
  Fe  Fe244     1.0  0.95440  0.34806  0.31503  1.0000
  H   H1904     1.0  0.55328  0.25406  0.07076  1.0000
  S   S488      1.0  0.92214  0.33352  0.28018  1.0000
  S   S489      1.0  0.96816  0.32425  0.29455  1.0000
  Fe  Fe245     1.0  0.73709  0.38372  0.38032  1.0000
  S   S490      1.0  0.75128  0.34968  0.38596  1.0000
  S   S491      1.0  0.71478  0.39785  0.35794  1.0000
  Fe  Fe246     1.0  0.75667  0.39409  0.41240  1.0000
  S   S492      1.0  0.77255  0.36137  0.42132  1.0000
  S   S493      1.0  0.75604  0.42083  0.42806  1.0000
  Fe  Fe247     1.0  0.78047  0.36081  0.38722  1.0000
  S   S494      1.0  0.81183  0.34081  0.37910  1.0000
  Fe  Fe248     1.0  0.74268  0.35241  0.41954  1.0000
  S   S495      1.0  0.73325  0.32625  0.44414  1.0000
  S   S496      1.0  0.76726  0.39476  0.37824  1.0000
  S   S497      1.0  0.72573  0.38515  0.41398  1.0000
  Fe  Fe249     1.0  0.60105  0.29899  0.02967  1.0000
  S   S498      1.0  0.58662  0.29596  0.00298  1.0000
  S   S499      1.0  0.61034  0.33060  0.02696  1.0000
  Fe  Fe250     1.0  0.59207  0.25682  0.05297  1.0000
  S   S500      1.0  0.57689  0.25074  0.02842  1.0000
  S   S501      1.0  0.60284  0.39514  0.47711  1.0000
  Fe  Fe251     1.0  0.60337  0.26275  0.00627  1.0000
  Fe  Fe252     1.0  0.56138  0.28397  0.02742  1.0000
  S   S502      1.0  0.52763  0.29335  0.02374  1.0000
  S   S503      1.0  0.62015  0.26659  0.03093  1.0000
  S   S504      1.0  0.57433  0.28932  0.05383  1.0000
  Fe  Fe253     1.0  0.62065  0.43987  0.10269  1.0000
  S   S505      1.0  0.64393  0.44774  0.11816  1.0000
  H   H1905     1.0  0.64511  0.44455  0.22353  1.0000
  Fe  Fe254     1.0  0.64485  0.39652  0.09877  1.0000
  S   S506      1.0  0.67058  0.40128  0.11382  1.0000
  S   S507      1.0  0.64734  0.36379  0.09212  1.0000
  Fe  Fe255     1.0  0.64449  0.41559  0.13639  1.0000
  S   S508      1.0  0.64397  0.41363  0.17038  1.0000
  Fe  Fe256     1.0  0.66783  0.43322  0.09433  1.0000
  H   H1906     1.0  0.68554  0.42070  0.42623  1.0000
  S   S509      1.0  0.61895  0.40875  0.12304  1.0000
  S   S510      1.0  0.64442  0.42739  0.07714  1.0000
  H   H1907     1.0  0.59382  0.44238  0.35405  1.0000
  Fe  Fe257     1.0  0.58864  0.36263  0.41985  1.0000
  S   S511      1.0  0.59019  0.32851  0.43204  1.0000
  S   S512      1.0  0.58562  0.37934  0.38713  1.0000
  Fe  Fe258     1.0  0.60128  0.37052  0.45908  1.0000
  C   C1189     1.0  0.69239  0.46897  0.31246  1.0000
  H   H1908     1.0  0.85581  0.37308  0.43958  1.0000
  Fe  Fe259     1.0  0.61982  0.33095  0.44164  1.0000
  S   S513      1.0  0.64756  0.30655  0.43412  1.0000
  Fe  Fe260     1.0  0.57493  0.33761  0.46287  1.0000
  H   H1909     1.0  0.98119  0.38355  0.20352  1.0000
  S   S514      1.0  0.61921  0.36460  0.42802  1.0000
  S   S515      1.0  0.57041  0.37186  0.44972  1.0000
  Fe  Fe261     1.0  0.55892  0.40556  0.26128  1.0000
  S   S516      1.0  0.57675  0.37618  0.27680  1.0000
  S   S517      1.0  0.57079  0.43605  0.25606  1.0000
  H   H1910     1.0  0.55813  0.45725  0.20222  1.0000
  S   S518      1.0  0.54325  0.35151  0.26519  1.0000
  Fe  Fe262     1.0  0.54492  0.36863  0.29054  1.0000
  S   S519      1.0  0.53879  0.35423  0.32456  1.0000
  Fe  Fe263     1.0  0.57355  0.36199  0.25034  1.0000
  S   S520      1.0  0.59834  0.34399  0.22947  1.0000
  S   S521      1.0  0.52688  0.39896  0.27606  1.0000
  S   S522      1.0  0.55859  0.39193  0.23341  1.0000
  H   H1911     1.0  0.83106  0.27180  0.41108  1.0000
  H   H1912     1.0  0.65014  0.43697  0.19854  1.0000
  C   C1190     1.0  0.58362  0.47297  0.29133  1.0000
  N   N119      1.0  0.62619  0.46382  0.20192  1.0000
  C   C1191     1.0  0.98245  0.25871  0.37246  1.0000
  H   H1913     1.0  0.54030  0.38558  0.07103  1.0000
  C   C1192     1.0  0.58502  0.47469  0.12186  1.0000
  H   H1914     1.0  0.67756  0.47683  0.32086  1.0000
  H   H1915     1.0  0.58649  0.42892  0.42033  1.0000
  C   C1193     1.0  0.57257  0.37183  0.37012  1.0000
  C   C1194     1.0  0.56161  0.35523  0.37630  1.0000
  C   C1195     1.0  0.55134  0.34993  0.36220  1.0000
  C   C1196     1.0  0.55211  0.36105  0.34182  1.0000
  C   C1197     1.0  0.56326  0.37751  0.33565  1.0000
  C   C1198     1.0  0.57340  0.38289  0.34975  1.0000
  H   H1916     1.0  0.56078  0.34665  0.39197  1.0000
  H   H1917     1.0  0.54267  0.33724  0.36710  1.0000
  H   H1918     1.0  0.56379  0.38634  0.32011  1.0000
  H   H1919     1.0  0.58180  0.39577  0.34478  1.0000
  N   N120      1.0  0.96147  0.26107  0.36718  1.0000
  C   C1199     1.0  0.78621  0.38726  0.47425  1.0000
  H   H1920     1.0  0.72185  0.47908  0.05810  1.0000
  C   C1200     1.0  0.82817  0.36709  0.41777  1.0000
  H   H1921     1.0  0.71346  0.45541  0.34448  1.0000
  H   H1922     1.0  0.82270  0.29947  0.40520  1.0000
  C   C1201     1.0  0.67610  0.42853  0.43915  1.0000
  H   H1923     1.0  0.87482  0.28645  0.44293  1.0000
  C   C1202     1.0  0.64604  0.45064  0.20662  1.0000
  H   H1924     1.0  0.57531  0.30748  0.19147  1.0000
  N   N121      1.0  0.59033  0.43924  0.38724  1.0000
  H   H1925     1.0  0.53512  0.33863  0.22608  1.0000
  C   C1203     1.0  0.63226  0.39346  0.18654  1.0000
  C   C1204     1.0  0.62655  0.39393  0.20780  1.0000
  C   C1205     1.0  0.61620  0.37867  0.22092  1.0000
  C   C1206     1.0  0.61237  0.36230  0.21302  1.0000
  C   C1207     1.0  0.61867  0.36137  0.19185  1.0000
  C   C1208     1.0  0.62834  0.37715  0.17853  1.0000
  H   H1926     1.0  0.62997  0.40617  0.21420  1.0000
  H   H1927     1.0  0.61143  0.37941  0.23726  1.0000
  H   H1928     1.0  0.61580  0.34871  0.18568  1.0000
  H   H1929     1.0  0.63297  0.37659  0.16215  1.0000
  C   C1209     1.0  0.61994  0.33960  0.04574  1.0000
  C   C1210     1.0  0.62036  0.36098  0.04340  1.0000
  C   C1211     1.0  0.62793  0.36881  0.05788  1.0000
  C   C1212     1.0  0.63566  0.35522  0.07460  1.0000
  C   C1213     1.0  0.63518  0.33387  0.07695  1.0000
  C   C1214     1.0  0.62711  0.32612  0.06277  1.0000
  H   H1930     1.0  0.61488  0.37153  0.03024  1.0000
  H   H1931     1.0  0.62822  0.38526  0.05584  1.0000
  H   H1932     1.0  0.64120  0.32322  0.08978  1.0000
  H   H1933     1.0  0.62691  0.30965  0.06475  1.0000
  C   C1215     1.0  0.51200  0.30570  0.04380  1.0000
  C   C1216     1.0  0.51629  0.30036  0.06406  1.0000
  N   N122      1.0  0.68958  0.43471  0.45099  1.0000
  H   H1934     1.0  0.52895  0.28790  0.06776  1.0000
  S   S523      1.0  0.60481  0.33685  0.47365  1.0000
  C   C1217     1.0  0.70914  0.32122  0.44174  1.0000
  C   C1218     1.0  0.70507  0.30092  0.44756  1.0000
  C   C1219     1.0  0.68615  0.29652  0.44505  1.0000
  C   C1220     1.0  0.67094  0.31254  0.43746  1.0000
  C   C1221     1.0  0.67482  0.33297  0.43205  1.0000
  C   C1222     1.0  0.69407  0.33726  0.43388  1.0000
  H   H1935     1.0  0.98135  0.39183  0.23760  1.0000
  H   H1936     1.0  0.68320  0.28072  0.44923  1.0000
  H   H1937     1.0  0.66323  0.34539  0.42603  1.0000
  H   H1938     1.0  0.69714  0.35299  0.42939  1.0000
  C   C1223     1.0  0.76503  0.41248  0.45175  1.0000
  H   H1939     1.0  0.88033  0.35114  0.40418  1.0000
  H   H1940     1.0  0.76611  0.29663  0.41298  1.0000
  H   H1941     1.0  0.54389  0.33995  0.16883  1.0000
  C   C1224     1.0  0.96209  0.24676  0.35283  1.0000
  H   H1942     1.0  0.66629  0.41743  0.44922  1.0000
  H   H1943     1.0  0.54279  0.36849  0.19961  1.0000
  H   H1944     1.0  0.68466  0.46143  0.11731  1.0000
  H   H1945     1.0  0.65920  0.45945  0.20158  1.0000
  H   H1946     1.0  0.74519  0.43768  0.46560  1.0000
  C   C1225     1.0  0.86091  0.36586  0.32680  1.0000
  C   C1226     1.0  0.86604  0.34721  0.34020  1.0000
  C   C1227     1.0  0.85087  0.33984  0.35636  1.0000
  C   C1228     1.0  0.83050  0.35109  0.35923  1.0000
  C   C1229     1.0  0.82535  0.36988  0.34605  1.0000
  C   C1230     1.0  0.84054  0.37720  0.32979  1.0000
  H   H1947     1.0  0.88154  0.33820  0.33786  1.0000
  H   H1948     1.0  0.85489  0.32524  0.36649  1.0000
  H   H1949     1.0  0.80964  0.37863  0.34816  1.0000
  H   H1950     1.0  0.83649  0.39165  0.31944  1.0000
  C   C1231     1.0  0.91268  0.27376  0.32131  1.0000
  C   C1232     1.0  0.90685  0.25611  0.31760  1.0000
  H   H1951     1.0  0.51714  0.42749  0.23153  1.0000
  C   C1233     1.0  0.89829  0.28732  0.33292  1.0000
  H   H1952     1.0  0.81331  0.26858  0.38291  1.0000
  H   H1953     1.0  0.69348  0.45192  0.31796  1.0000
  C   C1234     1.0  0.81810  0.28483  0.41464  1.0000
  H   H1954     1.0  0.53908  0.42031  0.19825  1.0000
  H   H1955     1.0  0.86788  0.25580  0.43174  1.0000
  H   H1956     1.0  0.59374  0.46146  0.20701  1.0000
  C   C1235     1.0  0.95490  0.28276  0.35718  1.0000
  H   H1957     1.0  0.69565  0.40344  0.46731  1.0000
  C   C1236     1.0  0.50422  0.31127  0.07960  1.0000
  C   C1237     1.0  0.51116  0.44322  0.22321  1.0000
  H   H1958     1.0  0.56195  0.32953  0.22834  1.0000
  H   H1959     1.0  0.77909  0.29904  0.43306  1.0000
  C   C1238     1.0  0.58176  0.46746  0.15933  1.0000
  S   S524      1.0  0.59417  0.46634  0.09792  1.0000
  C   C1239     1.0  0.84758  0.33205  0.42139  1.0000
  C   C1240     1.0  0.57185  0.44705  0.27761  1.0000
  C   C1241     1.0  0.56118  0.44037  0.29742  1.0000
  C   C1242     1.0  0.56128  0.45034  0.31398  1.0000
  H   H1960     1.0  0.58431  0.45651  0.17329  1.0000
  C   C1243     1.0  0.57244  0.46670  0.31099  1.0000
  H   H1961     1.0  0.55247  0.42782  0.29988  1.0000
  H   H1962     1.0  0.55259  0.44538  0.32914  1.0000
  C   C1244     1.0  0.69604  0.41911  0.36527  1.0000
  C   C1245     1.0  0.69858  0.42975  0.38030  1.0000
  C   C1246     1.0  0.68388  0.44732  0.38510  1.0000
  H   H1963     1.0  0.71218  0.42485  0.38773  1.0000
  H   H1964     1.0  0.68615  0.45582  0.39631  1.0000
  H   H1965     1.0  0.96784  0.40919  0.19519  1.0000
  H   H1966     1.0  0.59472  0.44464  0.13965  1.0000
  H   H1967     1.0  0.50469  0.47204  0.18951  1.0000
  H   H1968     1.0  0.61139  0.43883  0.19979  1.0000
  H   H1969     1.0  0.63178  0.45816  0.17057  1.0000
  C   C1247     1.0  0.79338  0.26137  0.42236  1.0000
  H   H1970     1.0  0.78590  0.27854  0.38397  1.0000
  N   N123      1.0  0.71056  0.47650  0.31587  1.0000
  N   N124      1.0  0.69984  0.38343  0.05119  1.0000
  C   C1248     1.0  0.71628  0.37664  0.03421  1.0000
  C   C1249     1.0  0.70283  0.40350  0.05516  1.0000
  C   C1250     1.0  0.70109  0.36762  0.07021  1.0000
  C   C1251     1.0  0.67916  0.38594  0.04521  1.0000
  H   H1971     1.0  0.71446  0.36152  0.03084  1.0000
  H   H1972     1.0  0.73211  0.37462  0.03819  1.0000
  H   H1973     1.0  0.71576  0.38824  0.01963  1.0000
  H   H1974     1.0  0.69079  0.40899  0.06798  1.0000
  H   H1975     1.0  0.71826  0.40231  0.05973  1.0000
  H   H1976     1.0  0.70176  0.41598  0.04130  1.0000
  H   H1977     1.0  0.69819  0.35242  0.06806  1.0000
  H   H1978     1.0  0.68914  0.37246  0.08342  1.0000
  H   H1979     1.0  0.71659  0.36501  0.07504  1.0000
  H   H1980     1.0  0.66643  0.39119  0.05763  1.0000
  H   H1981     1.0  0.67614  0.37098  0.04255  1.0000
  H   H1982     1.0  0.67763  0.39764  0.03085  1.0000
  C   C1252     1.0  0.85761  0.26199  0.44462  1.0000
  H   H1983     1.0  0.72457  0.47829  0.34157  1.0000
  H   H1984     1.0  0.95476  0.29404  0.36737  1.0000
  C   C1253     1.0  0.98334  0.40793  0.22974  1.0000
  C   C1254     1.0  0.84066  0.25247  0.45508  1.0000
  H   H1985     1.0  0.51885  0.24440  0.07536  1.0000
  H   H1986     1.0  0.54234  0.32814  0.08337  1.0000
  N   N125      1.0  0.55588  0.33659  0.19707  1.0000
  H   H1987     1.0  0.86582  0.37725  0.40139  1.0000
  C   C1255     1.0  0.56785  0.35312  0.05835  1.0000
  C   C1256     1.0  0.70234  0.46843  0.08671  1.0000
  H   H1988     1.0  0.57307  0.35969  0.07000  1.0000
  H   H1989     1.0  0.81685  0.28580  0.43127  1.0000
  C   C1257     1.0  0.51899  0.47184  0.19576  1.0000
  H   H1990     1.0  0.78699  0.38633  0.44211  1.0000
  H   H1991     1.0  0.66525  0.45801  0.46326  1.0000
  C   C1258     1.0  0.70411  0.41617  0.45890  1.0000
  C   C1259     1.0  0.54974  0.32898  0.21944  1.0000
  H   H1992     1.0  0.54206  0.46193  0.22631  1.0000
  C   C1260     1.0  0.87808  0.28318  0.34082  1.0000
  C   C1261     1.0  0.78130  0.29850  0.41621  1.0000
  C   C1262     1.0  0.58781  0.46071  0.14019  1.0000
  H   H1993     1.0  0.49705  0.44188  0.21744  1.0000
  H   H1994     1.0  0.62364  0.43380  0.38536  1.0000
  H   H1995     1.0  0.98178  0.43999  0.19794  1.0000
  S   S525      1.0  0.87117  0.23983  0.39371  1.0000
  S   S526      1.0  0.84705  0.26039  0.34682  1.0000
  C   C1263     1.0  0.53982  0.33433  0.18577  1.0000
  H   H1996     1.0  0.86085  0.35884  0.38773  1.0000
  H   H1997     1.0  0.81572  0.36191  0.43048  1.0000
  H   H1998     1.0  0.53784  0.31782  0.18799  1.0000
  H   H1999     1.0  0.97964  0.27882  0.28631  1.0000
  C   C1264     1.0  0.53898  0.34751  0.04481  1.0000
  H   H2000     1.0  0.58152  0.32977  0.17255  1.0000
  H   H2001     1.0  0.86729  0.29307  0.35063  1.0000
  H   H2002     1.0  0.94538  0.26635  0.39754  1.0000
  S   S527      1.0  0.50579  0.38822  0.22570  1.0000
  H   H2003     1.0  0.78460  0.31392  0.40755  1.0000
  C   C1265     1.0  0.58732  0.42297  0.40577  1.0000
  H   H2004     1.0  0.93897  0.28509  0.35336  1.0000
  C   C1266     1.0  0.98872  0.29136  0.24492  1.0000
  S   S528      1.0  0.69444  0.44948  0.07631  1.0000
  N   N126      1.0  0.84949  0.32022  0.29300  1.0000
  C   C1267     1.0  0.83260  0.32296  0.28088  1.0000
  C   C1268     1.0  0.84042  0.31898  0.31524  1.0000
  C   C1269     1.0  0.86060  0.33811  0.28622  1.0000
  C   C1270     1.0  0.86436  0.30085  0.28974  1.0000
  H   H2005     1.0  0.83886  0.32402  0.26399  1.0000
  H   H2006     1.0  0.82113  0.33745  0.28305  1.0000
  H   H2007     1.0  0.82397  0.30966  0.28571  1.0000
  H   H2008     1.0  0.85268  0.31756  0.32465  1.0000
  H   H2009     1.0  0.82885  0.33318  0.31832  1.0000
  H   H2010     1.0  0.83259  0.30519  0.32125  1.0000
  H   H2011     1.0  0.87357  0.33635  0.29498  1.0000
  H   H2012     1.0  0.85006  0.35302  0.28888  1.0000
  H   H2013     1.0  0.86754  0.33977  0.26947  1.0000
  H   H2014     1.0  0.87784  0.29888  0.29785  1.0000
  H   H2015     1.0  0.87085  0.30083  0.27303  1.0000
  H   H2016     1.0  0.85687  0.28683  0.29582  1.0000
  H   H2017     1.0  0.60441  0.41710  0.36693  1.0000
  N   N127      1.0  0.84868  0.35413  0.42042  1.0000
  H   H2018     1.0  0.57470  0.36073  0.04270  1.0000
  H   H2019     1.0  0.57269  0.41687  0.40694  1.0000
  C   C1271     1.0  0.80048  0.28118  0.38789  1.0000
  S   S529      1.0  0.97194  0.35612  0.33656  1.0000
  H   H2020     1.0  0.86279  0.32180  0.42347  1.0000
  N   N128      1.0  0.54489  0.35612  0.06099  1.0000
  H   H2021     1.0  0.54143  0.35087  0.09425  1.0000
  H   H2022     1.0  0.67662  0.41781  0.34370  1.0000
  C   C1272     1.0  0.75657  0.42360  0.46797  1.0000
  H   H2023     1.0  0.97632  0.28569  0.23988  1.0000
  H   H2024     1.0  0.86926  0.34651  0.44292  1.0000
  H   H2025     1.0  0.69132  0.46445  0.43134  1.0000
  H   H2026     1.0  0.60973  0.45357  0.40010  1.0000
  N   N129      1.0  0.79829  0.28147  0.41028  1.0000
  H   H2027     1.0  0.71567  0.41004  0.44612  1.0000
  H   H2028     1.0  0.54720  0.31259  0.22248  1.0000
  C   C1273     1.0  0.87201  0.26598  0.33641  1.0000
  H   H2029     1.0  0.51606  0.28500  0.46562  1.0000
  C   C1274     1.0  0.57265  0.45678  0.38859  1.0000
  H   H2030     1.0  0.82376  0.36613  0.40287  1.0000
  H   H2031     1.0  0.80558  0.24812  0.41783  1.0000
  H   H2032     1.0  0.56973  0.36103  0.20215  1.0000
  H   H2033     1.0  0.98788  0.24254  0.38011  1.0000
  H   H2034     1.0  0.84328  0.32953  0.40700  1.0000
  H   H2035     1.0  0.57457  0.46941  0.37493  1.0000
  H   H2036     1.0  0.82810  0.38378  0.41780  1.0000
  H   H2037     1.0  0.90283  0.30068  0.33627  1.0000
  C   C1275     1.0  0.62812  0.47134  0.17932  1.0000
  H   H2038     1.0  0.79260  0.26067  0.43929  1.0000
  C   C1276     1.0  0.98356  0.39962  0.19625  1.0000
  C   C1277     1.0  0.59141  0.43056  0.36835  1.0000
  H   H2039     1.0  0.93048  0.25720  0.38273  1.0000
  C   C1278     1.0  0.70170  0.45004  0.43736  1.0000
  H   H2040     1.0  0.51932  0.34782  0.08453  1.0000
  N   N130      1.0  0.63627  0.33043  0.37006  1.0000
  C   C1279     1.0  0.65418  0.31346  0.36651  1.0000
  C   C1280     1.0  0.64223  0.34528  0.38041  1.0000
  C   C1281     1.0  0.61851  0.32158  0.38340  1.0000
  C   C1282     1.0  0.63011  0.34138  0.35005  1.0000
  H   H2041     1.0  0.65023  0.30185  0.35885  1.0000
  H   H2042     1.0  0.65909  0.30503  0.38146  1.0000
  H   H2043     1.0  0.66792  0.31954  0.35652  1.0000
  H   H2044     1.0  0.62912  0.35837  0.38322  1.0000
  H   H2045     1.0  0.64667  0.33756  0.39571  1.0000
  H   H2046     1.0  0.65577  0.35210  0.37093  1.0000
  H   H2047     1.0  0.60476  0.33399  0.38651  1.0000
  H   H2048     1.0  0.62266  0.31309  0.39861  1.0000
  H   H2049     1.0  0.61345  0.31041  0.37604  1.0000
  H   H2050     1.0  0.64309  0.34831  0.33953  1.0000
  H   H2051     1.0  0.61658  0.35426  0.35237  1.0000
  H   H2052     1.0  0.62533  0.33069  0.34187  1.0000
  H   H2053     1.0  0.65057  0.44832  0.35259  1.0000
  H   H2054     1.0  0.52173  0.34966  0.04623  1.0000
  H   H2055     1.0  0.61282  0.45887  0.37238  1.0000
  H   H2056     1.0  0.56251  0.36503  0.17711  1.0000
  C   C1283     1.0  0.78002  0.39448  0.45481  1.0000
  C   C1284     1.0  0.57617  0.32428  0.18932  1.0000
  H   H2057     1.0  0.97402  0.26054  0.27294  1.0000
  C   C1285     1.0  0.60997  0.44668  0.38624  1.0000
  H   H2058     1.0  0.84219  0.35251  0.45353  1.0000
  C   C1286     1.0  0.66403  0.44354  0.36011  1.0000
  C   C1287     1.0  0.66661  0.45434  0.37496  1.0000
  H   H2059     1.0  0.55268  0.43586  0.22207  1.0000
  H   H2060     1.0  0.73260  0.35946  0.46713  1.0000
  C   C1288     1.0  0.67871  0.42604  0.35525  1.0000
  C   C1289     1.0  0.55778  0.35876  0.19380  1.0000
  H   H2061     1.0  0.57123  0.46364  0.40273  1.0000
  H   H2062     1.0  0.73181  0.44834  0.31030  1.0000
  H   H2063     1.0  0.54516  0.33055  0.04588  1.0000
  H   H2064     1.0  0.57676  0.42493  0.36848  1.0000
  H   H2065     1.0  0.52434  0.34342  0.19134  1.0000
  H   H2066     1.0  0.57493  0.33631  0.06000  1.0000
  H   H2067     1.0  0.51875  0.38130  0.06104  1.0000
  H   H2068     1.0  0.54204  0.38721  0.04359  1.0000
  C   C1290     1.0  0.53611  0.37857  0.05908  1.0000
  H   H2069     1.0  0.55764  0.45174  0.38896  1.0000
  C   C1291     1.0  0.86464  0.36062  0.40266  1.0000
  H   H2070     1.0  0.97738  0.34126  0.37870  1.0000
  C   C1292     1.0  0.98694  0.33018  0.36935  1.0000
  H   H2071     1.0  0.58853  0.32551  0.19777  1.0000
  H   H2072     1.0  0.60037  0.40946  0.40519  1.0000
  C   C1293     1.0  0.85426  0.35674  0.43990  1.0000
  H   H2073     1.0  0.65932  0.48231  0.08196  1.0000
  S   S530      1.0  0.63041  0.48177  0.32844  1.0000
  Fe  Fe264     1.0  0.52808  0.38235  0.24929  1.0000
  H   H2074     1.0  0.59126  0.46865  0.25937  1.0000
  H   H2075     1.0  0.54525  0.35511  0.02896  1.0000
  C   C1294     1.0  0.55096  0.23871  0.07867  1.0000
  C   C1295     1.0  0.53666  0.34525  0.08171  1.0000
  S   S531      1.0  0.64857  0.47657  0.38119  1.0000
  H   H2076     1.0  0.74907  0.37186  0.47696  1.0000
  H   H2077     1.0  0.71158  0.44355  0.42377  1.0000
  H   H2078     1.0  0.80422  0.29615  0.37833  1.0000
  C   C1296     1.0  0.72988  0.46547  0.30471  1.0000
  C   C1297     1.0  0.88647  0.25229  0.32503  1.0000
  H   H2079     1.0  0.71669  0.28848  0.45362  1.0000
  H   H2080     1.0  0.51939  0.43558  0.18407  1.0000
  C   C1298     1.0  0.84859  0.28752  0.46797  1.0000
  H   H2081     1.0  0.64071  0.48081  0.17357  1.0000
  H   H2082     1.0  0.66536  0.44222  0.43234  1.0000
  H   H2083     1.0  0.50628  0.45376  0.23490  1.0000
  C   C1299     1.0  0.58308  0.46335  0.27465  1.0000
  C   C1300     1.0  0.86150  0.27942  0.45101  1.0000
  C   C1301     1.0  0.60915  0.45157  0.20887  1.0000
  H   H2084     1.0  0.95085  0.23956  0.39409  1.0000
  H   H2085     1.0  0.69104  0.47217  0.29573  1.0000
  H   H2086     1.0  0.88200  0.23863  0.32213  1.0000
  H   H2087     1.0  0.62008  0.47669  0.22993  1.0000
  H   H2088     1.0  0.64535  0.37258  0.46804  1.0000
  H   H2089     1.0  0.97263  0.25052  0.33786  1.0000
  H   H2090     1.0  0.49191  0.32574  0.02364  1.0000
  H   H2091     1.0  0.96745  0.41747  0.22990  1.0000
  C   C1302     1.0  0.69509  0.47115  0.10732  1.0000
  C   C1303     1.0  0.71136  0.47238  0.33829  1.0000
  H   H2092     1.0  0.77821  0.25856  0.42001  1.0000
  H   H2093     1.0  0.69670  0.47993  0.34728  1.0000
  H   H2094     1.0  0.74394  0.47074  0.30693  1.0000
  C   C1304     1.0  0.94641  0.25591  0.38627  1.0000
  H   H2095     1.0  0.91803  0.24544  0.30888  1.0000
  S   S532      1.0  0.57125  0.47967  0.33184  1.0000
  H   H2096     1.0  0.96560  0.28693  0.34240  1.0000
  H   H2097     1.0  0.98089  0.30433  0.25348  1.0000
  N   N131      1.0  0.52720  0.45074  0.20609  1.0000
  H   H2098     1.0  0.72972  0.46820  0.28773  1.0000
  H   H2099     1.0  0.60817  0.44438  0.22556  1.0000
  C   C1305     1.0  0.54578  0.45149  0.21454  1.0000
  H   H2100     1.0  0.54540  0.44146  0.17791  1.0000
  C   C1306     1.0  0.98677  0.33352  0.34805  1.0000
  C   C1307     1.0  0.53304  0.43641  0.19087  1.0000
  C   C1308     1.0  0.82773  0.26055  0.47208  1.0000
  C   C1309     1.0  0.49530  0.32154  0.03927  1.0000
  S   S533      1.0  0.85372  0.31009  0.47468  1.0000
  C   C1310     1.0  0.67646  0.44398  0.46863  1.0000
  C   C1311     1.0  0.98691  0.26652  0.27680  1.0000
  H   H2101     1.0  0.50790  0.30747  0.09512  1.0000
  H   H2102     1.0  0.98264  0.26930  0.38324  1.0000
  H   H2103     1.0  0.94631  0.24747  0.34917  1.0000
  H   H2104     1.0  0.71246  0.45450  0.44573  1.0000
  H   H2105     1.0  0.53073  0.47774  0.18257  1.0000
  H   H2106     1.0  0.49770  0.34609  0.24465  1.0000
  H   H2107     1.0  0.51993  0.28581  0.98126  1.0000
  C   C1312     1.0  0.71617  0.48102  0.07407  1.0000
  H   H2108     1.0  0.50365  0.25227  0.46745  1.0000
  H   H2109     1.0  0.53425  0.25502  0.00517  1.0000
  C   C1313     1.0  0.62144  0.48180  0.21285  1.0000
  H   H2110     1.0  0.55611  0.28112  0.98641  1.0000
  C   C1314     1.0  0.49427  0.36988  0.21781  1.0000
  H   H2111     1.0  0.68611  0.44864  0.47807  1.0000
  H   H2112     1.0  0.71299  0.41970  0.46975  1.0000
  C   C1315     1.0  0.49228  0.35036  0.22990  1.0000
  H   H2113     1.0  0.63293  0.48291  0.07933  1.0000
  H   H2114     1.0  0.52636  0.23857  0.99112  1.0000
  C   C1316     1.0  0.53920  0.24664  0.99169  1.0000
  H   H2115     1.0  0.61334  0.48117  0.17526  1.0000
  H   H2116     1.0  0.51512  0.48319  0.20664  1.0000
  H   H2117     1.0  0.79777  0.37332  0.47663  1.0000
  S   S534      1.0  0.61976  0.24698  0.97872  1.0000
  C   C1317     1.0  0.55551  0.30188  0.50318  1.0000
  H   H2118     1.0  0.95315  0.41462  0.79399  1.0000
  Fe  Fe265     1.0  0.65266  0.41551  0.58004  1.0000
  S   S535      1.0  0.66554  0.43605  0.55101  1.0000
  S   S536      1.0  0.61899  0.41845  0.59657  1.0000
  Fe  Fe266     1.0  0.69483  0.38816  0.58359  1.0000
  S   S537      1.0  0.71096  0.40567  0.55462  1.0000
  S   S538      1.0  0.70838  0.36058  0.60531  1.0000
  Fe  Fe267     1.0  0.69291  0.43437  0.56712  1.0000
  H   H2119     1.0  0.95921  0.31019  0.81647  1.0000
  Fe  Fe268     1.0  0.68252  0.40579  0.54128  1.0000
  S   S539      1.0  0.68540  0.39521  0.51062  1.0000
  S   S540      1.0  0.67836  0.41661  0.59691  1.0000
  S   S541      1.0  0.66821  0.38561  0.56926  1.0000
  C   C1318     1.0  0.93219  0.37057  0.81016  1.0000
  C   C1319     1.0  0.76106  0.42526  0.54756  1.0000
  Fe  Fe269     1.0  0.52648  0.36193  0.59549  1.0000
  S   S542      1.0  0.51126  0.36089  0.62884  1.0000
  S   S543      1.0  0.56083  0.36022  0.58204  1.0000
  H   H2120     1.0  0.84301  0.46223  0.70442  1.0000
  H   H2121     1.0  0.54913  0.29274  0.57178  1.0000
  S   S544      1.0  0.80338  0.32873  0.51518  1.0000
  H   H2122     1.0  0.96287  0.26168  0.82575  1.0000
  S   S545      1.0  0.51463  0.33417  0.59121  1.0000
  H   H2123     1.0  0.53937  0.24050  0.95336  1.0000
  Fe  Fe270     1.0  0.84854  0.43464  0.81425  1.0000
  S   S546      1.0  0.81460  0.44915  0.81929  1.0000
  S   S547      1.0  0.86731  0.40985  0.83481  1.0000
  Fe  Fe271     1.0  0.85771  0.46180  0.77249  1.0000
  H   H2124     1.0  0.49178  0.26224  0.60049  1.0000
  H   H2125     1.0  0.71413  0.33284  0.49018  1.0000
  H   H2126     1.0  0.76547  0.44284  0.72093  1.0000
  H   H2127     1.0  0.52776  0.28555  0.59126  1.0000
  Fe  Fe272     1.0  0.81635  0.44781  0.78566  1.0000
  S   S548      1.0  0.79138  0.43823  0.77377  1.0000
  S   S549      1.0  0.85953  0.46525  0.80451  1.0000
  S   S550      1.0  0.84912  0.43023  0.78193  1.0000
  Fe  Fe273     1.0  0.87079  0.29200  0.85913  1.0000
  S   S551      1.0  0.88654  0.29315  0.88553  1.0000
  S   S552      1.0  0.85129  0.31854  0.84091  1.0000
  Fe  Fe274     1.0  0.88641  0.24573  0.86020  1.0000
  S   S553      1.0  0.49819  0.30636  0.64842  1.0000
  H   H2128     1.0  0.97208  0.39522  0.71650  1.0000
  Fe  Fe275     1.0  0.87566  0.26282  0.90024  1.0000
  H   H2129     1.0  0.93786  0.26902  0.80206  1.0000
  Fe  Fe276     1.0  0.91345  0.27317  0.86877  1.0000
  S   S554      1.0  0.94730  0.27511  0.86457  1.0000
  S   S555      1.0  0.85714  0.26370  0.87564  1.0000
  S   S556      1.0  0.89862  0.27389  0.84136  1.0000
  H   H2130     1.0  0.49576  0.26645  0.67271  1.0000
  Fe  Fe277     1.0  0.89905  0.40242  0.66432  1.0000
  S   S557      1.0  0.87364  0.39170  0.65419  1.0000
  S   S558      1.0  0.91224  0.43068  0.64722  1.0000
  Fe  Fe278     1.0  0.90400  0.36665  0.69998  1.0000
  S   S559      1.0  0.87899  0.35254  0.69278  1.0000
  S   S560      1.0  0.91806  0.35137  0.72881  1.0000
  Fe  Fe279     1.0  0.89326  0.36009  0.65926  1.0000
  S   S561      1.0  0.89747  0.33683  0.63770  1.0000
  Fe  Fe280     1.0  0.86133  0.38513  0.68817  1.0000
  S   S562      1.0  0.82675  0.39048  0.69862  1.0000
  S   S563      1.0  0.92011  0.37122  0.66675  1.0000
  S   S564      1.0  0.88495  0.39882  0.69805  1.0000
  H   H2131     1.0  0.72682  0.45633  0.63462  1.0000
  H   H2132     1.0  0.53538  0.26169  0.62451  1.0000
  Fe  Fe281     1.0  0.84737  0.34387  0.53748  1.0000
  S   S565      1.0  0.84664  0.31056  0.53608  1.0000
  S   S566      1.0  0.86791  0.35965  0.55019  1.0000
  Fe  Fe282     1.0  0.83811  0.32294  0.50421  1.0000
  Fe  Fe283     1.0  0.81199  0.31892  0.54686  1.0000
  S   S567      1.0  0.79196  0.30214  0.57339  1.0000
  S   S568      1.0  0.84158  0.35579  0.50476  1.0000
  S   S569      1.0  0.81366  0.35071  0.55099  1.0000
  C   C1320     1.0  0.88744  0.34309  0.61426  1.0000
  C   C1321     1.0  0.87701  0.36308  0.60743  1.0000
  C   C1322     1.0  0.87051  0.36785  0.58800  1.0000
  C   C1323     1.0  0.87384  0.35254  0.57552  1.0000
  C   C1324     1.0  0.88382  0.33243  0.58258  1.0000
  C   C1325     1.0  0.89064  0.32776  0.60185  1.0000
  H   H2133     1.0  0.87438  0.37500  0.61686  1.0000
  H   H2134     1.0  0.86308  0.38352  0.58249  1.0000
  H   H2135     1.0  0.88702  0.32068  0.57282  1.0000
  H   H2136     1.0  0.89885  0.31231  0.60695  1.0000
  C   C1326     1.0  0.94818  0.34934  0.75185  1.0000
  C   C1327     1.0  0.54434  0.28034  0.58477  1.0000
  C   C1328     1.0  0.95359  0.29986  0.86194  1.0000
  H   H2137     1.0  0.54448  0.36571  0.49339  1.0000
  H   H2138     1.0  0.75238  0.32470  0.48030  1.0000
  C   C1329     1.0  0.96546  0.33894  0.85601  1.0000
  C   C1330     1.0  0.94427  0.33728  0.86103  1.0000
  C   C1331     1.0  0.93831  0.31769  0.86388  1.0000
  H   H2139     1.0  0.95991  0.24047  0.89524  1.0000
  C   C1332     1.0  0.92615  0.40041  0.82710  1.0000
  H   H2140     1.0  0.93250  0.35111  0.86221  1.0000
  H   H2141     1.0  0.92197  0.31645  0.86742  1.0000
  C   C1333     1.0  0.84920  0.47564  0.70676  1.0000
  H   H2142     1.0  0.51262  0.26935  0.96681  1.0000
  C   C1334     1.0  0.50110  0.26268  0.51558  1.0000
  H   H2143     1.0  0.80758  0.29293  0.61451  1.0000
  C   C1335     1.0  0.57161  0.35604  0.51982  1.0000
  H   H2144     1.0  0.94164  0.38455  0.70799  1.0000
  C   C1336     1.0  0.86239  0.38455  0.83715  1.0000
  C   C1337     1.0  0.87575  0.36753  0.84633  1.0000
  C   C1338     1.0  0.87242  0.34716  0.84770  1.0000
  C   C1339     1.0  0.85553  0.34380  0.84017  1.0000
  C   C1340     1.0  0.84204  0.36085  0.83124  1.0000
  C   C1341     1.0  0.84552  0.38119  0.82963  1.0000
  H   H2145     1.0  0.88861  0.37006  0.85252  1.0000
  H   H2146     1.0  0.88283  0.33409  0.85467  1.0000
  H   H2147     1.0  0.82878  0.35829  0.82570  1.0000
  H   H2148     1.0  0.83493  0.39432  0.82295  1.0000
  C   C1342     1.0  0.80144  0.42569  0.75246  1.0000
  C   C1343     1.0  0.78940  0.41359  0.74695  1.0000
  C   C1344     1.0  0.79726  0.40306  0.73018  1.0000
  C   C1345     1.0  0.81725  0.40447  0.71899  1.0000
  C   C1346     1.0  0.82921  0.41692  0.72419  1.0000
  C   C1347     1.0  0.82126  0.42762  0.74092  1.0000
  H   H2149     1.0  0.77407  0.41211  0.75586  1.0000
  H   H2150     1.0  0.78796  0.39350  0.72613  1.0000
  H   H2151     1.0  0.84442  0.41851  0.71522  1.0000
  H   H2152     1.0  0.83036  0.43745  0.74481  1.0000
  H   H2153     1.0  0.57614  0.35043  0.53542  1.0000
  H   H2154     1.0  0.94141  0.28736  0.77836  1.0000
  H   H2155     1.0  0.76883  0.33774  0.48940  1.0000
  H   H2156     1.0  0.95935  0.26315  0.78175  1.0000
  H   H2157     1.0  0.74908  0.43961  0.54819  1.0000
  H   H2158     1.0  0.49287  0.29626  0.60972  1.0000
  C   C1348     1.0  0.73138  0.34460  0.59548  1.0000
  C   C1349     1.0  0.74306  0.35039  0.57590  1.0000
  C   C1350     1.0  0.76164  0.33736  0.56887  1.0000
  C   C1351     1.0  0.76837  0.31839  0.58129  1.0000
  C   C1352     1.0  0.75656  0.31261  0.60072  1.0000
  C   C1353     1.0  0.73824  0.32573  0.60784  1.0000
  H   H2159     1.0  0.73788  0.36490  0.56623  1.0000
  H   H2160     1.0  0.77064  0.34191  0.55379  1.0000
  H   H2161     1.0  0.76166  0.29802  0.61037  1.0000
  H   H2162     1.0  0.72929  0.32117  0.62297  1.0000
  C   C1354     1.0  0.60244  0.40310  0.59161  1.0000
  C   C1355     1.0  0.58232  0.40331  0.60339  1.0000
  C   C1356     1.0  0.56920  0.39050  0.60046  1.0000
  C   C1357     1.0  0.57623  0.37727  0.58580  1.0000
  C   C1358     1.0  0.59626  0.37720  0.57391  1.0000
  C   C1359     1.0  0.60925  0.39015  0.57669  1.0000
  H   H2163     1.0  0.57689  0.41336  0.61491  1.0000
  H   H2164     1.0  0.55378  0.39068  0.60970  1.0000
  H   H2165     1.0  0.60178  0.36714  0.56241  1.0000
  H   H2166     1.0  0.62449  0.39012  0.56719  1.0000
  H   H2167     1.0  0.85972  0.33748  0.78771  1.0000
  C   C1360     1.0  0.86077  0.46488  0.62539  1.0000
  C   C1361     1.0  0.87390  0.44943  0.63681  1.0000
  C   C1362     1.0  0.89538  0.44946  0.63314  1.0000
  C   C1363     1.0  0.90374  0.46466  0.61790  1.0000
  N   N132      1.0  0.82552  0.31676  0.61257  1.0000
  S   S570      1.0  0.78376  0.38913  0.51527  1.0000
  H   H2168     1.0  0.86732  0.43776  0.64863  1.0000
  C   C1364     1.0  0.49332  0.24668  0.65200  1.0000
  H   H2169     1.0  0.79758  0.33716  0.62350  1.0000
  C   C1365     1.0  0.91641  0.40419  0.79349  1.0000
  H   H2170     1.0  0.56953  0.34230  0.51392  1.0000
  C   C1366     1.0  0.64292  0.40483  0.51094  1.0000
  H   H2171     1.0  0.56076  0.38532  0.54381  1.0000
  C   C1367     1.0  0.54689  0.37895  0.49984  1.0000
  H   H2172     1.0  0.64214  0.41395  0.52278  1.0000
  Fe  Fe284     1.0  0.80771  0.36016  0.51851  1.0000
  H   H2173     1.0  0.53885  0.35726  0.55075  1.0000
  H   H2174     1.0  0.87855  0.44924  0.68615  1.0000
  C   C1368     1.0  0.73849  0.35565  0.51715  1.0000
  S   S571      1.0  0.57274  0.24261  0.54960  1.0000
  S   S572      1.0  0.97358  0.36324  0.84906  1.0000
  C   C1369     1.0  0.66276  0.38172  0.48759  1.0000
  C   C1370     1.0  0.72165  0.46833  0.58356  1.0000
  C   C1371     1.0  0.95281  0.39766  0.79677  1.0000
  H   H2175     1.0  0.84419  0.46483  0.62816  1.0000
  H   H2176     1.0  0.88439  0.34357  0.77344  1.0000
  C   C1372     1.0  0.73395  0.48407  0.57747  1.0000
  C   C1373     1.0  0.96553  0.35522  0.75657  1.0000
  H   H2177     1.0  0.82916  0.32572  0.64059  1.0000
  N   N133      1.0  0.93188  0.39322  0.80687  1.0000
  H   H2178     1.0  0.82977  0.30667  0.58325  1.0000
  H   H2179     1.0  0.98543  0.25804  0.80590  1.0000
  H   H2180     1.0  0.58463  0.28344  0.57860  1.0000
  H   H2181     1.0  0.98660  0.28811  0.85548  1.0000
  H   H2182     1.0  0.88545  0.37802  0.74967  1.0000
  C   C1374     1.0  0.56114  0.27166  0.97380  1.0000
  C   C1375     1.0  0.94820  0.37637  0.72157  1.0000
  H   H2183     1.0  0.92531  0.41751  0.82523  1.0000
  H   H2184     1.0  0.56587  0.28228  0.95916  1.0000
  H   H2185     1.0  0.75580  0.31833  0.50698  1.0000
  H   H2186     1.0  0.55354  0.24396  0.60982  1.0000
  H   H2187     1.0  0.79803  0.40238  0.55374  1.0000
  H   H2188     1.0  0.81344  0.34846  0.60042  1.0000
  H   H2189     1.0  0.70978  0.44630  0.60932  1.0000
  H   H2190     1.0  0.73659  0.42394  0.58417  1.0000
  C   C1376     1.0  0.75405  0.33137  0.49369  1.0000
  H   H2191     1.0  0.98927  0.25332  0.87142  1.0000
  C   C1377     1.0  0.75004  0.41085  0.58347  1.0000
  H   H2192     1.0  0.83038  0.28447  0.62658  1.0000
  H   H2193     1.0  0.51285  0.29615  0.48846  1.0000
  H   H2194     1.0  0.97080  0.30655  0.77022  1.0000
  H   H2195     1.0  0.74448  0.39763  0.57984  1.0000
  C   C1378     1.0  0.53999  0.29398  0.51855  1.0000
  H   H2196     1.0  0.74277  0.46238  0.71774  1.0000
  H   H2197     1.0  0.80765  0.30014  0.63892  1.0000
  H   H2198     1.0  0.85208  0.31051  0.62811  1.0000
  C   C1379     1.0  0.83847  0.31270  0.59255  1.0000
  N   N134      1.0  0.76790  0.41695  0.56781  1.0000
  H   H2199     1.0  0.76380  0.44719  0.57600  1.0000
  H   H2200     1.0  0.78133  0.42751  0.58954  1.0000
  N   N135      1.0  0.55775  0.27590  0.60079  1.0000
  H   H2201     1.0  0.58239  0.25651  0.58364  1.0000
  H   H2202     1.0  0.77866  0.38604  0.56106  1.0000
  C   C1380     1.0  0.97845  0.29490  0.78208  1.0000
  H   H2203     1.0  0.94393  0.36188  0.81997  1.0000
  H   H2204     1.0  0.52402  0.30211  0.51964  1.0000
  H   H2205     1.0  0.72515  0.36808  0.52144  1.0000
  C   C1381     1.0  0.77359  0.47998  0.72323  1.0000
  H   H2206     1.0  0.53224  0.39063  0.50005  1.0000
  H   H2207     1.0  0.67742  0.37277  0.48141  1.0000
  N   N136      1.0  0.64132  0.36602  0.63795  1.0000
  C   C1382     1.0  0.65018  0.34778  0.65219  1.0000
  C   C1383     1.0  0.65175  0.38368  0.63729  1.0000
  C   C1384     1.0  0.61868  0.37186  0.64524  1.0000
  C   C1385     1.0  0.64476  0.36081  0.61696  1.0000
  H   H2208     1.0  0.64272  0.33412  0.65303  1.0000
  H   H2209     1.0  0.64796  0.35116  0.66819  1.0000
  H   H2210     1.0  0.66728  0.34313  0.64693  1.0000
  H   H2211     1.0  0.64521  0.39780  0.62690  1.0000
  H   H2212     1.0  0.64975  0.38792  0.65289  1.0000
  H   H2213     1.0  0.66882  0.37999  0.63142  1.0000
  H   H2214     1.0  0.61173  0.38576  0.63481  1.0000
  H   H2215     1.0  0.61545  0.37582  0.66109  1.0000
  H   H2216     1.0  0.61020  0.35907  0.64556  1.0000
  H   H2217     1.0  0.63816  0.37422  0.60590  1.0000
  H   H2218     1.0  0.63714  0.34754  0.61678  1.0000
  H   H2219     1.0  0.66172  0.35657  0.61084  1.0000
  C   C1386     1.0  0.94970  0.30235  0.80963  1.0000
  C   C1387     1.0  0.83830  0.32280  0.62523  1.0000
  C   C1388     1.0  0.93958  0.35973  0.73425  1.0000
  C   C1389     1.0  0.66201  0.39344  0.50301  1.0000
  H   H2220     1.0  0.54183  0.40214  0.52958  1.0000
  H   H2221     1.0  0.78073  0.46709  0.73452  1.0000
  H   H2222     1.0  0.49828  0.27683  0.52276  1.0000
  H   H2223     1.0  0.79805  0.32991  0.59903  1.0000
  H   H2224     1.0  0.79025  0.39195  0.58068  1.0000
  H   H2225     1.0  0.96480  0.38965  0.80657  1.0000
  C   C1390     1.0  0.50411  0.24885  0.48436  1.0000
  C   C1391     1.0  0.77601  0.43313  0.57431  1.0000
  H   H2226     1.0  0.55943  0.38626  0.48894  1.0000
  H   H2227     1.0  0.75297  0.36246  0.51405  1.0000
  C   C1392     1.0  0.80786  0.33385  0.60875  1.0000
  C   C1393     1.0  0.62485  0.40502  0.50304  1.0000
  H   H2228     1.0  0.87209  0.39038  0.77122  1.0000
  S   S573      1.0  0.88491  0.46581  0.74707  1.0000
  H   H2229     1.0  0.55497  0.25972  0.93968  1.0000
  N   N137      1.0  0.92753  0.39782  0.59596  1.0000
  C   C1394     1.0  0.92717  0.37526  0.60176  1.0000
  C   C1395     1.0  0.94126  0.40349  0.60788  1.0000
  C   C1396     1.0  0.90618  0.40962  0.60071  1.0000
  C   C1397     1.0  0.93548  0.40291  0.57352  1.0000
  H   H2230     1.0  0.91774  0.37018  0.59243  1.0000
  H   H2231     1.0  0.92030  0.37102  0.61839  1.0000
  H   H2232     1.0  0.94312  0.36584  0.59934  1.0000
  H   H2233     1.0  0.94087  0.42061  0.60499  1.0000
  H   H2234     1.0  0.93629  0.39879  0.62487  1.0000
  H   H2235     1.0  0.95773  0.39572  0.60396  1.0000
  H   H2236     1.0  0.90572  0.42670  0.59596  1.0000
  H   H2237     1.0  0.90011  0.40688  0.61762  1.0000
  H   H2238     1.0  0.89513  0.40509  0.59273  1.0000
  H   H2239     1.0  0.93619  0.41979  0.56870  1.0000
  H   H2240     1.0  0.92524  0.39905  0.56414  1.0000
  H   H2241     1.0  0.95145  0.39404  0.56931  1.0000
  C   C1398     1.0  0.57621  0.29164  0.50233  1.0000
  H   H2242     1.0  0.92044  0.39942  0.77795  1.0000
  H   H2243     1.0  0.73940  0.34310  0.53097  1.0000
  C   C1399     1.0  0.49269  0.26315  0.61622  1.0000
  H   H2244     1.0  0.84434  0.33729  0.61734  1.0000
  C   C1400     1.0  0.88364  0.46303  0.68916  1.0000
  C   C1401     1.0  0.71660  0.33879  0.50373  1.0000
  C   C1402     1.0  0.77726  0.39814  0.49059  1.0000
  C   C1403     1.0  0.49486  0.28343  0.64172  1.0000
  H   H2245     1.0  0.53858  0.29857  0.61852  1.0000
  C   C1404     1.0  0.81744  0.29773  0.62368  1.0000
  C   C1405     1.0  0.49271  0.24532  0.63160  1.0000
  C   C1406     1.0  0.78448  0.39852  0.56582  1.0000
  S   S574      1.0  0.71028  0.46133  0.56457  1.0000
  C   C1407     1.0  0.75875  0.45636  0.71002  1.0000
  H   H2246     1.0  0.71703  0.32562  0.51701  1.0000
  C   C1408     1.0  0.54503  0.27558  0.53254  1.0000
  C   C1409     1.0  0.49334  0.28236  0.62141  1.0000
  C   C1410     1.0  0.71929  0.45830  0.60427  1.0000
  S   S575      1.0  0.90416  0.24306  0.88575  1.0000
  C   C1411     1.0  0.62561  0.39348  0.48750  1.0000
  S   S576      1.0  0.49985  0.38478  0.58347  1.0000
  H   H2247     1.0  0.53292  0.26971  0.54426  1.0000
  H   H2248     1.0  0.92034  0.46474  0.61504  1.0000
  H   H2249     1.0  0.81461  0.25327  0.48032  1.0000
  H   H2250     1.0  0.80047  0.45049  0.70471  1.0000
  H   H2251     1.0  0.70266  0.35067  0.50789  1.0000
  C   C1412     1.0  0.94983  0.27590  0.78982  1.0000
  C   C1413     1.0  0.79295  0.46389  0.69423  1.0000
  C   C1414     1.0  0.55606  0.38997  0.52829  1.0000
  N   N138      1.0  0.54434  0.26105  0.97212  1.0000
  H   H2252     1.0  0.86164  0.39621  0.74757  1.0000
  H   H2253     1.0  0.91541  0.42138  0.79103  1.0000
  C   C1415     1.0  0.76252  0.41631  0.48743  1.0000
  H   H2254     1.0  0.95774  0.39232  0.78151  1.0000
  H   H2255     1.0  0.84343  0.32711  0.58296  1.0000
  H   H2256     1.0  0.75419  0.40600  0.59925  1.0000
  H   H2257     1.0  0.85278  0.30097  0.59478  1.0000
  H   H2258     1.0  0.91674  0.36662  0.81815  1.0000
  H   H2259     1.0  0.93762  0.39266  0.83752  1.0000
  H   H2260     1.0  0.91063  0.39696  0.83535  1.0000
  H   H2261     1.0  0.90049  0.40094  0.80059  1.0000
  C   C1416     1.0  0.53515  0.36285  0.53485  1.0000
  C   C1417     1.0  0.96548  0.38237  0.72641  1.0000
  H   H2262     1.0  0.59739  0.26572  0.51595  1.0000
  H   H2263     1.0  0.57534  0.26033  0.97729  1.0000
  N   N139      1.0  0.55241  0.37195  0.52074  1.0000
  H   H2264     1.0  0.58500  0.36240  0.50936  1.0000
  H   H2265     1.0  0.51660  0.25351  0.51834  1.0000
  H   H2266     1.0  0.77431  0.42917  0.53516  1.0000
  N   N140      1.0  0.86637  0.48106  0.68983  1.0000
  H   H2267     1.0  0.93621  0.36468  0.79520  1.0000
  H   H2268     1.0  0.87063  0.35712  0.79419  1.0000
  H   H2269     1.0  0.78940  0.43819  0.56275  1.0000
  H   H2270     1.0  0.75417  0.41374  0.54250  1.0000
  H   H2271     1.0  0.94152  0.33652  0.76171  1.0000
  H   H2272     1.0  0.56585  0.23773  0.95685  1.0000
  N   N141      1.0  0.85772  0.36638  0.76605  1.0000
  C   C1418     1.0  0.85597  0.35696  0.74847  1.0000
  C   C1419     1.0  0.83662  0.37464  0.77642  1.0000
  C   C1420     1.0  0.86974  0.38351  0.75828  1.0000
  C   C1421     1.0  0.86861  0.35042  0.78098  1.0000
  H   H2273     1.0  0.84813  0.36863  0.73672  1.0000
  H   H2274     1.0  0.84677  0.34413  0.75375  1.0000
  H   H2275     1.0  0.87163  0.35036  0.74044  1.0000
  H   H2276     1.0  0.83734  0.38301  0.78892  1.0000
  H   H2277     1.0  0.82758  0.38585  0.76533  1.0000
  H   H2278     1.0  0.82749  0.36198  0.78355  1.0000
  S   S577      1.0  0.86445  0.25138  0.93406  1.0000
  C   C1422     1.0  0.49473  0.26561  0.65698  1.0000
  C   C1423     1.0  0.97464  0.30163  0.85735  1.0000
  C   C1424     1.0  0.58132  0.27354  0.51670  1.0000
  C   C1425     1.0  0.98050  0.32102  0.85448  1.0000
  H   H2279     1.0  0.85447  0.47137  0.72206  1.0000
  C   C1426     1.0  0.97397  0.26993  0.81373  1.0000
  C   C1427     1.0  0.52562  0.27675  0.96830  1.0000
  C   C1428     1.0  0.56574  0.26524  0.53165  1.0000
  H   H2280     1.0  0.53206  0.34931  0.52933  1.0000
  H   H2281     1.0  0.51965  0.23941  0.48668  1.0000
  H   H2282     1.0  0.61023  0.41424  0.50895  1.0000
  H   H2283     1.0  0.54506  0.26625  0.57806  1.0000
  H   H2284     1.0  0.97219  0.34680  0.76989  1.0000
  H   H2285     1.0  0.98275  0.27712  0.82199  1.0000
  C   C1429     1.0  0.83167  0.27799  0.47853  1.0000
  H   H2286     1.0  0.85151  0.47393  0.66718  1.0000
  N   N142      1.0  0.96298  0.28577  0.79880  1.0000
  H   H2287     1.0  0.79230  0.45825  0.67987  1.0000
  C   C1430     1.0  0.55188  0.25817  0.61672  1.0000
  H   H2288     1.0  0.94097  0.31446  0.79894  1.0000
  H   H2289     1.0  0.88973  0.45843  0.70409  1.0000
  H   H2290     1.0  0.98923  0.28276  0.77402  1.0000
  H   H2291     1.0  0.80331  0.47577  0.68982  1.0000
  H   H2292     1.0  0.52037  0.37436  0.53607  1.0000
  N   N143      1.0  0.98780  0.24437  0.90440  1.0000
  H   H2293     1.0  0.56889  0.39719  0.51771  1.0000
  C   C1431     1.0  0.73472  0.36487  0.48110  1.0000
  H   H2294     1.0  0.89696  0.46653  0.67665  1.0000
  C   C1432     1.0  0.55498  0.29444  0.61059  1.0000
  H   H2295     1.0  0.93810  0.29594  0.82261  1.0000
  C   C1433     1.0  0.57979  0.27057  0.59101  1.0000
  C   C1434     1.0  0.74128  0.47979  0.61254  1.0000
  C   C1435     1.0  0.55137  0.24926  0.95475  1.0000
  C   C1436     1.0  0.89074  0.47975  0.60620  1.0000
  H   H2296     1.0  0.96772  0.27398  0.89871  1.0000
  H   H2297     1.0  0.75723  0.45046  0.69610  1.0000
  C   C1437     1.0  0.64459  0.38158  0.47999  1.0000
  H   H2298     1.0  0.56509  0.29176  0.62255  1.0000
  H   H2299     1.0  0.66722  0.43274  0.47925  1.0000
  H   H2300     1.0  0.98830  0.30284  0.78833  1.0000
  C   C1438     1.0  0.97432  0.37175  0.74385  1.0000
  H   H2301     1.0  0.52898  0.28808  0.95379  1.0000
  N   N144      1.0  0.73597  0.34766  0.49894  1.0000
  C   C1439     1.0  0.72900  0.46404  0.61862  1.0000
  C   C1440     1.0  0.97868  0.26533  0.90935  1.0000
  N   N145      1.0  0.50005  0.26814  0.49321  1.0000
  N   N146      1.0  0.77192  0.47263  0.70433  1.0000
  H   H2302     1.0  0.72143  0.37747  0.48468  1.0000
  Fe  Fe285     1.0  0.49773  0.33464  0.62373  1.0000
  H   H2303     1.0  0.55884  0.30828  0.59896  1.0000
  H   H2304     1.0  0.75565  0.42478  0.50005  1.0000
  C   C1441     1.0  0.51590  0.28114  0.48264  1.0000
  H   H2305     1.0  0.58831  0.29748  0.49049  1.0000
  H   H2306     1.0  0.96971  0.26449  0.92541  1.0000
  H   H2307     1.0  0.56176  0.25427  0.62901  1.0000
  H   H2308     1.0  0.49228  0.23881  0.49196  1.0000
  H   H2309     1.0  0.59045  0.26729  0.60253  1.0000
  C   C1442     1.0  0.86922  0.48005  0.61007  1.0000
  H   H2310     1.0  0.92464  0.47895  0.73855  1.0000
  H   H2311     1.0  0.82161  0.28402  0.49164  1.0000
  S   S578      1.0  0.54848  0.32436  0.48513  1.0000
  Fe  Fe286     1.0  0.82562  0.47965  0.80658  1.0000
  H   H2312     1.0  0.53188  0.27314  0.48516  1.0000
  S   S579      1.0  0.82496  0.47929  0.77321  1.0000
  H   H2313     1.0  0.99093  0.27486  0.90786  1.0000
  Fe  Fe287     1.0  0.57479  0.56864  0.19174  1.0000
  S   S580      1.0  0.60643  0.57379  0.17367  1.0000
  Fe  Fe288     1.0  0.57881  0.52677  0.18058  1.0000
  S   S581      1.0  0.61051  0.52780  0.16215  1.0000
  S   S582      1.0  0.56720  0.49690  0.18416  1.0000
  Fe  Fe289     1.0  0.61696  0.54084  0.18757  1.0000
  S   S583      1.0  0.64986  0.53102  0.19282  1.0000
  Fe  Fe290     1.0  0.59836  0.56061  0.14871  1.0000
  S   S584      1.0  0.61660  0.56358  0.11602  1.0000
  S   S585      1.0  0.58638  0.53656  0.20784  1.0000
  S   S586      1.0  0.56534  0.55854  0.16522  1.0000
  C   C1443     1.0  0.95514  0.70015  0.12464  1.0000
  C   C1444     1.0  0.53685  0.58454  0.23254  1.0000
  Fe  Fe291     1.0  0.62979  0.64241  0.01692  1.0000
  S   S587      1.0  0.63641  0.67333  0.99889  1.0000
  S   S588      1.0  0.60420  0.64183  0.04497  1.0000
  H   H2314     1.0  0.53253  0.56418  0.30549  1.0000
  H   H2315     1.0  0.72185  0.50544  0.31062  1.0000
  Fe  Fe292     1.0  0.67007  0.65911  0.99938  1.0000
  S   S589      1.0  0.69202  0.67511  0.00922  1.0000
  H   H2316     1.0  0.72903  0.57149  0.98063  1.0000
  S   S590      1.0  0.66306  0.62943  0.01967  1.0000
  Fe  Fe293     1.0  0.56841  0.70811  0.40880  1.0000
  S   S591      1.0  0.59764  0.69563  0.38829  1.0000
  H   H2317     1.0  0.59221  0.48560  0.28883  1.0000
  Fe  Fe294     1.0  0.54052  0.69595  0.38325  1.0000
  S   S592      1.0  0.56775  0.68307  0.36108  1.0000
  S   S593      1.0  0.50904  0.69624  0.37533  1.0000
  Fe  Fe295     1.0  0.58199  0.66843  0.38927  1.0000
  S   S594      1.0  0.59957  0.63510  0.39415  1.0000
  Fe  Fe296     1.0  0.58042  0.71132  0.36203  1.0000
  C   C1445     1.0  0.85874  0.73112  0.99387  1.0000
  S   S595      1.0  0.55372  0.67966  0.41185  1.0000
  C   C1446     1.0  0.80979  0.60232  0.99724  1.0000
  H   H2318     1.0  0.61641  0.62657  0.43266  1.0000
  S   S596      1.0  0.59650  0.50890  0.36052  1.0000
  H   H2319     1.0  0.62129  0.49379  0.11369  1.0000
  Fe  Fe297     1.0  0.63726  0.51247  0.31055  1.0000
  S   S597      1.0  0.60372  0.52684  0.31033  1.0000
  H   H2320     1.0  0.98593  0.58777  0.12189  1.0000
  Fe  Fe298     1.0  0.60569  0.53775  0.33949  1.0000
  S   S598      1.0  0.58824  0.57086  0.34023  1.0000
  C   C1447     1.0  0.98943  0.68220  0.05459  1.0000
  S   S599      1.0  0.63995  0.52546  0.33794  1.0000
  C   C1448     1.0  0.72300  0.49593  0.08203  1.0000
  H   H2321     1.0  0.63698  0.72326  0.45027  1.0000
  Fe  Fe299     1.0  0.90634  0.66498  0.13828  1.0000
  S   S600      1.0  0.89914  0.65768  0.10972  1.0000
  S   S601      1.0  0.90250  0.69776  0.14352  1.0000
  Fe  Fe300     1.0  0.92611  0.62062  0.15305  1.0000
  S   S602      1.0  0.91959  0.60906  0.12585  1.0000
  S   S603      1.0  0.94764  0.60018  0.17463  1.0000
  Fe  Fe301     1.0  0.93065  0.63781  0.10715  1.0000
  S   S604      1.0  0.95432  0.63760  0.07805  1.0000
  Fe  Fe302     1.0  0.88790  0.62963  0.13053  1.0000
  S   S605      1.0  0.85617  0.62859  0.12277  1.0000
  S   S606      1.0  0.93911  0.64789  0.13359  1.0000
  S   S607      1.0  0.89324  0.63852  0.15978  1.0000
  Fe  Fe303     1.0  0.74551  0.53948  0.09590  1.0000
  S   S608      1.0  0.75074  0.56361  0.11257  1.0000
  Fe  Fe304     1.0  0.76889  0.55901  0.05508  1.0000
  S   S609      1.0  0.77568  0.58495  0.06780  1.0000
  S   S610      1.0  0.77976  0.55367  0.02226  1.0000
  Fe  Fe305     1.0  0.78360  0.56032  0.09481  1.0000
  S   S611      1.0  0.81378  0.55664  0.10755  1.0000
  Fe  Fe306     1.0  0.74257  0.58640  0.08444  1.0000
  S   S612      1.0  0.72083  0.61651  0.08860  1.0000
  S   S613      1.0  0.77918  0.53388  0.08074  1.0000
  S   S614      1.0  0.73495  0.56280  0.06913  1.0000
  C   C1449     1.0  0.53253  0.56430  0.23712  1.0000
  H   H2322     1.0  0.84597  0.71832  0.07764  1.0000
  H   H2323     1.0  0.86511  0.69382  0.03081  1.0000
  S   S615      1.0  0.63120  0.62883  0.98864  1.0000
  C   C1450     1.0  0.86473  0.70539  0.13023  1.0000
  H   H2324     1.0  0.50723  0.57334  0.31906  1.0000
  H   H2325     1.0  0.96607  0.62827  0.32075  1.0000
  C   C1451     1.0  0.96238  0.66179  0.07078  1.0000
  C   C1452     1.0  0.94973  0.67937  0.07784  1.0000
  H   H2326     1.0  0.93453  0.67828  0.08714  1.0000
  C   C1453     1.0  0.84499  0.60823  0.11837  1.0000
  C   C1454     1.0  0.82543  0.61329  0.11188  1.0000
  C   C1455     1.0  0.81568  0.59775  0.10850  1.0000
  C   C1456     1.0  0.82532  0.57687  0.11173  1.0000
  C   C1457     1.0  0.84495  0.57180  0.11806  1.0000
  C   C1458     1.0  0.85480  0.58738  0.12128  1.0000
  H   H2327     1.0  0.81766  0.62935  0.10968  1.0000
  H   H2328     1.0  0.80057  0.60192  0.10368  1.0000
  H   H2329     1.0  0.85254  0.55570  0.12066  1.0000
  H   H2330     1.0  0.86978  0.58322  0.12634  1.0000
  C   C1459     1.0  0.62567  0.66228  0.45776  1.0000
  C   C1460     1.0  0.49288  0.67082  0.35760  1.0000
  H   H2331     1.0  0.66995  0.51372  0.08759  1.0000
  H   H2332     1.0  0.64764  0.49418  0.11594  1.0000
  C   C1461     1.0  0.96177  0.61046  0.18882  1.0000
  C   C1462     1.0  0.95908  0.63183  0.18885  1.0000
  H   H2333     1.0  0.75609  0.56370  0.98307  1.0000
  H   H2334     1.0  0.64846  0.65554  0.42071  1.0000
  H   H2335     1.0  0.86400  0.66081  0.08321  1.0000
  H   H2336     1.0  0.94794  0.64251  0.18027  1.0000
  H   H2337     1.0  0.56451  0.51874  0.14246  1.0000
  C   C1463     1.0  0.63363  0.50360  0.10976  1.0000
  H   H2338     1.0  0.81386  0.54539  0.98982  1.0000
  Fe  Fe307     1.0  0.63081  0.49547  0.35609  1.0000
  C   C1464     1.0  0.70858  0.49912  0.30807  1.0000
  C   C1465     1.0  0.96809  0.73221  0.11014  1.0000
  C   C1466     1.0  0.59621  0.61720  0.37927  1.0000
  C   C1467     1.0  0.60890  0.59740  0.38038  1.0000
  C   C1468     1.0  0.60666  0.58295  0.36862  1.0000
  C   C1469     1.0  0.59163  0.58819  0.35566  1.0000
  C   C1470     1.0  0.57882  0.60790  0.35472  1.0000
  C   C1471     1.0  0.58106  0.62231  0.36645  1.0000
  H   H2339     1.0  0.62062  0.59324  0.39028  1.0000
  H   H2340     1.0  0.61662  0.56784  0.36953  1.0000
  H   H2341     1.0  0.56705  0.61213  0.34487  1.0000
  H   H2342     1.0  0.57096  0.63732  0.36563  1.0000
  H   H2343     1.0  0.69389  0.50783  0.31590  1.0000
  H   H2344     1.0  0.54198  0.58174  0.35183  1.0000
  C   C1472     1.0  0.52246  0.71290  0.32075  1.0000
  C   C1473     1.0  0.50602  0.67182  0.37116  1.0000
  H   H2345     1.0  0.97927  0.62504  0.14435  1.0000
  H   H2346     1.0  0.62787  0.51699  0.11819  1.0000
  H   H2347     1.0  0.51645  0.54594  0.32034  1.0000
  C   C1474     1.0  0.79574  0.58997  0.00985  1.0000
  C   C1475     1.0  0.70335  0.65875  0.02963  1.0000
  C   C1476     1.0  0.70622  0.66726  0.04601  1.0000
  C   C1477     1.0  0.71230  0.65416  0.06384  1.0000
  C   C1478     1.0  0.71617  0.63253  0.06506  1.0000
  C   C1479     1.0  0.71468  0.62404  0.04808  1.0000
  C   C1480     1.0  0.70810  0.63717  0.03043  1.0000
  H   H2348     1.0  0.70284  0.68395  0.04535  1.0000
  H   H2349     1.0  0.71372  0.66076  0.07685  1.0000
  H   H2350     1.0  0.71773  0.60735  0.04888  1.0000
  H   H2351     1.0  0.70636  0.63058  0.01757  1.0000
  C   C1481     1.0  0.65322  0.52578  0.21871  1.0000
  C   C1482     1.0  0.67335  0.52325  0.22298  1.0000
  C   C1483     1.0  0.67664  0.51935  0.24348  1.0000
  C   C1484     1.0  0.65984  0.51775  0.25980  1.0000
  C   C1485     1.0  0.63966  0.51985  0.25563  1.0000
  C   C1486     1.0  0.63631  0.52403  0.23500  1.0000
  H   H2352     1.0  0.68644  0.52448  0.21040  1.0000
  H   H2353     1.0  0.69226  0.51767  0.24668  1.0000
  H   H2354     1.0  0.62671  0.51821  0.26825  1.0000
  H   H2355     1.0  0.62077  0.52570  0.23172  1.0000
  C   C1487     1.0  0.60699  0.61972  0.06445  1.0000
  C   C1488     1.0  0.59366  0.61943  0.08371  1.0000
  C   C1489     1.0  0.59640  0.60233  0.09981  1.0000
  C   C1490     1.0  0.61241  0.58543  0.09657  1.0000
  C   C1491     1.0  0.62565  0.58572  0.07730  1.0000
  C   C1492     1.0  0.62295  0.60279  0.06128  1.0000
  H   H2356     1.0  0.58121  0.63248  0.08618  1.0000
  H   H2357     1.0  0.58605  0.60214  0.11461  1.0000
  H   H2358     1.0  0.63804  0.57271  0.07465  1.0000
  H   H2359     1.0  0.63316  0.60279  0.04643  1.0000
  C   C1493     1.0  0.98534  0.60386  0.11294  1.0000
  H   H2360     1.0  0.85027  0.72276  0.04978  1.0000
  C   C1494     1.0  0.97881  0.62999  0.30716  1.0000
  H   H2361     1.0  0.63383  0.49157  0.20778  1.0000
  H   H2362     1.0  0.61377  0.53735  0.08763  1.0000
  C   C1495     1.0  0.82561  0.59391  0.98237  1.0000
  H   H2363     1.0  0.61635  0.65731  0.47319  1.0000
  H   H2364     1.0  0.58653  0.65971  0.45553  1.0000
  H   H2365     1.0  0.59411  0.68162  0.43711  1.0000
  H   H2366     1.0  0.52248  0.59389  0.33614  1.0000
  S   S616      1.0  0.98635  0.72303  0.05723  1.0000
  H   H2367     1.0  0.50755  0.71075  0.33138  1.0000
  S   S617      1.0  0.55652  0.59208  0.21180  1.0000
  H   H2368     1.0  0.97602  0.62180  0.29534  1.0000
  C   C1496     1.0  0.88161  0.71366  0.13260  1.0000
  C   C1497     1.0  0.98772  0.60439  0.21167  1.0000
  H   H2369     1.0  0.65078  0.53676  0.09085  1.0000
  C   C1498     1.0  0.63163  0.66214  0.42092  1.0000
  H   H2370     1.0  0.62377  0.67956  0.45524  1.0000
  H   H2371     1.0  0.52884  0.61479  0.24158  1.0000
  C   C1499     1.0  0.79724  0.56941  0.00718  1.0000
  H   H2372     1.0  0.88228  0.70073  0.07799  1.0000
  N   N147      1.0  0.59431  0.58004  0.26016  1.0000
  C   C1500     1.0  0.58677  0.58580  0.28096  1.0000
  C   C1501     1.0  0.58385  0.56330  0.25805  1.0000
  C   C1502     1.0  0.61713  0.57269  0.25743  1.0000
  C   C1503     1.0  0.58947  0.59840  0.24412  1.0000
  H   H2373     1.0  0.56963  0.59155  0.28348  1.0000
  H   H2374     1.0  0.59446  0.59830  0.28315  1.0000
  H   H2375     1.0  0.59011  0.57233  0.29349  1.0000
  H   H2376     1.0  0.58869  0.55913  0.24227  1.0000
  H   H2377     1.0  0.58759  0.54892  0.26945  1.0000
  H   H2378     1.0  0.56658  0.56818  0.26040  1.0000
  H   H2379     1.0  0.62331  0.56788  0.24202  1.0000
  H   H2380     1.0  0.62139  0.55904  0.26949  1.0000
  H   H2381     1.0  0.62556  0.58503  0.25860  1.0000
  H   H2382     1.0  0.59485  0.59459  0.22821  1.0000
  H   H2383     1.0  0.59702  0.61143  0.24517  1.0000
  H   H2384     1.0  0.57235  0.60423  0.24559  1.0000
  N   N148      1.0  0.64353  0.66230  0.07496  1.0000
  C   C1504     1.0  0.62237  0.66175  0.08717  1.0000
  C   C1505     1.0  0.64200  0.67526  0.05434  1.0000
  C   C1506     1.0  0.65406  0.64095  0.07233  1.0000
  C   C1507     1.0  0.65568  0.67123  0.08595  1.0000
  H   H2385     1.0  0.62285  0.65150  0.10254  1.0000
  H   H2386     1.0  0.61258  0.65571  0.07901  1.0000
  H   H2387     1.0  0.61411  0.67755  0.08979  1.0000
  H   H2388     1.0  0.65767  0.67585  0.04459  1.0000
  H   H2389     1.0  0.63284  0.66894  0.04569  1.0000
  H   H2390     1.0  0.63419  0.69152  0.05557  1.0000
  H   H2391     1.0  0.64520  0.63378  0.06415  1.0000
  H   H2392     1.0  0.65567  0.63064  0.08748  1.0000
  H   H2393     1.0  0.66999  0.64083  0.06298  1.0000
  H   H2394     1.0  0.64803  0.68724  0.08846  1.0000
  H   H2395     1.0  0.67155  0.67228  0.07695  1.0000
  H   H2396     1.0  0.65763  0.66152  0.10134  1.0000
  H   H2397     1.0  0.94694  0.71203  0.07834  1.0000
  Fe  Fe308     1.0  0.66531  0.61876  0.98963  1.0000
  N   N149      1.0  0.86031  0.69116  0.06401  1.0000
  H   H2398     1.0  0.64239  0.65587  0.45857  1.0000
  H   H2399     1.0  0.50069  0.56816  0.35775  1.0000
  C   C1508     1.0  0.51693  0.55875  0.25392  1.0000
  S   S618      1.0  0.68194  0.58661  0.98604  1.0000
  H   H2400     1.0  0.97095  0.66151  0.32857  1.0000
  H   H2401     1.0  0.97141  0.70245  0.15763  1.0000
  H   H2402     1.0  0.84426  0.68046  0.04455  1.0000
  C   C1509     1.0  0.97627  0.59683  0.20017  1.0000
  C   C1510     1.0  0.84839  0.71841  0.12100  1.0000
  C   C1511     1.0  0.62139  0.63230  0.44509  1.0000
  S   S619      1.0  0.56635  0.72452  0.43631  1.0000
  H   H2403     1.0  0.62683  0.65709  0.40799  1.0000
  H   H2404     1.0  0.87090  0.66771  0.04464  1.0000
  C   C1512     1.0  0.62076  0.73065  0.45243  1.0000
  H   H2405     1.0  0.98242  0.72401  0.10137  1.0000
  C   C1513     1.0  0.95990  0.66257  0.29172  1.0000
  H   H2406     1.0  0.54851  0.58455  0.32415  1.0000
  C   C1514     1.0  0.51498  0.55606  0.35753  1.0000
  H   H2407     1.0  0.51358  0.54311  0.25723  1.0000
  H   H2408     1.0  0.63793  0.62488  0.44561  1.0000
  H   H2409     1.0  0.51022  0.54077  0.35879  1.0000
  H   H2410     1.0  0.96904  0.61219  0.11660  1.0000
  H   H2411     1.0  0.83748  0.67370  0.08338  1.0000
  H   H2412     1.0  0.94649  0.66161  0.30473  1.0000
  H   H2413     1.0  0.95685  0.65532  0.27929  1.0000
  H   H2414     1.0  0.85382  0.68192  0.09721  1.0000
  H   H2415     1.0  0.69673  0.48754  0.13140  1.0000
  H   H2416     1.0  0.63004  0.67940  0.41729  1.0000
  C   C1515     1.0  0.84590  0.71133  0.06394  1.0000
  C   C1516     1.0  0.88166  0.69421  0.06411  1.0000
  C   C1517     1.0  0.98471  0.62572  0.21203  1.0000
  C   C1518     1.0  0.97679  0.71233  0.14270  1.0000
  H   H2417     1.0  0.88730  0.70513  0.05005  1.0000
  C   C1519     1.0  0.98205  0.66333  0.05878  1.0000
  C   C1520     1.0  0.95676  0.69845  0.07290  1.0000
  H   H2418     1.0  0.53529  0.70315  0.32869  1.0000
  C   C1521     1.0  0.57085  0.50250  0.14187  1.0000
  C   C1522     1.0  0.65533  0.52318  0.08262  1.0000
  H   H2419     1.0  0.93474  0.72050  0.15501  1.0000
  H   H2420     1.0  0.73389  0.50530  0.07222  1.0000
  C   C1523     1.0  0.71616  0.49825  0.10279  1.0000
  S   S620      1.0  0.72497  0.51603  0.11391  1.0000
  H   H2421     1.0  0.94486  0.73263  0.04451  1.0000
  H   H2422     1.0  0.70807  0.50278  0.29113  1.0000
  H   H2423     1.0  0.92703  0.72856  0.99651  1.0000
  H   H2424     1.0  0.52608  0.65388  0.39240  1.0000
  C   C1524     1.0  0.86015  0.68289  0.04519  1.0000
  H   H2425     1.0  0.83534  0.71205  0.11917  1.0000
  H   H2426     1.0  0.56117  0.54730  0.32518  1.0000
  C   C1525     1.0  0.97044  0.63938  0.20043  1.0000
  H   H2427     1.0  0.52261  0.70653  0.30661  1.0000
  H   H2428     1.0  0.97848  0.58028  0.20026  1.0000
  H   H2429     1.0  0.72552  0.59719  0.00358  1.0000
  S   S621      1.0  0.59613  0.72677  0.33144  1.0000
  H   H2430     1.0  0.55811  0.72805  0.30763  1.0000
  N   N150      1.0  0.61885  0.65526  0.44109  1.0000
  H   H2431     1.0  0.82956  0.70958  0.06432  1.0000
  H   H2432     1.0  0.61178  0.62652  0.46005  1.0000
  H   H2433     1.0  0.59103  0.65892  0.42834  1.0000
  H   H2434     1.0  0.72178  0.71107  0.99315  1.0000
  C   C1526     1.0  0.93531  0.73334  0.03251  1.0000
  C   C1527     1.0  0.70201  0.48594  0.11530  1.0000
  H   H2435     1.0  0.89291  0.67926  0.06442  1.0000
  N   N151      1.0  0.84521  0.56699  0.04723  1.0000
  C   C1528     1.0  0.83167  0.58670  0.05171  1.0000
  C   C1529     1.0  0.86015  0.56004  0.06190  1.0000
  C   C1530     1.0  0.85679  0.57030  0.02578  1.0000
  C   C1531     1.0  0.83221  0.55093  0.04954  1.0000
  H   H2436     1.0  0.82035  0.59249  0.04079  1.0000
  H   H2437     1.0  0.84093  0.59911  0.05045  1.0000
  H   H2438     1.0  0.82251  0.58467  0.06769  1.0000
  H   H2439     1.0  0.87083  0.54538  0.05877  1.0000
  H   H2440     1.0  0.86982  0.57201  0.06103  1.0000
  H   H2441     1.0  0.85191  0.55696  0.07819  1.0000
  H   H2442     1.0  0.86652  0.58256  0.02334  1.0000
  H   H2443     1.0  0.84598  0.57539  0.01436  1.0000
  H   H2444     1.0  0.86722  0.55580  0.02179  1.0000
  H   H2445     1.0  0.84181  0.53591  0.04599  1.0000
  H   H2446     1.0  0.82049  0.55579  0.03900  1.0000
  H   H2447     1.0  0.82346  0.54788  0.06564  1.0000
  H   H2448     1.0  0.54102  0.55296  0.22759  1.0000
  H   H2449     1.0  0.80878  0.61816  0.99936  1.0000
  H   H2450     1.0  0.96796  0.65590  0.20061  1.0000
  C   C1532     1.0  0.51577  0.65334  0.38203  1.0000
  C   C1533     1.0  0.85359  0.67630  0.08271  1.0000
  H   H2451     1.0  0.96119  0.70972  0.00683  1.0000
  C   C1534     1.0  0.98361  0.66227  0.31482  1.0000
  H   H2452     1.0  0.52135  0.55584  0.37173  1.0000
  N   N152      1.0  0.63848  0.51074  0.08714  1.0000
  Fe  Fe309     1.0  0.59695  0.49722  0.33119  1.0000
  H   H2453     1.0  0.98329  0.64502  0.10813  1.0000
  H   H2454     1.0  0.88140  0.70555  0.98337  1.0000
  H   H2455     1.0  0.54549  0.52854  0.33969  1.0000
  H   H2456     1.0  0.96009  0.67932  0.28526  1.0000
  C   C1535     1.0  0.51152  0.63409  0.38020  1.0000
  H   H2457     1.0  0.51861  0.61993  0.38921  1.0000
  C   C1536     1.0  0.54915  0.54422  0.33912  1.0000
  H   H2458     1.0  0.86419  0.68904  0.13572  1.0000
  H   H2459     1.0  0.54440  0.73207  0.28624  1.0000
  S   S622      1.0  0.55210  0.72554  0.38219  1.0000
  C   C1537     1.0  0.73502  0.71475  0.98058  1.0000
  N   N153      1.0  0.68026  0.56327  0.13379  1.0000
  C   C1538     1.0  0.69288  0.54752  0.14741  1.0000
  C   C1539     1.0  0.65802  0.56514  0.14342  1.0000
  C   C1540     1.0  0.68307  0.55685  0.11339  1.0000
  C   C1541     1.0  0.68703  0.58356  0.13094  1.0000
  H   H2460     1.0  0.69046  0.55142  0.16323  1.0000
  H   H2461     1.0  0.70985  0.54614  0.14099  1.0000
  H   H2462     1.0  0.68878  0.53182  0.14925  1.0000
  H   H2463     1.0  0.65242  0.55011  0.14553  1.0000
  H   H2464     1.0  0.65534  0.56956  0.15904  1.0000
  H   H2465     1.0  0.64795  0.57701  0.13374  1.0000
  H   H2466     1.0  0.67299  0.56787  0.10308  1.0000
  H   H2467     1.0  0.67927  0.54106  0.11505  1.0000
  H   H2468     1.0  0.69953  0.55619  0.10530  1.0000
  H   H2469     1.0  0.67804  0.59577  0.12053  1.0000
  H   H2470     1.0  0.70381  0.58261  0.12374  1.0000
  H   H2471     1.0  0.68511  0.58893  0.14600  1.0000
  N   N154      1.0  0.53037  0.56058  0.33857  1.0000
  C   C1542     1.0  0.52128  0.56099  0.32008  1.0000
  H   H2472     1.0  0.65913  0.52923  0.06572  1.0000
  H   H2473     1.0  0.55637  0.54354  0.35291  1.0000
  C   C1543     1.0  0.53608  0.58106  0.33760  1.0000
  N   N155      1.0  0.97981  0.65212  0.29863  1.0000
  H   H2474     1.0  0.60670  0.51447  0.08284  1.0000
  H   H2475     1.0  0.64954  0.49731  0.05941  1.0000
  H   H2476     1.0  0.78362  0.59644  0.02140  1.0000
  C   C1544     1.0  0.58544  0.73354  0.44583  1.0000
  H   H2477     1.0  0.61209  0.71314  0.43261  1.0000
  C   C1545     1.0  0.59667  0.66430  0.44051  1.0000
  C   C1546     1.0  0.57624  0.49555  0.12272  1.0000
  C   C1547     1.0  0.52567  0.59907  0.24506  1.0000
  H   H2478     1.0  0.62270  0.52943  0.06277  1.0000
  H   H2479     1.0  0.73547  0.67385  0.99309  1.0000
  H   H2480     1.0  0.98474  0.67893  0.30888  1.0000
  C   C1548     1.0  0.50551  0.57339  0.26622  1.0000
  H   H2481     1.0  0.75259  0.58951  0.00549  1.0000
  C   C1549     1.0  0.61960  0.52358  0.07975  1.0000
  H   H2482     1.0  0.76175  0.67877  0.98786  1.0000
  H   H2483     1.0  0.74234  0.61635  0.99706  1.0000
  C   C1550     1.0  0.57348  0.48840  0.16019  1.0000
  S   S623      1.0  0.66477  0.51340  0.28512  1.0000
  C   C1551     1.0  0.97675  0.69977  0.06159  1.0000
  H   H2484     1.0  0.60642  0.49190  0.20977  1.0000
  C   C1552     1.0  0.64535  0.49254  0.07648  1.0000
  C   C1553     1.0  0.51004  0.59355  0.26180  1.0000
  C   C1554     1.0  0.60665  0.72477  0.44248  1.0000
  H   H2485     1.0  0.57409  0.50644  0.10857  1.0000
  C   C1555     1.0  0.49783  0.63313  0.36719  1.0000
  C   C1556     1.0  0.74146  0.60013  0.99608  1.0000
  H   H2486     1.0  0.98832  0.60298  0.09610  1.0000
  C   C1557     1.0  0.86557  0.71389  0.98356  1.0000
  H   H2487     1.0  0.50126  0.60504  0.27100  1.0000
  C   C1558     1.0  0.81272  0.56124  0.99197  1.0000
  H   H2488     1.0  0.94990  0.68939  0.13899  1.0000
  H   H2489     1.0  0.93140  0.71766  0.03387  1.0000
  H   H2490     1.0  0.97393  0.73015  0.99068  1.0000
  H   H2491     1.0  0.97606  0.72294  0.01763  1.0000
  H   H2492     1.0  0.96866  0.69142  0.11530  1.0000
  N   N156      1.0  0.96043  0.71879  0.12956  1.0000
  C   C1559     1.0  0.96520  0.72519  0.00640  1.0000
  H   H2493     1.0  0.94206  0.70443  0.11567  1.0000
  H   H2494     1.0  0.98147  0.72600  0.14646  1.0000
  C   C1560     1.0  0.94163  0.73048  0.14080  1.0000
  H   H2495     1.0  0.99109  0.70320  0.13480  1.0000
  H   H2496     1.0  0.53907  0.73372  0.34193  1.0000
  C   C1561     1.0  0.82709  0.57335  0.97983  1.0000
  C   C1562     1.0  0.74834  0.67827  0.98050  1.0000
  H   H2497     1.0  0.74801  0.71630  0.98801  1.0000
  Fe  Fe310     1.0  0.88550  0.57835  0.75022  1.0000
  S   S624      1.0  0.85154  0.57941  0.76331  1.0000
  S   S625      1.0  0.91035  0.54994  0.75254  1.0000
  Fe  Fe311     1.0  0.88003  0.62441  0.73358  1.0000
  S   S626      1.0  0.84558  0.62937  0.74614  1.0000
  S   S627      1.0  0.89489  0.65053  0.71284  1.0000
  Fe  Fe312     1.0  0.85448  0.60793  0.77489  1.0000
  S   S628      1.0  0.83889  0.60822  0.80849  1.0000
  Fe  Fe313     1.0  0.84607  0.60050  0.73347  1.0000
  S   S629      1.0  0.82331  0.60152  0.71224  1.0000
  S   S630      1.0  0.88891  0.60547  0.76342  1.0000
  S   S631      1.0  0.87988  0.59693  0.71938  1.0000
  Fe  Fe314     1.0  0.81921  0.68337  0.94277  1.0000
  S   S632      1.0  0.84871  0.66227  0.93145  1.0000
  H   H2498     1.0  0.75639  0.63048  0.78393  1.0000
  Fe  Fe315     1.0  0.79169  0.65694  0.93122  1.0000
  S   S633      1.0  0.81886  0.63355  0.92010  1.0000
  S   S634      1.0  0.75868  0.65197  0.93329  1.0000
  Fe  Fe316     1.0  0.83138  0.63637  0.94783  1.0000
  S   S635      1.0  0.84500  0.60801  0.96858  1.0000
  Fe  Fe317     1.0  0.83352  0.66136  0.90435  1.0000
  S   S636      1.0  0.85040  0.66406  0.87081  1.0000
  S   S637      1.0  0.80284  0.65720  0.96059  1.0000
  S   S638      1.0  0.80537  0.68497  0.91409  1.0000
  C   C1563     1.0  0.62917  0.69461  0.92597  1.0000
  H   H2499     1.0  0.63417  0.64376  0.91150  1.0000
  Fe  Fe318     1.0  0.87852  0.70190  0.56575  1.0000
  S   S639      1.0  0.88051  0.68351  0.59768  1.0000
  S   S640      1.0  0.90416  0.70906  0.53907  1.0000
  Fe  Fe319     1.0  0.83191  0.71598  0.57564  1.0000
  S   S641      1.0  0.82972  0.69898  0.60853  1.0000
  H   H2500     1.0  0.97545  0.71440  0.58773  1.0000
  Fe  Fe320     1.0  0.85877  0.71097  0.60875  1.0000
  C   C1564     1.0  0.96433  0.71797  0.68463  1.0000
  Fe  Fe321     1.0  0.85141  0.67275  0.59479  1.0000
  S   S642      1.0  0.84935  0.63912  0.60905  1.0000
  S   S643      1.0  0.81438  0.71140  0.95933  1.0000
  S   S644      1.0  0.85137  0.68885  0.56168  1.0000
  Fe  Fe322     1.0  0.77618  0.50859  0.62759  1.0000
  S   S645      1.0  0.79400  0.52469  0.59841  1.0000
  C   C1565     1.0  0.54817  0.73130  0.79156  1.0000
  Fe  Fe323     1.0  0.80072  0.52240  0.65534  1.0000
  S   S646      1.0  0.82057  0.53860  0.62836  1.0000
  S   S647      1.0  0.80749  0.51966  0.68769  1.0000
  Fe  Fe324     1.0  0.79078  0.55101  0.61598  1.0000
  S   S648      1.0  0.78518  0.58484  0.60031  1.0000
  Fe  Fe325     1.0  0.82222  0.51120  0.61340  1.0000
  H   H2501     1.0  0.75153  0.64302  0.80620  1.0000
  S   S649      1.0  0.77037  0.53624  0.64412  1.0000
  H   H2502     1.0  0.66704  0.66516  0.83529  1.0000
  Fe  Fe326     1.0  0.71099  0.62301  0.84989  1.0000
  S   S650      1.0  0.71916  0.58836  0.85925  1.0000
  S   S651      1.0  0.73256  0.64501  0.84935  1.0000
  Fe  Fe327     1.0  0.67236  0.62064  0.83307  1.0000
  S   S652      1.0  0.67731  0.58594  0.84080  1.0000
  S   S653      1.0  0.64724  0.64174  0.81670  1.0000
  Fe  Fe328     1.0  0.68471  0.59059  0.87061  1.0000
  S   S654      1.0  0.67099  0.57129  0.89969  1.0000
  Fe  Fe329     1.0  0.71125  0.58673  0.82868  1.0000
  S   S655      1.0  0.72906  0.56688  0.80498  1.0000
  S   S656      1.0  0.67707  0.62546  0.86396  1.0000
  S   S657      1.0  0.70570  0.62128  0.81833  1.0000
  Fe  Fe330     1.0  0.52109  0.64471  0.74503  1.0000
  C   C1566     1.0  0.72417  0.69703  0.95771  1.0000
  C   C1567     1.0  0.76743  0.60071  0.96486  1.0000
  Fe  Fe331     1.0  0.53070  0.67317  0.77193  1.0000
  S   S658      1.0  0.53360  0.64745  0.79927  1.0000
  S   S659      1.0  0.53026  0.70649  0.77491  1.0000
  Fe  Fe332     1.0  0.55230  0.62866  0.77531  1.0000
  S   S660      1.0  0.58153  0.60649  0.78321  1.0000
  H   H2503     1.0  0.51311  0.60108  0.72772  1.0000
  S   S661      1.0  0.55067  0.65494  0.74797  1.0000
  S   S662      1.0  0.50112  0.66566  0.76651  1.0000
  N   N157      1.0  0.74622  0.59667  0.97436  1.0000
  C   C1568     1.0  0.76242  0.49023  0.68983  1.0000
  N   N158      1.0  0.74172  0.69844  0.96748  1.0000
  Fe  Fe333     1.0  0.64047  0.65885  0.97054  1.0000
  H   H2504     1.0  0.85779  0.69433  0.96514  1.0000
  C   C1569     1.0  0.62794  0.63180  0.80908  1.0000
  C   C1570     1.0  0.62691  0.61058  0.81373  1.0000
  C   C1571     1.0  0.61236  0.60297  0.80604  1.0000
  C   C1572     1.0  0.59846  0.61659  0.79407  1.0000
  C   C1573     1.0  0.59895  0.63791  0.79014  1.0000
  C   C1574     1.0  0.61374  0.64545  0.79751  1.0000
  H   H2505     1.0  0.63734  0.60005  0.82316  1.0000
  H   H2506     1.0  0.61182  0.58650  0.80936  1.0000
  H   H2507     1.0  0.58826  0.64852  0.78098  1.0000
  H   H2508     1.0  0.61431  0.66190  0.79400  1.0000
  C   C1575     1.0  0.75216  0.54977  0.81052  1.0000
  C   C1576     1.0  0.76299  0.53654  0.79654  1.0000
  H   H2509     1.0  0.75181  0.55931  0.83941  1.0000
  H   H2510     1.0  0.75695  0.53664  0.78270  1.0000
  C   C1577     1.0  0.98205  0.72648  0.59225  1.0000
  C   C1578     1.0  0.64533  0.68639  0.86524  1.0000
  H   H2511     1.0  0.67314  0.55154  0.97347  1.0000
  S   S663      1.0  0.80503  0.49356  0.64150  1.0000
  H   H2512     1.0  0.85487  0.54681  0.55349  1.0000
  H   H2513     1.0  0.72860  0.68470  0.94788  1.0000
  S   S664      1.0  0.75288  0.48651  0.63152  1.0000
  C   C1579     1.0  0.94752  0.70690  0.66118  1.0000
  H   H2514     1.0  0.93496  0.72984  0.61091  1.0000
  H   H2515     1.0  0.77350  0.64725  0.78614  1.0000
  C   C1580     1.0  0.82908  0.62622  0.60805  1.0000
  C   C1581     1.0  0.81681  0.63263  0.59245  1.0000
  C   C1582     1.0  0.80262  0.62032  0.59076  1.0000
  C   C1583     1.0  0.80066  0.60158  0.60461  1.0000
  C   C1584     1.0  0.81214  0.59584  0.62081  1.0000
  C   C1585     1.0  0.82642  0.60798  0.62240  1.0000
  H   H2516     1.0  0.81873  0.64667  0.58132  1.0000
  H   H2517     1.0  0.79362  0.62498  0.57830  1.0000
  H   H2518     1.0  0.81029  0.58186  0.63197  1.0000
  H   H2519     1.0  0.83569  0.60297  0.63464  1.0000
  C   C1586     1.0  0.67622  0.56306  0.95974  1.0000
  C   C1587     1.0  0.83178  0.71829  0.97282  1.0000
  S   S665      1.0  0.62294  0.67254  0.94392  1.0000
  H   H2520     1.0  0.66926  0.72058  0.90317  1.0000
  H   H2521     1.0  0.65128  0.72251  0.82144  1.0000
  S   S666      1.0  0.52470  0.61683  0.77016  1.0000
  S   S667      1.0  0.81376  0.50738  0.82284  1.0000
  N   N159      1.0  0.94453  0.71323  0.68165  1.0000
  H   H2522     1.0  0.83940  0.56679  0.96845  1.0000
  C   C1588     1.0  0.67765  0.57451  0.92269  1.0000
  C   C1589     1.0  0.67395  0.55960  0.94047  1.0000
  H   H2523     1.0  0.95287  0.71928  0.64846  1.0000
  C   C1590     1.0  0.85100  0.66239  0.65314  1.0000
  C   C1591     1.0  0.68548  0.59662  0.94360  1.0000
  C   C1592     1.0  0.68412  0.59273  0.92412  1.0000
  H   H2524     1.0  0.66896  0.54550  0.93939  1.0000
  H   H2525     1.0  0.71897  0.71191  0.94759  1.0000
  H   H2526     1.0  0.68966  0.61107  0.94478  1.0000
  H   H2527     1.0  0.68726  0.60418  0.91036  1.0000
  H   H2528     1.0  0.80409  0.61867  0.78173  1.0000
  H   H2529     1.0  0.65809  0.68926  0.87219  1.0000
  C   C1593     1.0  0.57151  0.70162  0.77938  1.0000
  C   C1594     1.0  0.55141  0.71326  0.78274  1.0000
  H   H2530     1.0  0.83729  0.58405  0.54566  1.0000
  N   N160      1.0  0.85855  0.54282  0.82159  1.0000
  H   H2531     1.0  0.57420  0.68779  0.77247  1.0000
  C   C1595     1.0  0.65375  0.71678  0.90646  1.0000
  C   C1596     1.0  0.94410  0.64790  0.66569  1.0000
  C   C1597     1.0  0.63851  0.72868  0.89502  1.0000
  H   H2532     1.0  0.78344  0.49230  0.71950  1.0000
  H   H2533     1.0  0.60390  0.69944  0.78119  1.0000
  C   C1598     1.0  0.96701  0.69820  0.53205  1.0000
  C   C1599     1.0  0.94645  0.70460  0.52839  1.0000
  C   C1600     1.0  0.92970  0.70148  0.54451  1.0000
  C   C1601     1.0  0.93363  0.69232  0.56447  1.0000
  C   C1602     1.0  0.95427  0.68583  0.56814  1.0000
  H   H2534     1.0  0.71049  0.69318  0.96951  1.0000
  H   H2535     1.0  0.92085  0.68997  0.57703  1.0000
  H   H2536     1.0  0.95716  0.67827  0.58342  1.0000
  C   C1603     1.0  0.85286  0.62532  0.66489  1.0000
  C   C1604     1.0  0.78981  0.52313  0.81806  1.0000
  C   C1605     1.0  0.78167  0.52312  0.80038  1.0000
  H   H2537     1.0  0.86007  0.50454  0.75666  1.0000
  H   H2538     1.0  0.95966  0.69268  0.66003  1.0000
  C   C1606     1.0  0.75939  0.70371  0.95115  1.0000
  C   C1607     1.0  0.64973  0.71617  0.83834  1.0000
  C   C1608     1.0  0.76015  0.54950  0.82835  1.0000
  C   C1609     1.0  0.75176  0.64960  0.90993  1.0000
  C   C1610     1.0  0.76498  0.65374  0.89098  1.0000
  C   C1611     1.0  0.75892  0.65232  0.87248  1.0000
  C   C1612     1.0  0.73996  0.64606  0.87289  1.0000
  C   C1613     1.0  0.72689  0.64157  0.89188  1.0000
  C   C1614     1.0  0.73260  0.64375  0.91031  1.0000
  H   H2539     1.0  0.77973  0.65839  0.89050  1.0000
  H   H2540     1.0  0.76903  0.65606  0.85785  1.0000
  H   H2541     1.0  0.71212  0.63701  0.89230  1.0000
  H   H2542     1.0  0.72202  0.64107  0.92481  1.0000
  C   C1615     1.0  0.82032  0.57839  0.70502  1.0000
  C   C1616     1.0  0.82606  0.55878  0.71677  1.0000
  C   C1617     1.0  0.82209  0.54083  0.71136  1.0000
  C   C1618     1.0  0.81286  0.54231  0.69390  1.0000
  C   C1619     1.0  0.80768  0.56183  0.68185  1.0000
  C   C1620     1.0  0.81120  0.57980  0.68751  1.0000
  H   H2543     1.0  0.83299  0.55750  0.73035  1.0000
  H   H2544     1.0  0.82602  0.52584  0.72090  1.0000
  H   H2545     1.0  0.80042  0.56319  0.66847  1.0000
  H   H2546     1.0  0.80667  0.59488  0.67836  1.0000
  C   C1621     1.0  0.91779  0.64141  0.69638  1.0000
  C   C1622     1.0  0.92609  0.65503  0.67922  1.0000
  H   H2547     1.0  0.93698  0.69990  0.71388  1.0000
  C   C1623     1.0  0.94522  0.61332  0.68606  1.0000
  C   C1624     1.0  0.92740  0.62053  0.69977  1.0000
  H   H2548     1.0  0.91824  0.67095  0.67605  1.0000
  H   H2549     1.0  0.95252  0.59712  0.68875  1.0000
  H   H2550     1.0  0.92122  0.60991  0.71303  1.0000
  C   C1625     1.0  0.84265  0.62385  0.82544  1.0000
  C   C1626     1.0  0.83189  0.62133  0.84598  1.0000
  C   C1627     1.0  0.83402  0.63359  0.85994  1.0000
  C   C1628     1.0  0.84713  0.64843  0.85360  1.0000
  C   C1629     1.0  0.85797  0.65089  0.83306  1.0000
  C   C1630     1.0  0.85573  0.63869  0.81901  1.0000
  H   H2551     1.0  0.82185  0.60981  0.85125  1.0000
  H   H2552     1.0  0.82553  0.63154  0.87561  1.0000
  H   H2553     1.0  0.86815  0.66231  0.82800  1.0000
  H   H2554     1.0  0.86413  0.64081  0.80327  1.0000
  C   C1631     1.0  0.90286  0.52714  0.74984  1.0000
  C   C1632     1.0  0.91827  0.51048  0.74430  1.0000
  H   H2555     1.0  0.97238  0.73066  0.60698  1.0000
  H   H2556     1.0  0.89734  0.49140  0.59434  1.0000
  C   C1633     1.0  0.88183  0.52511  0.75386  1.0000
  H   H2557     1.0  0.93453  0.51205  0.74117  1.0000
  H   H2558     1.0  0.74845  0.72824  0.55723  1.0000
  H   H2559     1.0  0.86984  0.53791  0.75794  1.0000
  C   C1634     1.0  0.83869  0.54973  0.81355  1.0000
  H   H2560     1.0  0.77180  0.50292  0.68540  1.0000
  C   C1635     1.0  0.87573  0.57695  0.55481  1.0000
  H   H2561     1.0  0.75521  0.71904  0.94125  1.0000
  H   H2562     1.0  0.63038  0.69446  0.87318  1.0000
  C   C1636     1.0  0.58832  0.70825  0.78434  1.0000
  H   H2563     1.0  0.97987  0.70037  0.51941  1.0000
  H   H2564     1.0  0.71473  0.60858  0.96945  1.0000
  H   H2565     1.0  0.83801  0.60180  0.56234  1.0000
  C   C1637     1.0  0.68143  0.58177  0.96143  1.0000
  H   H2566     1.0  0.83606  0.48898  0.70795  1.0000
  H   H2567     1.0  0.49937  0.57439  0.71599  1.0000
  C   C1638     1.0  0.85753  0.57422  0.59012  1.0000
  C   C1639     1.0  0.97099  0.68864  0.55187  1.0000
  S   S668      1.0  0.85901  0.73017  0.57714  1.0000
  H   H2568     1.0  0.84676  0.50093  0.66918  1.0000
  H   H2569     1.0  0.85994  0.62181  0.64915  1.0000
  C   C1640     1.0  0.49705  0.62693  0.70856  1.0000
  H   H2570     1.0  0.75331  0.66553  0.97122  1.0000
  H   H2571     1.0  0.85453  0.67714  0.65577  1.0000
  H   H2572     1.0  0.62773  0.67463  0.83846  1.0000
  C   C1641     1.0  0.58509  0.72621  0.79321  1.0000
  S   S669      1.0  0.67497  0.64749  0.96922  1.0000
  H   H2573     1.0  0.85480  0.63480  0.70121  1.0000
  H   H2574     1.0  0.74873  0.57164  0.95779  1.0000
  H   H2575     1.0  0.94955  0.68137  0.69717  1.0000
  H   H2576     1.0  0.86338  0.51254  0.81320  1.0000
  H   H2577     1.0  0.77489  0.63233  0.83197  1.0000
  H   H2578     1.0  0.79734  0.63570  0.81232  1.0000
  S   S670      1.0  0.86085  0.72604  0.63533  1.0000
  C   C1642     1.0  0.90229  0.72868  0.62072  1.0000
  H   H2579     1.0  0.91328  0.72936  0.67925  1.0000
  C   C1643     1.0  0.61852  0.72369  0.89942  1.0000
  H   H2580     1.0  0.99116  0.72659  0.55125  1.0000
  S   S671      1.0  0.85339  0.49946  0.59539  1.0000
  H   H2581     1.0  0.85399  0.56935  0.83664  1.0000
  H   H2582     1.0  0.77956  0.58933  0.97239  1.0000
  H   H2583     1.0  0.88928  0.63870  0.64992  1.0000
  C   C1644     1.0  0.85711  0.55200  0.84025  1.0000
  C   C1645     1.0  0.82108  0.73349  0.50271  1.0000
  C   C1646     1.0  0.66769  0.68201  0.83253  1.0000
  H   H2584     1.0  0.82785  0.72124  0.49370  1.0000
  C   C1647     1.0  0.88164  0.64173  0.66571  1.0000
  H   H2585     1.0  0.73156  0.62748  0.96240  1.0000
  H   H2586     1.0  0.87742  0.51397  0.83299  1.0000
  H   H2587     1.0  0.94354  0.71163  0.51293  1.0000
  H   H2588     1.0  0.78688  0.60222  0.77905  1.0000
  H   H2589     1.0  0.78516  0.53641  0.84574  1.0000
  H   H2590     1.0  0.84120  0.54505  0.57966  1.0000
  H   H2591     1.0  0.87705  0.59341  0.55441  1.0000
  C   C1648     1.0  0.76413  0.60196  0.81743  1.0000
  H   H2592     1.0  0.89005  0.56689  0.55980  1.0000
  H   H2593     1.0  0.87136  0.56413  0.59606  1.0000
  S   S672      1.0  0.97982  0.67451  0.61650  1.0000
  H   H2594     1.0  0.83201  0.65009  0.69206  1.0000
  C   C1649     1.0  0.87580  0.54973  0.80560  1.0000
  N   N161      1.0  0.64825  0.69388  0.84261  1.0000
  H   H2595     1.0  0.77093  0.59973  0.94804  1.0000
  N   N162      1.0  0.85869  0.64439  0.66830  1.0000
  C   C1650     1.0  0.86252  0.51987  0.82697  1.0000
  C   C1651     1.0  0.85874  0.48652  0.66981  1.0000
  H   H2596     1.0  0.61555  0.70100  0.84043  1.0000
  N   N163      1.0  0.77717  0.61736  0.80582  1.0000
  H   H2597     1.0  0.82380  0.71327  0.53203  1.0000
  H   H2598     1.0  0.84973  0.51414  0.83897  1.0000
  C   C1652     1.0  0.63026  0.69103  0.83433  1.0000
  H   H2599     1.0  0.83385  0.66430  0.65394  1.0000
  H   H2600     1.0  0.87566  0.57509  0.53867  1.0000
  H   H2601     1.0  0.89108  0.54461  0.81102  1.0000
  H   H2602     1.0  0.93283  0.70367  0.65805  1.0000
  C   C1653     1.0  0.76406  0.63533  0.79499  1.0000
  H   H2603     1.0  0.85847  0.66041  0.63706  1.0000
  H   H2604     1.0  0.87185  0.54723  0.84672  1.0000
  H   H2605     1.0  0.76936  0.61654  0.96615  1.0000
  H   H2606     1.0  0.77316  0.70442  0.95787  1.0000
  H   H2607     1.0  0.90292  0.71574  0.61304  1.0000
  H   H2608     1.0  0.86908  0.53867  0.57476  1.0000
  H   H2609     1.0  0.82529  0.54536  0.82550  1.0000
  H   H2610     1.0  0.60651  0.73300  0.89117  1.0000
  C   C1654     1.0  0.79362  0.60762  0.79048  1.0000
  H   H2611     1.0  0.66329  0.71899  0.84407  1.0000
  C   C1655     1.0  0.95368  0.62699  0.66906  1.0000
  H   H2612     1.0  0.63257  0.69515  0.81710  1.0000
  H   H2613     1.0  0.76445  0.69190  0.94076  1.0000
  H   H2614     1.0  0.85813  0.61155  0.67638  1.0000
  H   H2615     1.0  0.82350  0.58096  0.57174  1.0000
  C   C1656     1.0  0.81894  0.72900  0.52441  1.0000
  C   C1657     1.0  0.83812  0.58520  0.56181  1.0000
  H   H2616     1.0  0.78990  0.51298  0.78953  1.0000
  H   H2617     1.0  0.74644  0.49708  0.69682  1.0000
  C   C1658     1.0  0.78682  0.62449  0.82048  1.0000
  H   H2618     1.0  0.75172  0.60875  0.82926  1.0000
  H   H2619     1.0  0.95027  0.65843  0.65239  1.0000
  H   H2620     1.0  0.73589  0.49200  0.56153  1.0000
  H   H2621     1.0  0.83544  0.56687  0.80876  1.0000
  H   H2622     1.0  0.85820  0.59064  0.59067  1.0000
  Fe  Fe334     1.0  0.50594  0.63824  0.79162  1.0000
  H   H2623     1.0  0.59850  0.70267  0.91769  1.0000
  C   C1659     1.0  0.64907  0.69984  0.92202  1.0000
  H   H2624     1.0  0.80361  0.59387  0.79818  1.0000
  H   H2625     1.0  0.84348  0.57010  0.60116  1.0000
  S   S673      1.0  0.97595  0.61752  0.65205  1.0000
  C   C1660     1.0  0.85547  0.54959  0.56916  1.0000
  H   H2626     1.0  0.63580  0.58635  0.93105  1.0000
  C   C1661     1.0  0.74499  0.57491  0.97392  1.0000
  N   N164      1.0  0.67751  0.58352  0.77456  1.0000
  C   C1662     1.0  0.68205  0.60180  0.78090  1.0000
  C   C1663     1.0  0.69590  0.57454  0.76055  1.0000
  C   C1664     1.0  0.65934  0.59000  0.76370  1.0000
  C   C1665     1.0  0.67281  0.56772  0.79314  1.0000
  H   H2627     1.0  0.66872  0.60874  0.79184  1.0000
  H   H2628     1.0  0.68530  0.61422  0.76736  1.0000
  H   H2629     1.0  0.69588  0.59751  0.78882  1.0000
  H   H2630     1.0  0.69303  0.56075  0.75537  1.0000
  H   H2631     1.0  0.70012  0.58608  0.74648  1.0000
  H   H2632     1.0  0.70982  0.56935  0.76842  1.0000
  H   H2633     1.0  0.65508  0.57654  0.75913  1.0000
  H   H2634     1.0  0.66245  0.60167  0.74943  1.0000
  H   H2635     1.0  0.64533  0.59729  0.77370  1.0000
  H   H2636     1.0  0.66951  0.55360  0.78895  1.0000
  H   H2637     1.0  0.65895  0.57387  0.80402  1.0000
  H   H2638     1.0  0.68616  0.56266  0.80180  1.0000
  C   C1666     1.0  0.73090  0.61094  0.96257  1.0000
  N   N165      1.0  0.85673  0.57149  0.56895  1.0000
  H   H2639     1.0  0.75644  0.59623  0.80696  1.0000
  H   H2640     1.0  0.85369  0.66217  0.69284  1.0000
  H   H2641     1.0  0.83564  0.62682  0.66647  1.0000
  C   C1667     1.0  0.77905  0.53645  0.83195  1.0000
  H   H2642     1.0  0.73380  0.60849  0.94619  1.0000
  H   H2643     1.0  0.87726  0.54329  0.79121  1.0000
  H   H2644     1.0  0.77359  0.58820  0.82576  1.0000
  H   H2645     1.0  0.61024  0.58987  0.94616  1.0000
  H   H2646     1.0  0.88801  0.62847  0.67713  1.0000
  H   H2647     1.0  0.75308  0.50189  0.58683  1.0000
  H   H2648     1.0  0.97710  0.70421  0.68382  1.0000
  H   H2649     1.0  0.84423  0.54713  0.85265  1.0000
  H   H2650     1.0  0.96278  0.72291  0.69983  1.0000
  H   H2651     1.0  0.92264  0.69306  0.69721  1.0000
  C   C1668     1.0  0.91269  0.49181  0.74281  1.0000
  H   H2652     1.0  0.79626  0.61123  0.82940  1.0000
  C   C1669     1.0  0.74379  0.48969  0.59179  1.0000
  H   H2653     1.0  0.88653  0.65589  0.66808  1.0000
  C   C1670     1.0  0.93818  0.69615  0.69819  1.0000
  H   H2654     1.0  0.63558  0.72545  0.84625  1.0000
  C   C1671     1.0  0.87630  0.50618  0.75311  1.0000
  H   H2655     1.0  0.64503  0.66940  0.86898  1.0000
  H   H2656     1.0  0.68155  0.68370  0.83855  1.0000
  C   C1672     1.0  0.50252  0.60582  0.71663  1.0000
  H   H2657     1.0  0.66093  0.69061  0.93063  1.0000
  H   H2658     1.0  0.86116  0.51285  0.69442  1.0000
  C   C1673     1.0  0.61397  0.70655  0.91460  1.0000
  H   H2659     1.0  0.83887  0.54251  0.79990  1.0000
  C   C1674     1.0  0.84933  0.64813  0.68951  1.0000
  H   H2660     1.0  0.73090  0.72447  0.54175  1.0000
  S   S674      1.0  0.50648  0.64674  0.71632  1.0000
  H   H2661     1.0  0.67036  0.68724  0.81543  1.0000
  N   N166      1.0  0.61911  0.61775  0.92678  1.0000
  C   C1675     1.0  0.61223  0.61482  0.90809  1.0000
  C   C1676     1.0  0.60224  0.63110  0.93861  1.0000
  C   C1677     1.0  0.63778  0.62777  0.92041  1.0000
  C   C1678     1.0  0.62425  0.59730  0.93996  1.0000
  H   H2662     1.0  0.59822  0.60721  0.91225  1.0000
  H   H2663     1.0  0.62471  0.60478  0.89885  1.0000
  H   H2664     1.0  0.60827  0.62995  0.89776  1.0000
  H   H2665     1.0  0.60693  0.63334  0.95293  1.0000
  H   H2666     1.0  0.59832  0.64689  0.92936  1.0000
  H   H2667     1.0  0.58776  0.62426  0.94338  1.0000
  H   H2668     1.0  0.64414  0.62924  0.93409  1.0000
  H   H2669     1.0  0.87339  0.56701  0.80130  1.0000
  H   H2670     1.0  0.65035  0.61868  0.91046  1.0000
  H   H2671     1.0  0.63110  0.59866  0.95338  1.0000
  C   C1679     1.0  0.89176  0.48955  0.74761  1.0000
  H   H2672     1.0  0.58152  0.72705  0.56085  1.0000
  C   C1680     1.0  0.87389  0.49904  0.69359  1.0000
  C   C1681     1.0  0.85219  0.70746  0.97317  1.0000
  C   C1682     1.0  0.49466  0.59070  0.70998  1.0000
  H   H2673     1.0  0.75804  0.48664  0.73133  1.0000
  H   H2674     1.0  0.87988  0.49545  0.70851  1.0000
  C   C1683     1.0  0.92816  0.73198  0.68257  1.0000
  H   H2675     1.0  0.96957  0.73075  0.67228  1.0000
  H   H2676     1.0  0.87160  0.48929  0.65653  1.0000
  H   H2677     1.0  0.88678  0.50365  0.68109  1.0000
  H   H2678     1.0  0.75721  0.73119  0.50985  1.0000
  H   H2679     1.0  0.76120  0.48531  0.67524  1.0000
  H   H2680     1.0  0.72982  0.73018  0.97131  1.0000
  H   H2681     1.0  0.77455  0.73451  0.52568  1.0000
  S   S675      1.0  0.60684  0.73457  0.79810  1.0000
  H   H2682     1.0  0.49207  0.71187  0.80161  1.0000
  Fe  Fe335     1.0  0.87034  0.76391  0.02665  1.0000
  S   S676      1.0  0.84042  0.78277  0.04053  1.0000
  Fe  Fe336     1.0  0.89592  0.77636  0.05430  1.0000
  S   S677      1.0  0.86818  0.79509  0.07092  1.0000
  S   S678      1.0  0.92750  0.77102  0.06388  1.0000
  Fe  Fe337     1.0  0.85112  0.76970  0.07089  1.0000
  H   H2683     1.0  0.80641  0.90678  0.34669  1.0000
  Fe  Fe338     1.0  0.85971  0.80732  0.03941  1.0000
  S   S679      1.0  0.84638  0.84182  0.03290  1.0000
  S   S680      1.0  0.87966  0.74944  0.05756  1.0000
  S   S681      1.0  0.88890  0.78986  0.02233  1.0000
  H   H2684     1.0  0.50808  0.76426  0.30205  1.0000
  H   H2685     1.0  0.78138  0.90069  0.35952  1.0000
  C   C1684     1.0  0.53851  0.84030  0.20508  1.0000
  Fe  Fe339     1.0  0.80815  0.95833  0.12714  1.0000
  S   S682      1.0  0.84191  0.94379  0.12528  1.0000
  S   S683      1.0  0.78270  0.96019  0.15477  1.0000
  H   H2686     1.0  0.49170  0.74641  0.31726  1.0000
  Fe  Fe340     1.0  0.83720  0.93146  0.09790  1.0000
  S   S684      1.0  0.85340  0.89810  0.09647  1.0000
  C   C1685     1.0  0.58545  0.75107  0.31823  1.0000
  S   S685      1.0  0.80277  0.94389  0.10170  1.0000
  H   H2687     1.0  0.93808  0.94367  0.19699  1.0000
  H   H2688     1.0  0.80457  0.88650  0.36892  1.0000
  S   S686      1.0  0.95600  0.85093  0.07852  1.0000
  Fe  Fe341     1.0  0.83747  0.82877  0.44832  1.0000
  S   S687      1.0  0.80740  0.81903  0.46511  1.0000
  H   H2689     1.0  0.79404  0.89418  0.47287  1.0000
  Fe  Fe342     1.0  0.83300  0.81865  0.40750  1.0000
  S   S688      1.0  0.80297  0.80691  0.42134  1.0000
  S   S689      1.0  0.84454  0.81918  0.37314  1.0000
  Fe  Fe343     1.0  0.79492  0.83531  0.43632  1.0000
  S   S690      1.0  0.76399  0.85667  0.43660  1.0000
  Fe  Fe344     1.0  0.81839  0.79163  0.44886  1.0000
  S   S691      1.0  0.96716  0.84603  0.13436  1.0000
  S   S692      1.0  0.82386  0.84806  0.42097  1.0000
  S   S693      1.0  0.84944  0.80037  0.43359  1.0000
  Fe  Fe345     1.0  0.83738  0.93970  0.24885  1.0000
  S   S694      1.0  0.86846  0.94079  0.22823  1.0000
  S   S695      1.0  0.80576  0.95618  0.24257  1.0000
  Fe  Fe346     1.0  0.85596  0.91733  0.28707  1.0000
  S   S696      1.0  0.88877  0.91632  0.26990  1.0000
  S   S697      1.0  0.84796  0.90972  0.32187  1.0000
  Fe  Fe347     1.0  0.87789  0.94908  0.25535  1.0000
  H   H2690     1.0  0.98115  0.86589  0.03805  1.0000
  Fe  Fe348     1.0  0.87690  0.90784  0.24427  1.0000
  S   S698      1.0  0.89643  0.88113  0.22927  1.0000
  S   S699      1.0  0.84609  0.95094  0.27450  1.0000
  S   S700      1.0  0.84468  0.90591  0.26288  1.0000
  Fe  Fe349     1.0  0.54094  0.83873  0.29499  1.0000
  S   S701      1.0  0.54031  0.84558  0.32663  1.0000
  S   S702      1.0  0.55961  0.81238  0.27937  1.0000
  Fe  Fe350     1.0  0.50913  0.87655  0.28258  1.0000
  S   S703      1.0  0.50628  0.84384  0.29732  1.0000
  H   H2691     1.0  0.94018  0.74867  0.98031  1.0000
  Fe  Fe351     1.0  0.54106  0.87860  0.31022  1.0000
  S   S704      1.0  0.55727  0.89974  0.32215  1.0000
  H   H2692     1.0  0.57217  0.85009  0.21493  1.0000
  S   S705      1.0  0.54426  0.87110  0.27824  1.0000
  C   C1686     1.0  0.52529  0.74240  0.33491  1.0000
  Fe  Fe352     1.0  0.67958  0.92489  0.37371  1.0000
  S   S706      1.0  0.68422  0.89580  0.36037  1.0000
  S   S707      1.0  0.67045  0.92199  0.40838  1.0000
  Fe  Fe353     1.0  0.69878  0.94995  0.33330  1.0000
  S   S708      1.0  0.70403  0.92269  0.31681  1.0000
  Fe  Fe354     1.0  0.67191  0.91702  0.33305  1.0000
  S   S709      1.0  0.65391  0.90308  0.31519  1.0000
  Fe  Fe355     1.0  0.71528  0.90408  0.34538  1.0000
  S   S710      1.0  0.74563  0.88195  0.34516  1.0000
  S   S711      1.0  0.66533  0.94621  0.34733  1.0000
  S   S712      1.0  0.71186  0.93139  0.36087  1.0000
  H   H2693     1.0  0.92860  0.92768  0.16960  1.0000
  C   C1687     1.0  0.78506  0.93827  0.36594  1.0000
  H   H2694     1.0  0.54898  0.84707  0.19124  1.0000
  H   H2695     1.0  0.50553  0.74211  0.29203  1.0000
  H   H2696     1.0  0.89923  0.93160  0.11841  1.0000
  C   C1688     1.0  0.67774  0.83821  0.41805  1.0000
  C   C1689     1.0  0.58420  0.90099  0.31923  1.0000
  C   C1690     1.0  0.59011  0.91488  0.32926  1.0000
  C   C1691     1.0  0.61132  0.91560  0.32843  1.0000
  C   C1692     1.0  0.62691  0.90275  0.31711  1.0000
  C   C1693     1.0  0.62099  0.88909  0.30680  1.0000
  C   C1694     1.0  0.59980  0.88806  0.30799  1.0000
  H   H2697     1.0  0.57818  0.92510  0.33784  1.0000
  H   H2698     1.0  0.61559  0.92632  0.33627  1.0000
  H   H2699     1.0  0.63293  0.87915  0.29792  1.0000
  H   H2700     1.0  0.59555  0.87733  0.30015  1.0000
  C   C1695     1.0  0.73126  0.98196  0.15288  1.0000
  H   H2701     1.0  0.93857  0.77268  0.01568  1.0000
  C   C1696     1.0  0.90847  0.82714  0.29646  1.0000
  H   H2702     1.0  0.53043  0.82184  0.24540  1.0000
  H   H2703     1.0  0.49630  0.74653  0.40335  1.0000
  H   H2704     1.0  0.57287  0.84553  0.40667  1.0000
  H   H2705     1.0  0.90354  0.92017  0.20210  1.0000
  H   H2706     1.0  0.61741  0.84822  0.36295  1.0000
  H   H2707     1.0  0.56221  0.84902  0.24214  1.0000
  C   C1697     1.0  0.84599  0.84414  0.35853  1.0000
  C   C1698     1.0  0.85069  0.85950  0.36726  1.0000
  C   C1699     1.0  0.85189  0.87935  0.35554  1.0000
  C   C1700     1.0  0.84821  0.88406  0.33508  1.0000
  C   C1701     1.0  0.84365  0.86873  0.32617  1.0000
  C   C1702     1.0  0.84276  0.84869  0.33784  1.0000
  H   H2708     1.0  0.85386  0.85594  0.38294  1.0000
  H   H2709     1.0  0.85585  0.89104  0.36235  1.0000
  H   H2710     1.0  0.84037  0.87242  0.31051  1.0000
  H   H2711     1.0  0.83904  0.83682  0.33108  1.0000
  C   C1703     1.0  0.75928  0.86405  0.41111  1.0000
  C   C1704     1.0  0.74097  0.87763  0.40702  1.0000
  C   C1705     1.0  0.73653  0.88271  0.38684  1.0000
  C   C1706     1.0  0.75066  0.87473  0.37058  1.0000
  C   C1707     1.0  0.76918  0.86147  0.37460  1.0000
  C   C1708     1.0  0.77352  0.85620  0.39485  1.0000
  H   H2712     1.0  0.73009  0.88411  0.41944  1.0000
  H   H2713     1.0  0.72195  0.89253  0.38404  1.0000
  H   H2714     1.0  0.78023  0.85530  0.36208  1.0000
  H   H2715     1.0  0.78792  0.84603  0.39776  1.0000
  C   C1709     1.0  0.60769  0.86352  0.36546  1.0000
  H   H2716     1.0  0.89617  0.82061  0.30855  1.0000
  H   H2717     1.0  0.67242  0.85339  0.40836  1.0000
  H   H2718     1.0  0.89506  0.74134  0.12747  1.0000
  H   H2719     1.0  0.82348  0.87190  0.45437  1.0000
  C   C1710     1.0  0.91423  0.88707  0.20621  1.0000
  C   C1711     1.0  0.92842  0.87088  0.19791  1.0000
  C   C1712     1.0  0.94282  0.87515  0.17964  1.0000
  C   C1713     1.0  0.91445  0.90759  0.19598  1.0000
  H   H2720     1.0  0.92839  0.85496  0.20570  1.0000
  H   H2721     1.0  0.95390  0.86256  0.17363  1.0000
  H   H2722     1.0  0.66635  0.83691  0.43280  1.0000
  H   H2723     1.0  0.93402  0.85484  0.27976  1.0000
  H   H2724     1.0  0.60507  0.74515  0.28943  1.0000
  H   H2725     1.0  0.78886  0.89524  0.40357  1.0000
  S   S713      1.0  0.65356  0.80304  0.46860  1.0000
  C   C1714     1.0  0.57881  0.74899  0.45845  1.0000
  C   C1715     1.0  0.75083  0.88715  0.47650  1.0000
  C   C1716     1.0  0.58479  0.77484  0.28544  1.0000
  C   C1717     1.0  0.56937  0.78920  0.29501  1.0000
  C   C1718     1.0  0.56180  0.78447  0.31634  1.0000
  C   C1719     1.0  0.56978  0.76528  0.32796  1.0000
  C   C1720     1.0  0.57448  0.88188  0.38037  1.0000
  H   H2726     1.0  0.92312  0.82342  0.30308  1.0000
  H   H2727     1.0  0.54983  0.79553  0.32382  1.0000
  H   H2728     1.0  0.56410  0.76164  0.34442  1.0000
  C   C1721     1.0  0.63170  0.87088  0.43627  1.0000
  C   C1722     1.0  0.63166  0.88082  0.41567  1.0000
  C   C1723     1.0  0.64363  0.89644  0.40700  1.0000
  C   C1724     1.0  0.65527  0.90258  0.41909  1.0000
  C   C1725     1.0  0.65505  0.89290  0.43984  1.0000
  H   H2729     1.0  0.92065  0.74425  0.03649  1.0000
  H   H2730     1.0  0.62250  0.87633  0.40633  1.0000
  H   H2731     1.0  0.64353  0.90405  0.39106  1.0000
  H   H2732     1.0  0.51112  0.74015  0.34673  1.0000
  H   H2733     1.0  0.97192  0.74659  0.11326  1.0000
  H   H2734     1.0  0.57440  0.86150  0.34969  1.0000
  H   H2735     1.0  0.82367  0.90350  0.38684  1.0000
  H   H2736     1.0  0.79445  0.94368  0.35069  1.0000
  C   C1726     1.0  0.79011  0.95923  0.17869  1.0000
  H   H2737     1.0  0.50906  0.84211  0.23876  1.0000
  C   C1727     1.0  0.77966  0.96370  0.21465  1.0000
  C   C1728     1.0  0.80032  0.95725  0.21779  1.0000
  C   C1729     1.0  0.81602  0.95195  0.20131  1.0000
  C   C1730     1.0  0.81092  0.95312  0.18165  1.0000
  H   H2738     1.0  0.93794  0.95585  0.21862  1.0000
  C   C1731     1.0  0.77454  0.96449  0.19522  1.0000
  H   H2739     1.0  0.83203  0.94699  0.20366  1.0000
  H   H2740     1.0  0.82300  0.94901  0.16893  1.0000
  Fe  Fe356     1.0  0.62680  0.82884  0.47466  1.0000
  C   C1732     1.0  0.84889  0.85788  0.04999  1.0000
  C   C1733     1.0  0.86320  0.85121  0.06368  1.0000
  C   C1734     1.0  0.86439  0.86378  0.07771  1.0000
  C   C1735     1.0  0.85149  0.88331  0.07805  1.0000
  C   C1736     1.0  0.83734  0.89022  0.06419  1.0000
  C   C1737     1.0  0.83605  0.87751  0.05022  1.0000
  H   H2741     1.0  0.87374  0.83659  0.06318  1.0000
  H   H2742     1.0  0.87557  0.85839  0.08817  1.0000
  H   H2743     1.0  0.82736  0.90528  0.06427  1.0000
  H   H2744     1.0  0.82503  0.88289  0.03959  1.0000
  C   C1738     1.0  0.93475  0.79318  0.06891  1.0000
  C   C1739     1.0  0.92388  0.81310  0.06266  1.0000
  C   C1740     1.0  0.93033  0.83066  0.06608  1.0000
  C   C1741     1.0  0.94739  0.82842  0.07614  1.0000
  C   C1742     1.0  0.95804  0.80847  0.08279  1.0000
  C   C1743     1.0  0.95190  0.79091  0.07889  1.0000
  H   H2745     1.0  0.91074  0.81502  0.05482  1.0000
  H   H2746     1.0  0.92207  0.84605  0.06081  1.0000
  H   H2747     1.0  0.67674  0.82563  0.40989  1.0000
  H   H2748     1.0  0.96047  0.77555  0.08353  1.0000
  H   H2749     1.0  0.78350  0.95029  0.37577  1.0000
  H   H2750     1.0  0.81517  0.93048  0.38901  1.0000
  H   H2751     1.0  0.59632  0.85457  0.40700  1.0000
  H   H2752     1.0  0.82626  0.92323  0.36411  1.0000
  S   S714      1.0  0.50600  0.88744  0.31290  1.0000
  H   H2753     1.0  0.52638  0.75922  0.33183  1.0000
  H   H2754     1.0  0.91111  0.81878  0.28311  1.0000
  H   H2755     1.0  0.57211  0.89216  0.36534  1.0000
  H   H2756     1.0  0.96285  0.75917  0.02302  1.0000
  C   C1744     1.0  0.92198  0.97906  0.17290  1.0000
  S   S715      1.0  0.81723  0.75866  0.46543  1.0000
  H   H2757     1.0  0.80919  0.74394  0.98317  1.0000
  H   H2758     1.0  0.54657  0.75386  0.29706  1.0000
  H   H2759     1.0  0.74894  0.89286  0.46003  1.0000
  C   C1745     1.0  0.58846  0.84775  0.39749  1.0000
  H   H2760     1.0  0.56247  0.75593  0.46114  1.0000
  H   H2761     1.0  0.86730  0.76374  0.10984  1.0000
  C   C1746     1.0  0.82150  0.87047  0.47102  1.0000
  C   C1747     1.0  0.53277  0.87132  0.22021  1.0000
  C   C1748     1.0  0.50672  0.74750  0.30633  1.0000
  H   H2762     1.0  0.92856  0.96629  0.16378  1.0000
  H   H2763     1.0  0.68823  0.85338  0.44751  1.0000
  S   S716      1.0  0.89888  0.97263  0.24961  1.0000
  C   C1749     1.0  0.95245  0.76077  0.01143  1.0000
  H   H2764     1.0  0.97124  0.80658  0.09052  1.0000
  H   H2765     1.0  0.78045  0.92199  0.40678  1.0000
  H   H2766     1.0  0.87548  0.90565  0.12789  1.0000
  Fe  Fe357     1.0  0.81142  0.97302  0.08102  1.0000
  N   N167      1.0  0.90229  0.84981  0.29000  1.0000
  C   C1750     1.0  0.89889  0.86028  0.30817  1.0000
  C   C1751     1.0  0.88280  0.85397  0.28136  1.0000
  C   C1752     1.0  0.91898  0.85781  0.27396  1.0000
  H   H2767     1.0  0.89313  0.87730  0.30416  1.0000
  H   H2768     1.0  0.91351  0.85829  0.31452  1.0000
  H   H2769     1.0  0.88711  0.85388  0.32095  1.0000
  H   H2770     1.0  0.87752  0.87094  0.27667  1.0000
  N   N168      1.0  0.94634  0.74066  0.01161  1.0000
  H   H2771     1.0  0.64350  0.86933  0.46429  1.0000
  H   H2772     1.0  0.91483  0.87487  0.26871  1.0000
  H   H2773     1.0  0.92168  0.85050  0.25986  1.0000
  N   N169      1.0  0.53946  0.84847  0.22372  1.0000
  C   C1753     1.0  0.59305  0.75547  0.46772  1.0000
  C   C1754     1.0  0.56104  0.84321  0.22804  1.0000
  C   C1755     1.0  0.52541  0.83900  0.24163  1.0000
  S   S717      1.0  0.84561  0.95931  0.07479  1.0000
  C   C1756     1.0  0.61409  0.74602  0.46515  1.0000
  H   H2774     1.0  0.75847  0.96921  0.19302  1.0000
  H   H2775     1.0  0.94514  0.74425  0.14548  1.0000
  H   H2776     1.0  0.61613  0.87118  0.37361  1.0000
  H   H2777     1.0  0.50088  0.80963  0.33648  1.0000
  H   H2778     1.0  0.71411  0.97304  0.11160  1.0000
  N   N170      1.0  0.81349  0.82160  0.10459  1.0000
  C   C1757     1.0  0.79716  0.81123  0.11887  1.0000
  C   C1758     1.0  0.83367  0.81367  0.11188  1.0000
  C   C1759     1.0  0.80809  0.84435  0.10401  1.0000
  C   C1760     1.0  0.81510  0.81707  0.08356  1.0000
  H   H2779     1.0  0.80100  0.79401  0.11953  1.0000
  H   H2780     1.0  0.78173  0.81671  0.11378  1.0000
  H   H2781     1.0  0.79548  0.81425  0.13493  1.0000
  H   H2782     1.0  0.84631  0.82143  0.10167  1.0000
  H   H2783     1.0  0.83290  0.81650  0.12785  1.0000
  H   H2784     1.0  0.83843  0.79658  0.11211  1.0000
  H   H2785     1.0  0.82017  0.85251  0.09323  1.0000
  H   H2786     1.0  0.80691  0.84844  0.11956  1.0000
  H   H2787     1.0  0.79299  0.85094  0.09852  1.0000
  H   H2788     1.0  0.82742  0.82442  0.07244  1.0000
  H   H2789     1.0  0.80027  0.82309  0.07740  1.0000
  H   H2790     1.0  0.81901  0.80004  0.08338  1.0000
  N   N171      1.0  0.90835  0.89908  0.11632  1.0000
  C   C1761     1.0  0.92623  0.88219  0.11979  1.0000
  C   C1762     1.0  0.90564  0.90242  0.09441  1.0000
  C   C1763     1.0  0.91231  0.91841  0.12110  1.0000
  C   C1764     1.0  0.88928  0.89320  0.13001  1.0000
  H   H2791     1.0  0.92861  0.87914  0.13623  1.0000
  H   H2792     1.0  0.74314  0.93557  0.32096  1.0000
  H   H2793     1.0  0.94097  0.88619  0.10994  1.0000
  H   H2794     1.0  0.91991  0.90647  0.08365  1.0000
  H   H2795     1.0  0.90229  0.88819  0.09041  1.0000
  H   H2796     1.0  0.98279  0.82761  0.04354  1.0000
  H   H2797     1.0  0.92688  0.92302  0.11139  1.0000
  H   H2798     1.0  0.91427  0.91638  0.13758  1.0000
  H   H2799     1.0  0.89089  0.89029  0.14666  1.0000
  H   H2800     1.0  0.88564  0.87886  0.12655  1.0000
  S   S718      1.0  0.96057  0.90162  0.14620  1.0000
  H   H2801     1.0  0.54328  0.82307  0.20732  1.0000
  C   C1765     1.0  0.95541  0.97757  0.18243  1.0000
  N   N172      1.0  0.93304  0.97716  0.19041  1.0000
  Fe  Fe358     1.0  0.84764  0.97261  0.10246  1.0000
  Fe  Fe359     1.0  0.50573  0.85405  0.32720  1.0000
  Fe  Fe360     1.0  0.97843  0.84916  0.10017  1.0000
  H   H2802     1.0  0.54286  0.87907  0.20670  1.0000
  H   H2803     1.0  0.95626  0.73704  0.09962  1.0000
  H   H2804     1.0  0.52530  0.84540  0.25569  1.0000
  H   H2805     1.0  0.72354  0.95438  0.13262  1.0000
  H   H2806     1.0  0.76751  0.96788  0.22732  1.0000
  C   C1766     1.0  0.59293  0.75602  0.29701  1.0000
  H   H2807     1.0  0.58248  0.88990  0.38863  1.0000
  H   H2808     1.0  0.76911  0.93803  0.36334  1.0000
  S   S719      1.0  0.83112  0.75518  0.09887  1.0000
  S   S720      1.0  0.87652  0.73879  0.00632  1.0000
  N   N173      1.0  0.69912  0.83681  0.42191  1.0000
  C   C1767     1.0  0.71365  0.83857  0.40190  1.0000
  C   C1768     1.0  0.57588  0.85173  0.36519  1.0000
  C   C1769     1.0  0.69956  0.85387  0.43268  1.0000
  C   C1770     1.0  0.70554  0.81664  0.43503  1.0000
  H   H2809     1.0  0.72994  0.83780  0.40417  1.0000
  H   H2810     1.0  0.70919  0.85358  0.39155  1.0000
  H   H2811     1.0  0.71383  0.82584  0.39341  1.0000
  C   C1771     1.0  0.92870  0.91184  0.17759  1.0000
  S   S721      1.0  0.71469  0.97712  0.31550  1.0000
  H   H2812     1.0  0.69548  0.86939  0.42295  1.0000
  H   H2813     1.0  0.71530  0.85278  0.43650  1.0000
  H   H2814     1.0  0.69532  0.81512  0.45052  1.0000
  H   H2815     1.0  0.72180  0.81495  0.43781  1.0000
  H   H2816     1.0  0.70481  0.80332  0.42774  1.0000
  C   C1772     1.0  0.81592  0.91876  0.37910  1.0000
  Fe  Fe361     1.0  0.98076  0.87452  0.13202  1.0000
  N   N174      1.0  0.58663  0.86121  0.37714  1.0000
  H   H2817     1.0  0.55870  0.88067  0.38961  1.0000
  H   H2818     1.0  0.59771  0.83207  0.39568  1.0000
  S   S722      1.0  0.61738  0.85064  0.44626  1.0000
  C   C1773     1.0  0.79689  0.90225  0.36211  1.0000
  H   H2819     1.0  0.73847  0.96557  0.15824  1.0000
  C   C1774     1.0  0.84939  0.73945  0.11348  1.0000
  C   C1775     1.0  0.93070  0.95733  0.20466  1.0000
  H   H2820     1.0  0.70030  0.97328  0.13770  1.0000
  N   N175      1.0  0.76947  0.92949  0.29708  1.0000
  C   C1776     1.0  0.79231  0.92845  0.29357  1.0000
  C   C1777     1.0  0.76044  0.93374  0.31819  1.0000
  C   C1778     1.0  0.76492  0.90941  0.29480  1.0000
  C   C1779     1.0  0.76021  0.94635  0.28175  1.0000
  H   H2821     1.0  0.79962  0.92453  0.27802  1.0000
  H   H2822     1.0  0.79976  0.91638  0.30529  1.0000
  H   H2823     1.0  0.79641  0.94363  0.29419  1.0000
  H   H2824     1.0  0.56647  0.82606  0.23109  1.0000
  H   H2825     1.0  0.76607  0.92077  0.33019  1.0000
  H   H2826     1.0  0.76427  0.94838  0.32067  1.0000
  H   H2827     1.0  0.74785  0.90938  0.29789  1.0000
  H   H2828     1.0  0.77197  0.89627  0.30590  1.0000
  H   H2829     1.0  0.77112  0.90596  0.27888  1.0000
  H   H2830     1.0  0.74291  0.94777  0.28422  1.0000
  H   H2831     1.0  0.76649  0.94359  0.26560  1.0000
  H   H2832     1.0  0.76357  0.96170  0.28285  1.0000
  H   H2833     1.0  0.58451  0.83606  0.36248  1.0000
  H   H2834     1.0  0.76600  0.91015  0.39395  1.0000
  N   N176      1.0  0.79496  0.91758  0.37577  1.0000
  C   C1780     1.0  0.94300  0.89566  0.16940  1.0000
  C   C1781     1.0  0.64353  0.87683  0.44834  1.0000
  H   H2835     1.0  0.76451  0.87421  0.47658  1.0000
  H   H2836     1.0  0.55980  0.85001  0.37333  1.0000
  H   H2837     1.0  0.89235  0.91519  0.09117  1.0000
  H   H2838     1.0  0.60686  0.87325  0.34993  1.0000
  H   H2839     1.0  0.88497  0.84686  0.26722  1.0000
  H   H2840     1.0  0.86997  0.84772  0.29282  1.0000
  H   H2841     1.0  0.83268  0.75502  0.00165  1.0000
  H   H2842     1.0  0.58760  0.76734  0.47735  1.0000
  S   S723      1.0  0.85465  0.83856  0.46902  1.0000
  H   H2843     1.0  0.92397  0.86741  0.11603  1.0000
  H   H2844     1.0  0.59071  0.77839  0.26901  1.0000
  C   C1782     1.0  0.86631  0.74759  0.11578  1.0000
  H   H2845     1.0  0.96271  0.96453  0.17380  1.0000
  C   C1783     1.0  0.78200  0.91098  0.39591  1.0000
  H   H2846     1.0  0.51637  0.87581  0.21736  1.0000
  H   H2847     1.0  0.66394  0.89773  0.44925  1.0000
  H   H2848     1.0  0.52238  0.84408  0.20144  1.0000
  C   C1784     1.0  0.73382  0.98193  0.34700  1.0000
  H   H2849     1.0  0.53338  0.87801  0.23397  1.0000
  H   H2850     1.0  0.96083  0.76694  0.99594  1.0000
  S   S724      1.0  0.99046  0.87878  0.09733  1.0000
  H   H2851     1.0  0.90510  0.97854  0.17846  1.0000
  H   H2852     1.0  0.72284  0.97324  0.35763  1.0000
  C   C1785     1.0  0.93236  0.74334  0.99635  1.0000
  C   C1786     1.0  0.83821  0.74172  0.99387  1.0000
  H   H2853     1.0  0.91396  0.95621  0.21037  1.0000
  H   H2854     1.0  0.72430  0.86850  0.46460  1.0000
  H   H2855     1.0  0.96417  0.97618  0.19529  1.0000
  H   H2856     1.0  0.87287  0.77199  0.46778  1.0000
  H   H2857     1.0  0.71112  0.90385  0.47260  1.0000
  H   H2858     1.0  0.86283  0.98233  0.28149  1.0000
  C   C1787     1.0  0.71612  0.97087  0.12809  1.0000
  H   H2859     1.0  0.92934  0.73617  0.13095  1.0000
  H   H2860     1.0  0.91803  0.75503  0.99979  1.0000
  H   H2861     1.0  0.75785  0.96532  0.12190  1.0000
  H   H2862     1.0  0.85657  0.98015  0.14382  1.0000
  H   H2863     1.0  0.74861  0.98439  0.10103  1.0000
  C   C1788     1.0  0.82489  0.73539  0.98335  1.0000
  C   C1789     1.0  0.74970  0.98161  0.11780  1.0000
  C   C1790     1.0  0.54427  0.73735  0.30098  1.0000
  C   C1791     1.0  0.88215  0.73483  0.12569  1.0000
  N   N177      1.0  0.52468  0.73504  0.31572  1.0000
  H   H2864     1.0  0.75492  0.89990  0.48246  1.0000
  Fe  Fe362     1.0  0.57651  0.78404  0.85053  1.0000
  S   S725      1.0  0.58308  0.79021  0.81579  1.0000
  S   S726      1.0  0.54467  0.79555  0.86712  1.0000
  Fe  Fe363     1.0  0.62095  0.76479  0.85444  1.0000
  S   S727      1.0  0.63150  0.77016  0.81985  1.0000
  C   C1792     1.0  0.55660  0.97509  0.61989  1.0000
  Fe  Fe364     1.0  0.61120  0.80157  0.81987  1.0000
  S   S728      1.0  0.61684  0.83150  0.79819  1.0000
  Fe  Fe365     1.0  0.60256  0.75838  0.81883  1.0000
  H   H2865     1.0  0.57213  0.78862  0.74864  1.0000
  S   S729      1.0  0.60328  0.79750  0.85451  1.0000
  H   H2866     1.0  0.59083  0.76624  0.57269  1.0000
  Fe  Fe366     1.0  0.67378  0.97094  0.79701  1.0000
  S   S730      1.0  0.65476  0.95528  0.82551  1.0000
  H   H2867     1.0  0.76267  0.76054  0.54975  1.0000
  Fe  Fe367     1.0  0.65038  0.95742  0.76803  1.0000
  S   S731      1.0  0.62915  0.94187  0.79421  1.0000
  S   S732      1.0  0.64891  0.95759  0.73446  1.0000
  H   H2868     1.0  0.73815  0.88520  0.51784  1.0000
  H   H2869     1.0  0.54727  0.76277  0.84398  1.0000
  Fe  Fe368     1.0  0.65804  0.92895  0.80797  1.0000
  S   S733      1.0  0.66258  0.89497  0.82314  1.0000
  H   H2870     1.0  0.52000  0.75081  0.83142  1.0000
  S   S734      1.0  0.67980  0.94308  0.78079  1.0000
  Fe  Fe369     1.0  0.61401  0.87170  0.69088  1.0000
  S   S735      1.0  0.57966  0.87877  0.70241  1.0000
  S   S736      1.0  0.63714  0.87482  0.71000  1.0000
  Fe  Fe370     1.0  0.60827  0.85726  0.65187  1.0000
  S   S737      1.0  0.57338  0.86299  0.66050  1.0000
  S   S738      1.0  0.62768  0.84834  0.62171  1.0000
  Fe  Fe371     1.0  0.57755  0.89243  0.66917  1.0000
  S   S739      1.0  0.55517  0.92189  0.66118  1.0000
  Fe  Fe372     1.0  0.57849  0.84876  0.69304  1.0000
  S   S740      1.0  0.56090  0.82466  0.71418  1.0000
  S   S741      1.0  0.61208  0.88796  0.65832  1.0000
  S   S742      1.0  0.61332  0.84041  0.68378  1.0000
  Fe  Fe373     1.0  0.61863  0.81179  0.52094  1.0000
  S   S743      1.0  0.64457  0.78420  0.51789  1.0000
  S   S744      1.0  0.59732  0.81573  0.55177  1.0000
  H   H2871     1.0  0.83629  0.78612  0.59891  1.0000
  C   C1793     1.0  0.71411  0.89772  0.48873  1.0000
  H   H2872     1.0  0.69612  0.90121  0.75992  1.0000
  Fe  Fe374     1.0  0.62738  0.96926  0.80932  1.0000
  Fe  Fe375     1.0  0.66275  0.80794  0.49751  1.0000
  C   C1794     1.0  0.96648  0.83866  0.79540  1.0000
  S   S745      1.0  0.60531  0.80762  0.49388  1.0000
  S   S746      1.0  0.63747  0.83561  0.50197  1.0000
  Fe  Fe376     1.0  0.79144  0.84852  0.58357  1.0000
  S   S747      1.0  0.78479  0.88335  0.57561  1.0000
  S   S748      1.0  0.82266  0.83003  0.59047  1.0000
  Fe  Fe377     1.0  0.74887  0.84384  0.57503  1.0000
  S   S749      1.0  0.73947  0.87824  0.56599  1.0000
  S   S750      1.0  0.72390  0.82461  0.57751  1.0000
  Fe  Fe378     1.0  0.77231  0.87744  0.54906  1.0000
  S   S751      1.0  0.77877  0.89400  0.51629  1.0000
  Fe  Fe379     1.0  0.75262  0.88048  0.59349  1.0000
  S   S752      1.0  0.73259  0.89877  0.61741  1.0000
  S   S753      1.0  0.78075  0.84267  0.55573  1.0000
  S   S754      1.0  0.76034  0.84590  0.60378  1.0000
  Fe  Fe380     1.0  0.91111  0.83338  0.64590  1.0000
  S   S755      1.0  0.92788  0.80619  0.66608  1.0000
  S   S756      1.0  0.87664  0.84748  0.65121  1.0000
  Fe  Fe381     1.0  0.94969  0.83725  0.61304  1.0000
  S   S757      1.0  0.96908  0.81005  0.62980  1.0000
  S   S758      1.0  0.95814  0.85735  0.58228  1.0000
  Fe  Fe382     1.0  0.94098  0.79461  0.63593  1.0000
  S   S759      1.0  0.94328  0.76261  0.62832  1.0000
  Fe  Fe383     1.0  0.95467  0.82435  0.65848  1.0000
  S   S760      1.0  0.97926  0.82440  0.67826  1.0000
  S   S761      1.0  0.92311  0.82069  0.61650  1.0000
  S   S762      1.0  0.93654  0.85249  0.64094  1.0000
  C   C1795     1.0  0.49829  0.84715  0.75365  1.0000
  H   H2873     1.0  0.97391  0.87514  0.77167  1.0000
  C   C1796     1.0  0.59249  0.95836  0.62062  1.0000
  H   H2874     1.0  0.79123  0.75843  0.64563  1.0000
  C   C1797     1.0  0.67241  0.86087  0.75951  1.0000
  H   H2875     1.0  0.60955  0.74568  0.56214  1.0000
  H   H2876     1.0  0.69952  0.89295  0.49823  1.0000
  H   H2877     1.0  0.80037  0.78501  0.49683  1.0000
  H   H2878     1.0  0.50035  0.82472  0.82377  1.0000
  H   H2879     1.0  0.63528  0.78402  0.75628  1.0000
  H   H2880     1.0  0.86077  0.75078  0.48290  1.0000
  C   C1798     1.0  0.91991  0.75356  0.62933  1.0000
  C   C1799     1.0  0.90104  0.76211  0.64062  1.0000
  C   C1800     1.0  0.88300  0.75356  0.64244  1.0000
  C   C1801     1.0  0.56576  0.96127  0.70241  1.0000
  H   H2881     1.0  0.86835  0.75906  0.53373  1.0000
  H   H2882     1.0  0.90045  0.77500  0.64836  1.0000
  H   H2883     1.0  0.82427  0.97530  0.83142  1.0000
  C   C1802     1.0  0.72068  0.92397  0.60736  1.0000
  C   C1803     1.0  0.72658  0.93284  0.58667  1.0000
  H   H2884     1.0  0.71723  0.91083  0.49491  1.0000
  H   H2885     1.0  0.73885  0.92434  0.57670  1.0000
  H   H2886     1.0  0.68267  0.96373  0.62233  1.0000
  C   C1804     1.0  0.83697  0.83545  0.60763  1.0000
  C   C1805     1.0  0.85619  0.82261  0.61016  1.0000
  C   C1806     1.0  0.86795  0.82577  0.62402  1.0000
  C   C1807     1.0  0.86104  0.84229  0.63502  1.0000
  C   C1808     1.0  0.84178  0.85521  0.63253  1.0000
  C   C1809     1.0  0.82970  0.85176  0.61893  1.0000
  H   H2887     1.0  0.86196  0.80989  0.60159  1.0000
  H   H2888     1.0  0.88217  0.81509  0.62648  1.0000
  H   H2889     1.0  0.83622  0.86797  0.64108  1.0000
  H   H2890     1.0  0.81486  0.86174  0.61716  1.0000
  C   C1810     1.0  0.80156  0.88057  0.50314  1.0000
  S   S763      1.0  0.59667  0.98063  0.82826  1.0000
  H   H2891     1.0  0.50676  0.86289  0.78908  1.0000
  H   H2892     1.0  0.85876  0.74300  0.52083  1.0000
  C   C1811     1.0  0.89445  0.75369  0.49831  1.0000
  H   H2893     1.0  0.86857  0.75995  0.65158  1.0000
  H   H2894     1.0  0.90016  0.90425  0.56290  1.0000
  H   H2895     1.0  0.60001  0.95663  0.71977  1.0000
  C   C1812     1.0  0.83310  0.85442  0.50356  1.0000
  H   H2896     1.0  0.99116  0.77527  0.57072  1.0000
  C   C1813     1.0  0.70353  0.81511  0.51914  1.0000
  C   C1814     1.0  0.68953  0.81504  0.53787  1.0000
  C   C1815     1.0  0.69590  0.81811  0.55565  1.0000
  C   C1816     1.0  0.71613  0.82175  0.55471  1.0000
  C   C1817     1.0  0.73008  0.82197  0.53594  1.0000
  C   C1818     1.0  0.72388  0.81837  0.51831  1.0000
  H   H2897     1.0  0.67390  0.81227  0.53876  1.0000
  H   H2898     1.0  0.68508  0.81764  0.57018  1.0000
  H   H2899     1.0  0.74586  0.82426  0.53521  1.0000
  H   H2900     1.0  0.73499  0.81783  0.50405  1.0000
  H   H2901     1.0  0.53037  0.80266  0.74167  1.0000
  C   C1819     1.0  0.61866  0.83955  0.60245  1.0000
  C   C1820     1.0  0.59855  0.83503  0.60541  1.0000
  C   C1821     1.0  0.59213  0.82790  0.58970  1.0000
  C   C1822     1.0  0.60573  0.82525  0.57095  1.0000
  C   C1823     1.0  0.62574  0.83000  0.56795  1.0000
  C   C1824     1.0  0.63216  0.83707  0.58363  1.0000
  H   H2902     1.0  0.58811  0.83659  0.61992  1.0000
  H   H2903     1.0  0.57666  0.82417  0.59221  1.0000
  H   H2904     1.0  0.63635  0.82806  0.55359  1.0000
  H   H2905     1.0  0.64776  0.84046  0.58117  1.0000
  C   C1825     1.0  0.56438  0.94210  0.64263  1.0000
  C   C1826     1.0  0.58572  0.94179  0.63534  1.0000
  C   C1827     1.0  0.53659  0.83360  0.72883  1.0000
  H   H2906     1.0  0.98823  0.84820  0.63472  1.0000
  C   C1828     1.0  0.54987  0.95882  0.63495  1.0000
  H   H2907     1.0  0.59705  0.92903  0.64116  1.0000
  H   H2908     1.0  0.53800  0.86616  0.71879  1.0000
  C   C1829     1.0  0.99094  0.76086  0.58257  1.0000
  H   H2909     1.0  0.55993  0.74040  0.54817  1.0000
  C   C1830     1.0  0.50472  0.79592  0.86309  1.0000
  H   H2910     1.0  0.73225  0.77539  0.50639  1.0000
  C   C1831     1.0  0.52915  0.85485  0.72857  1.0000
  H   H2911     1.0  0.61296  0.93914  0.67862  1.0000
  H   H2912     1.0  0.79822  0.75028  0.60982  1.0000
  C   C1832     1.0  0.76166  0.74277  0.51715  1.0000
  H   H2913     1.0  0.84791  0.77717  0.48376  1.0000
  N   N178      1.0  0.74375  0.75257  0.53111  1.0000
  H   H2914     1.0  0.91538  0.87179  0.59807  1.0000
  H   H2915     1.0  0.81758  0.76170  0.59060  1.0000
  C   C1833     1.0  0.64333  0.93548  0.72753  1.0000
  C   C1834     1.0  0.63367  0.92072  0.74226  1.0000
  C   C1835     1.0  0.63023  0.90283  0.73641  1.0000
  C   C1836     1.0  0.63644  0.89953  0.71585  1.0000
  C   C1837     1.0  0.64550  0.91462  0.70098  1.0000
  C   C1838     1.0  0.64877  0.93260  0.70678  1.0000
  H   H2916     1.0  0.62903  0.92296  0.75820  1.0000
  H   H2917     1.0  0.62324  0.89121  0.74793  1.0000
  H   H2918     1.0  0.65082  0.91201  0.68516  1.0000
  H   H2919     1.0  0.65617  0.94400  0.69526  1.0000
  C   C1839     1.0  0.59686  0.93972  0.68763  1.0000
  C   C1840     1.0  0.73528  0.87254  0.51085  1.0000
  C   C1841     1.0  0.51230  0.82319  0.80961  1.0000
  C   C1842     1.0  0.52478  0.81913  0.74147  1.0000
  H   H2920     1.0  0.54596  0.81936  0.82707  1.0000
  C   C1843     1.0  0.97175  0.86109  0.69493  1.0000
  C   C1844     1.0  0.62875  0.84909  0.80619  1.0000
  C   C1845     1.0  0.62755  0.86951  0.79522  1.0000
  C   C1846     1.0  0.63787  0.88365  0.80024  1.0000
  C   C1847     1.0  0.64937  0.87754  0.81646  1.0000
  C   C1848     1.0  0.65038  0.85716  0.82762  1.0000
  C   C1849     1.0  0.64004  0.84298  0.82257  1.0000
  H   H2921     1.0  0.61871  0.87433  0.78266  1.0000
  H   H2922     1.0  0.63705  0.89916  0.79140  1.0000
  H   H2923     1.0  0.65927  0.85225  0.84017  1.0000
  H   H2924     1.0  0.64112  0.82723  0.83111  1.0000
  C   C1850     1.0  0.51572  0.76343  0.84022  1.0000
  H   H2925     1.0  0.57924  0.78032  0.77402  1.0000
  H   H2926     1.0  0.90253  0.75334  0.51143  1.0000
  H   H2927     1.0  0.80490  0.77646  0.65159  1.0000
  C   C1851     1.0  0.83172  0.77982  0.61564  1.0000
  C   C1852     1.0  0.90563  0.88785  0.56047  1.0000
  C   C1853     1.0  0.83558  0.85604  0.48203  1.0000
  H   H2928     1.0  0.54751  0.84641  0.82248  1.0000
  H   H2929     1.0  0.76809  0.75453  0.50437  1.0000
  H   H2930     1.0  0.96627  0.88871  0.70878  1.0000
  H   H2931     1.0  0.92279  0.88419  0.56044  1.0000
  C   C1854     1.0  0.80572  0.76945  0.50440  1.0000
  H   H2932     1.0  0.62534  0.79557  0.72119  1.0000
  N   N179      1.0  0.59939  0.91362  0.85787  1.0000
  C   C1855     1.0  0.60200  0.89639  0.84628  1.0000
  C   C1856     1.0  0.59215  0.90640  0.88012  1.0000
  C   C1857     1.0  0.58393  0.93120  0.84976  1.0000
  C   C1858     1.0  0.61960  0.92054  0.85525  1.0000
  H   H2933     1.0  0.61413  0.88313  0.85147  1.0000
  H   H2934     1.0  0.60698  0.90154  0.82938  1.0000
  H   H2935     1.0  0.58724  0.89033  0.84827  1.0000
  H   H2936     1.0  0.57688  0.90113  0.88270  1.0000
  H   H2937     1.0  0.60350  0.89309  0.88662  1.0000
  H   H2938     1.0  0.59019  0.91904  0.88929  1.0000
  H   H2939     1.0  0.56846  0.92664  0.85136  1.0000
  H   H2940     1.0  0.58907  0.93714  0.83302  1.0000
  H   H2941     1.0  0.58169  0.94460  0.85802  1.0000
  H   H2942     1.0  0.61821  0.93395  0.86324  1.0000
  H   H2943     1.0  0.62566  0.92560  0.83862  1.0000
  H   H2944     1.0  0.63172  0.90778  0.86131  1.0000
  N   N180      1.0  0.81153  0.77259  0.61967  1.0000
  H   H2945     1.0  0.52510  0.83700  0.83884  1.0000
  H   H2946     1.0  0.92489  0.73671  0.69807  1.0000
  C   C1859     1.0  0.97958  0.84812  0.56430  1.0000
  H   H2947     1.0  0.57892  0.79080  0.53210  1.0000
  N   N181      1.0  0.89464  0.87340  0.57677  1.0000
  H   H2948     1.0  0.60387  0.97524  0.66266  1.0000
  C   C1860     1.0  0.89845  0.87526  0.59725  1.0000
  H   H2949     1.0  0.79394  0.80328  0.62182  1.0000
  H   H2950     1.0  0.65706  0.87017  0.75647  1.0000
  H   H2951     1.0  0.53335  0.95914  0.64052  1.0000
  H   H2952     1.0  0.60887  0.77221  0.54951  1.0000
  H   H2953     1.0  0.84452  0.76704  0.62002  1.0000
  H   H2954     1.0  0.61365  0.81880  0.74719  1.0000
  S   S764      1.0  0.64503  0.74908  0.87477  1.0000
  C   C1861     1.0  0.50563  0.82587  0.75377  1.0000
  H   H2955     1.0  0.77957  0.78540  0.61660  1.0000
  H   H2956     1.0  0.59887  0.79721  0.71818  1.0000
  H   H2957     1.0  0.88369  0.78972  0.51311  1.0000
  C   C1862     1.0  0.98512  0.84237  0.69180  1.0000
  C   C1863     1.0  0.70100  0.96417  0.59174  1.0000
  H   H2958     1.0  0.96178  0.76709  0.55819  1.0000
  H   H2959     1.0  0.58781  0.76351  0.75519  1.0000
  C   C1864     1.0  0.87584  0.78873  0.50028  1.0000
  H   H2960     1.0  0.50045  0.80844  0.87200  1.0000
  C   C1865     1.0  0.86087  0.75925  0.52025  1.0000
  H   H2961     1.0  0.75683  0.78015  0.52789  1.0000
  H   H2962     1.0  0.67560  0.84759  0.75097  1.0000
  C   C1866     1.0  0.59965  0.81124  0.75296  1.0000
  H   H2963     1.0  0.55842  0.77741  0.53146  1.0000
  H   H2964     1.0  0.59774  0.92843  0.70237  1.0000
  H   H2965     1.0  0.52095  0.80689  0.81166  1.0000
  C   C1867     1.0  0.56997  0.77848  0.54091  1.0000
  C   C1868     1.0  0.81061  0.97898  0.82326  1.0000
  H   H2966     1.0  0.60896  0.95812  0.61497  1.0000
  H   H2967     1.0  0.89222  0.89115  0.60090  1.0000
  N   N182      1.0  0.58753  0.96098  0.69158  1.0000
  H   H2968     1.0  0.98041  0.87337  0.79696  1.0000
  H   H2969     1.0  0.50379  0.82545  0.79642  1.0000
  H   H2970     1.0  0.50453  0.87806  0.74080  1.0000
  Fe  Fe384     1.0  0.63266  0.78195  0.48915  1.0000
  H   H2971     1.0  0.91962  0.84737  0.57335  1.0000
  H   H2972     1.0  0.97125  0.87336  0.53994  1.0000
  H   H2973     1.0  0.98121  0.76526  0.59721  1.0000
  H   H2974     1.0  0.67601  0.89238  0.72700  1.0000
  C   C1869     1.0  0.81597  0.86656  0.51414  1.0000
  H   H2975     1.0  0.74046  0.84989  0.48049  1.0000
  H   H2976     1.0  0.67064  0.85437  0.77640  1.0000
  H   H2977     1.0  0.71312  0.77063  0.52920  1.0000
  H   H2978     1.0  0.89457  0.84052  0.58504  1.0000
  H   H2979     1.0  0.69368  0.86932  0.72123  1.0000
  H   H2980     1.0  0.69665  0.97667  0.83898  1.0000
  H   H2981     1.0  0.90311  0.88691  0.54478  1.0000
  H   H2982     1.0  0.89087  0.86421  0.60984  1.0000
  C   C1870     1.0  0.98236  0.85951  0.54417  1.0000
  C   C1871     1.0  0.81319  0.75605  0.60752  1.0000
  H   H2983     1.0  0.90000  0.84989  0.55768  1.0000
  H   H2984     1.0  0.72177  0.95993  0.56302  1.0000
  H   H2985     1.0  0.81854  0.75114  0.64710  1.0000
  H   H2986     1.0  0.66884  0.90104  0.76219  1.0000
  C   C1872     1.0  0.69482  0.95514  0.61234  1.0000
  H   H2987     1.0  0.70022  0.92836  0.63623  1.0000
  H   H2988     1.0  0.50147  0.86224  0.81650  1.0000
  H   H2989     1.0  0.86035  0.79920  0.50201  1.0000
  C   C1873     1.0  0.98528  0.86717  0.78215  1.0000
  H   H2990     1.0  0.70833  0.85396  0.77406  1.0000
  H   H2991     1.0  0.72205  0.86968  0.75263  1.0000
  H   H2992     1.0  0.53267  0.74037  0.79423  1.0000
  C   C1874     1.0  0.52560  0.78640  0.85880  1.0000
  C   C1875     1.0  0.53115  0.77022  0.84727  1.0000
  N   N183      1.0  0.52640  0.83844  0.80615  1.0000
  C   C1876     1.0  0.70480  0.93515  0.62019  1.0000
  C   C1877     1.0  0.71690  0.95299  0.57895  1.0000
  C   C1878     1.0  0.96172  0.75337  0.57089  1.0000
  S   S765      1.0  0.59332  0.75096  0.85332  1.0000
  S   S766      1.0  0.69653  0.81005  0.49681  1.0000
  C   C1879     1.0  0.49490  0.77325  0.84418  1.0000
  H   H2993     1.0  0.83105  0.79229  0.62462  1.0000
  C   C1880     1.0  0.88354  0.73686  0.63244  1.0000
  H   H2994     1.0  0.60645  0.73681  0.52857  1.0000
  H   H2995     1.0  0.70344  0.89126  0.72494  1.0000
  H   H2996     1.0  0.96719  0.82151  0.79815  1.0000
  H   H2997     1.0  0.71343  0.84726  0.74859  1.0000
  H   H2998     1.0  0.88504  0.79534  0.48538  1.0000
  H   H2999     1.0  0.84390  0.84323  0.51214  1.0000
  H   H3000     1.0  0.89322  0.73726  0.49839  1.0000
  H   H3001     1.0  0.72159  0.86635  0.52083  1.0000
  H   H3002     1.0  0.52425  0.87167  0.80102  1.0000
  H   H3003     1.0  0.98241  0.84415  0.75470  1.0000
  H   H3004     1.0  0.72255  0.74332  0.55883  1.0000
  C   C1881     1.0  0.72714  0.86317  0.48083  1.0000
  H   H3005     1.0  0.72154  0.75193  0.51205  1.0000
  C   C1882     1.0  0.59974  0.96730  0.70461  1.0000
  C   C1883     1.0  0.54240  0.83549  0.78755  1.0000
  H   H3006     1.0  0.61623  0.96729  0.69680  1.0000
  C   C1884     1.0  0.90256  0.85184  0.57303  1.0000
  N   N184      1.0  0.58396  0.75834  0.54550  1.0000
  N   N185      1.0  0.57003  0.90072  0.59890  1.0000
  C   C1885     1.0  0.55480  0.88750  0.61072  1.0000
  C   C1886     1.0  0.55947  0.92268  0.59549  1.0000
  C   C1887     1.0  0.57896  0.89397  0.57872  1.0000
  C   C1888     1.0  0.58694  0.89867  0.61082  1.0000
  H   H3007     1.0  0.56225  0.87083  0.61365  1.0000
  C   C1889     1.0  0.59895  0.76063  0.55804  1.0000
  H   H3008     1.0  0.54787  0.89215  0.62612  1.0000
  H   H3009     1.0  0.57064  0.93330  0.58747  1.0000
  H   H3010     1.0  0.54705  0.92499  0.58595  1.0000
  H   H3011     1.0  0.55194  0.92791  0.61046  1.0000
  H   H3012     1.0  0.59047  0.90368  0.56940  1.0000
  H   H3013     1.0  0.56664  0.89509  0.56934  1.0000
  H   H3014     1.0  0.58719  0.87748  0.58081  1.0000
  H   H3015     1.0  0.59546  0.88239  0.61335  1.0000
  H   H3016     1.0  0.58066  0.90306  0.62634  1.0000
  H   H3017     1.0  0.59849  0.90883  0.60272  1.0000
  N   N186      1.0  0.68907  0.87361  0.75299  1.0000
  C   C1890     1.0  0.69069  0.88197  0.73056  1.0000
  C   C1891     1.0  0.68407  0.89105  0.76469  1.0000
  C   C1892     1.0  0.70912  0.86055  0.75723  1.0000
  H   H3018     1.0  0.68309  0.88534  0.78168  1.0000
  N   N187      1.0  0.98700  0.84433  0.78559  1.0000
  H   H3019     1.0  0.79857  0.79646  0.59657  1.0000
  H   H3020     1.0  0.81384  0.86495  0.53082  1.0000
  H   H3021     1.0  0.50161  0.74270  0.77520  1.0000
  H   H3022     1.0  0.58748  0.93408  0.67870  1.0000
  C   C1893     1.0  0.81451  0.75372  0.49263  1.0000
  C   C1894     1.0  0.53668  0.83527  0.82440  1.0000
  H   H3023     1.0  0.95726  0.86516  0.68890  1.0000
  H   H3024     1.0  0.60492  0.76351  0.51658  1.0000
  C   C1895     1.0  0.57145  0.74247  0.55719  1.0000
  H   H3025     1.0  0.59478  0.81239  0.76969  1.0000
  C   C1896     1.0  0.86338  0.76670  0.48299  1.0000
  H   H3026     1.0  0.56128  0.78410  0.55538  1.0000
  N   N188      1.0  0.68346  0.86880  0.61479  1.0000
  C   C1897     1.0  0.66763  0.86632  0.63376  1.0000
  C   C1898     1.0  0.67771  0.86052  0.59829  1.0000
  C   C1899     1.0  0.70395  0.85723  0.61934  1.0000
  C   C1900     1.0  0.68459  0.89111  0.60779  1.0000
  H   H3027     1.0  0.65210  0.87528  0.63093  1.0000
  H   H3028     1.0  0.67178  0.87191  0.64668  1.0000
  H   H3029     1.0  0.66585  0.84973  0.63912  1.0000
  H   H3030     1.0  0.66222  0.86873  0.59453  1.0000
  H   H3031     1.0  0.68943  0.86208  0.58378  1.0000
  H   H3032     1.0  0.67679  0.84367  0.60306  1.0000
  H   H3033     1.0  0.71610  0.85868  0.60527  1.0000
  H   H3034     1.0  0.70368  0.84033  0.62466  1.0000
  H   H3035     1.0  0.70908  0.86328  0.63143  1.0000
  H   H3036     1.0  0.66962  0.90025  0.60348  1.0000
  H   H3037     1.0  0.69711  0.89356  0.59410  1.0000
  H   H3038     1.0  0.68818  0.89795  0.62019  1.0000
  N   N189      1.0  0.60407  0.78935  0.74976  1.0000
  H   H3039     1.0  0.73710  0.77612  0.55037  1.0000
  C   C1901     1.0  0.61108  0.78854  0.72744  1.0000
  H   H3040     1.0  0.74920  0.85995  0.51166  1.0000
  C   C1902     1.0  0.58495  0.78010  0.75722  1.0000
  C   C1903     1.0  0.80477  0.88301  0.48151  1.0000
  H   H3041     1.0  0.59330  0.98334  0.70777  1.0000
  C   C1904     1.0  0.58777  0.97564  0.67167  1.0000
  H   H3042     1.0  0.61459  0.77224  0.72452  1.0000
  C   C1905     1.0  0.51013  0.86158  0.74101  1.0000
  H   H3043     1.0  0.86335  0.86790  0.58860  1.0000
  H   H3044     1.0  0.54174  0.88867  0.60225  1.0000
  H   H3045     1.0  0.79623  0.77707  0.53516  1.0000
  H   H3046     1.0  0.62432  0.76082  0.75945  1.0000
  C   C1906     1.0  0.80321  0.76487  0.52613  1.0000
  H   H3047     1.0  0.86844  0.87718  0.56123  1.0000
  C   C1907     1.0  0.80625  0.76430  0.64201  1.0000
  H   H3048     1.0  0.93293  0.74542  0.67095  1.0000
  C   C1908     1.0  0.87198  0.87856  0.57639  1.0000
  H   H3049     1.0  0.86539  0.89469  0.57921  1.0000
  N   N190      1.0  0.87365  0.76710  0.50046  1.0000
  C   C1909     1.0  0.59546  0.75180  0.52585  1.0000
  H   H3050     1.0  0.55362  0.84641  0.78476  1.0000
  C   C1910     1.0  0.51423  0.85976  0.80310  1.0000
  C   C1911     1.0  0.79512  0.79016  0.61346  1.0000
  H   H3051     1.0  0.58699  0.82063  0.74463  1.0000
  H   H3052     1.0  0.90464  0.75912  0.48363  1.0000
  C   C1912     1.0  0.72694  0.76304  0.51919  1.0000
  H   H3053     1.0  0.82530  0.74256  0.61203  1.0000
  H   H3054     1.0  0.95446  0.84587  0.78542  1.0000
  H   H3055     1.0  0.61583  0.77763  0.77831  1.0000
  H   H3056     1.0  0.53518  0.83825  0.77343  1.0000
  C   C1913     1.0  0.75037  0.76801  0.54017  1.0000
  H   H3057     1.0  0.56220  0.75143  0.80396  1.0000
  C   C1914     1.0  0.97693  0.87444  0.70625  1.0000
  H   H3058     1.0  0.56499  0.95043  0.71753  1.0000
  N   N191      1.0  0.73182  0.88014  0.48924  1.0000
  H   H3059     1.0  0.55146  0.81937  0.78913  1.0000
  H   H3060     1.0  0.71309  0.85715  0.49021  1.0000
  N   N192      1.0  0.98291  0.74486  0.57564  1.0000
  H   H3061     1.0  0.95090  0.75849  0.58469  1.0000
  C   C1915     1.0  0.62065  0.77746  0.76140  1.0000
  H   H3062     1.0  0.96093  0.84398  0.81063  1.0000
  H   H3063     1.0  0.84513  0.76906  0.52254  1.0000
  H   H3064     1.0  0.56261  0.74692  0.57214  1.0000
  H   H3065     1.0  0.80033  0.96731  0.83056  1.0000
  H   H3066     1.0  0.58474  0.74981  0.51594  1.0000
  C   C1916     1.0  0.56490  0.73761  0.79706  1.0000
  H   H3067     1.0  0.57797  0.97197  0.66177  1.0000
  H   H3068     1.0  0.81651  0.97678  0.80689  1.0000
  C   C1917     1.0  0.92046  0.73676  0.61948  1.0000
  S   S767      1.0  0.80529  0.73879  0.56336  1.0000
  H   H3069     1.0  0.95504  0.74151  0.56606  1.0000
  C   C1918     1.0  0.73604  0.73642  0.54797  1.0000
  C   C1919     1.0  0.57790  0.97503  0.61292  1.0000
  H   H3070     1.0  0.49668  0.81460  0.76342  1.0000
  C   C1920     1.0  0.80979  0.74463  0.53617  1.0000
  H   H3071     1.0  0.55621  0.95642  0.69297  1.0000
  H   H3072     1.0  0.55820  0.97712  0.70551  1.0000
  S   S768      1.0  0.63197  0.75120  0.47925  1.0000
