data_image0
_chemical_formula_structural       S3CSFeSHFeSFeS2HCHSCHSCHCH2FeHNC3SFeS3CHSCFeHCSH2SFeCHFeC4H3CH3C2HCH2C2HSHC6HCH2NHCH2NHFeHSH3C2HFeCHFeHFeC2HCSFeC2HCH3NSHCH2CH3CH9CHSH5CS2CFeSHCFeNSFeHFeH3S2H4C2HSH2CSHCS2HCHC4HC2H3SC6H4CSH4C6H4CHNH3NCH4SHCH2C2FeH2FeHC2H2C2H2S2H2CHC2HFe2S2FeS2FeSFeS3FeSHNSNSCSCHSH2FeS2HC2SHCHCH3C6H4C6H6SHC6HCH2C2HC6FeH4C3H3FeHCHC2H3CFeHCHSCH5CH9NCH7SH4FeH5CHCSH2SFeH4C2FeHSHSN2HCSCHSFeHFeH4SHC2HC2H2CHCH3SCNHSCH3C3HCFeHSH4CH4FeNSH5FeS4HNHSFeS2FeS2FeSFeS3HS2CH4C2FeS2H2C6H4C6H4CH3C2HCH3C7HSC7H4NC3H2C5H2SNHCS2FeC2H4SH3C2HS2CH3CSFeH2SH2CHC2H3C2H2NCHFeHSH2CFeHFeNC4H12CHNSHCH2FeHC2HFeHNH9FeCHCSH2SH2SHCH3FeCFeH5CHCHFeH3CH2CNCH3CHSH2C2H2NHS2H3CH2SC3FeCH3C2HCHCH4CHFeCHCS2H2S2FeS2FeS2FeSFeS3HSH2CH3SH2CHSC7HCH3C2HNCH3C2H2C2HCH2C6HCH2C2HCHSHCH3C6H3NCHC2HCHC2H4FeCH3FeH3FeH6CHCH3CHCHCHCH3CNC2H4CH2CHNC2HCH3CS2NCFeHSH3SHSC2HFeH9CHSHC3SH4FeS2FeS2FeSFeS3FeHSH2NCHS4FeC3H2CH3C6H4C3H2C6H7SCH2C6H4CNSFeCNH2C6H3NC4H3FeH2C2H2SHFeCH4CHCH2Fe3H5CH7NC4H12CHCFeH2CHCSH2CH2S2H4NHCH2C2HFeH2CH4CHSH2NHSH2C3H2C2NC2H3CHCHSNCH2CH2CHCHFeSH3C4H2SHSH4CH3CHCHFeHFeS2FeSFeHS2H3CFeH2CSFeS2FeSFeS2H2SH3SH2NCH3SHC6H5C4FeC6H4C6H2CHNH2S2HNSCHCSH4NHCH3CNC2H3CSH4NC4HC2H2SHCH6SH3C2HCHCH2CSCHCH10FeNH6S2C3HFeH3CHFeSCFeS2FeSFeSHCH3SC2SHSFeS2HFeHSFeCSHFeHS3C2H2C6H4SC2SC4H4C6H4SH4C5H4FeHC2NC4H12NHCHCHSHFeSH2SH4NCHSCH3CH10FeH2CFeHC2H4NHC3NH2C3SCHSC2SC2H2FeHCH4CH2C2FeH8FeSFeS2FeS2FeSFeS3HFe2SHSHSH2CFeSHSHCHCH2C6HCH2C3H2CH2FeHC6H4C4SH3C6H3C6H9NHCH2SH3CHSHNHC3HC3HCH2CHC2FeH2CH2SH2CH2C2H3CSHNCHCNHCH6SH4C2HFeHSH3CH3C3H2CHSHCH2CH2C2SHS3HCNHFeSH7C2HSCH2CH2SCH4CHFeC2HCNCHFeH2NH5NH5SCH5FeCS2H4CHFeHC2SH2FeH2FeS2FeS2FeSFeS3H3SH2FeHS2CHCSHCSHCSH5CSHC6H4C6H4CHC2H3FeHNC3H3C6H4NC5H3CH5CH4CSCHCHC2H2C2NC4H11CHCH3CH5NH2CHCNSCH3C2H2CH2C2H2SH5CHFeSCH4NH3CHCH6CH2CH2SHCHCHSHNH2SH3FeH2CFeNCHFeCH3CHC2SHSHSHCSHFeSFeSCHCHFeSH4SFeSCFeS2FeSFeCFeS3CHC2H2SHCHC7H4C6H4C6H4C6H9SCN2HS2H6CHCH4FeHCH4CHC3FeCN2HCSH3CH3SH2CH2C2HC3H9CH2SHCH2CH2FeH6CH3CSC3H4CHCFeS2FeHFeHFeS3FeHSFeHSNFeS3H3S2FeH2SHSHCHSCFeC6H6NH2C6H4NC4SH3C2HCNCHCH6C3HCH13CHFeC2H2CHCH2SCH3CSCH2NCHCHCH3CH3C2NC2HCFe2HSCS2H2SHCSCFeSFeHCSCSHSCHCSNSHC6H5CNCHNHC6H7C3HSC3H3C6HCFeHCH6CH2SCSH4CH7FeH2SHCHSH2CFeH4CSHSH3CSCH2CHCSHFeS2FeH2CSFeHCFe2SFeCSCFeH2SH2SNHFeCSCHSH3CFeC6H4CHC2H4S3CHC5H3SHC5H5CFeSHCH4CSHS2H2N2FeHCHSC2H2FeH3CHSCH2SH3C2H2SH3CHFeS2FeS2FeSFeS3FeHSCH2FeS2Fe2SHNCSCH2C2HNH8C3H3CH3C6H4C6H6C6H3CH2SHNHC6H3FeH4SCSCH3CSH2C2NH4CH2CH2C3HSH5S2CH2C2FeHCHCH3SC2HCH3NC4H3CH3CSH3CH2CNCH5CHCHSCFeH3FeSC2H3CH2NHSH6CSHNCHCHCHC3SCHNH6FeS2FeS2FeSFeS3CHSH2SC2HS2HCH2C5H4CH2CH2C6H6CNC6H7C2NFeH2C7H5CNH5SH3SCH5C2FeH2NCHCHCH6SH3CHCHSH4CHSH2FeCHCHSCH5CHNCHCSHCHCHCFeH2CH2SH2C2H2FeH2NCSHCH
_chemical_formula_sum              "S384 C960 Fe192 H1536 N96"
_cell_length_a       54.9621
_cell_length_b       55.0006
_cell_length_c       54.5075
_cell_angle_alpha    84.7209
_cell_angle_beta     85.0938
_cell_angle_gamma    84.7523

_space_group_name_H-M_alt    "P 1"
_space_group_IT_number       1

loop_
  _space_group_symop_operation_xyz
  'x, y, z'

loop_
  _atom_site_type_symbol
  _atom_site_label
  _atom_site_symmetry_multiplicity
  _atom_site_fract_x
  _atom_site_fract_y
  _atom_site_fract_z
  _atom_site_occupancy
  S   S1        1.0  0.44409  0.17992  0.43723  1.0000
  S   S2        1.0  0.99100  0.19914  0.44461  1.0000
  S   S3        1.0  0.45178  0.01642  0.13340  1.0000
  C   C1        1.0  0.46179  0.07600  0.42078  1.0000
  S   S4        1.0  0.05895  0.10549  0.45398  1.0000
  Fe  Fe1       1.0  0.01728  0.16539  0.44823  1.0000
  S   S5        1.0  0.03510  0.14772  0.41487  1.0000
  H   H1        1.0  0.38441  0.21561  0.12160  1.0000
  Fe  Fe2       1.0  0.02360  0.11284  0.43585  1.0000
  S   S6        1.0  0.00758  0.08074  0.42210  1.0000
  Fe  Fe3       1.0  0.06862  0.14250  0.43665  1.0000
  S   S7        1.0  0.10887  0.14529  0.42376  1.0000
  S   S8        1.0  0.38600  0.20921  0.31764  1.0000
  H   H2        1.0  0.43368  0.20502  0.38247  1.0000
  C   C2        1.0  0.00506  0.22624  0.44665  1.0000
  H   H3        1.0  0.48261  0.10446  0.15663  1.0000
  S   S9        1.0  0.46558  0.99499  0.06370  1.0000
  C   C3        1.0  0.38027  0.20994  0.14154  1.0000
  H   H4        1.0  0.43199  0.17331  0.32554  1.0000
  S   S10       1.0  0.26963  0.21840  0.32666  1.0000
  C   C4        1.0  0.48445  0.06763  0.20896  1.0000
  H   H5        1.0  0.34524  0.16572  0.42500  1.0000
  C   C5        1.0  0.47138  0.03898  0.39899  1.0000
  H   H6        1.0  0.41411  0.19488  0.36131  1.0000
  H   H7        1.0  0.38511  0.17974  0.18286  1.0000
  Fe  Fe4       1.0  0.45543  0.14003  0.43307  1.0000
  H   H8        1.0  0.47438  0.22428  0.48414  1.0000
  N   N1        1.0  0.40294  0.20290  0.15416  1.0000
  C   C6        1.0  0.41808  0.22397  0.15212  1.0000
  C   C7        1.0  0.41694  0.18203  0.14267  1.0000
  C   C8        1.0  0.46109  0.09040  0.39826  1.0000
  S   S11       1.0  0.43811  0.08409  0.14505  1.0000
  Fe  Fe5       1.0  0.43204  0.19631  0.23287  1.0000
  S   S12       1.0  0.44324  0.20837  0.26846  1.0000
  S   S13       1.0  0.45648  0.16547  0.21577  1.0000
  S   S14       1.0  0.00350  0.13093  0.46760  1.0000
  C   C9        1.0  0.12051  0.16436  0.48363  1.0000
  H   H9        1.0  0.44531  0.04308  0.22472  1.0000
  S   S15       1.0  0.39167  0.20037  0.24474  1.0000
  C   C10       1.0  0.47059  0.13175  0.18227  1.0000
  Fe  Fe6       1.0  0.46625  0.05365  0.13233  1.0000
  H   H10       1.0  0.43064  0.17284  0.38151  1.0000
  C   C11       1.0  0.39641  0.19570  0.18050  1.0000
  S   S16       1.0  0.05132  0.16252  0.46861  1.0000
  H   H11       1.0  0.43992  0.08866  0.22163  1.0000
  H   H12       1.0  0.47215  0.02745  0.23706  1.0000
  S   S17       1.0  0.23568  0.22391  0.39561  1.0000
  Fe  Fe7       1.0  0.48595  0.00272  0.15176  1.0000
  C   C12       1.0  0.44346  0.10707  0.16418  1.0000
  H   H13       1.0  0.36933  0.22559  0.15001  1.0000
  Fe  Fe8       1.0  0.40283  0.21575  0.27851  1.0000
  C   C13       1.0  0.45061  0.14378  0.19540  1.0000
  C   C14       1.0  0.42697  0.13731  0.19293  1.0000
  C   C15       1.0  0.42342  0.11923  0.17715  1.0000
  C   C16       1.0  0.34188  0.17879  0.43958  1.0000
  H   H14       1.0  0.37840  0.20727  0.42515  1.0000
  H   H15       1.0  0.41152  0.14571  0.20363  1.0000
  H   H16       1.0  0.40510  0.11421  0.17539  1.0000
  C   C17       1.0  0.30194  0.21616  0.32456  1.0000
  H   H17       1.0  0.45803  0.08453  0.43796  1.0000
  H   H18       1.0  0.44869  0.15136  0.34574  1.0000
  H   H19       1.0  0.46645  0.03941  0.43863  1.0000
  C   C18       1.0  0.34061  0.20701  0.30047  1.0000
  C   C19       1.0  0.31487  0.20868  0.30286  1.0000
  H   H20       1.0  0.43628  0.21777  0.32654  1.0000
  C   C20       1.0  0.11117  0.12212  0.48678  1.0000
  H   H21       1.0  0.35033  0.20110  0.28370  1.0000
  H   H22       1.0  0.30492  0.20414  0.28783  1.0000
  C   C21       1.0  0.35365  0.21224  0.32001  1.0000
  C   C22       1.0  0.45351  0.08814  0.23574  1.0000
  H   H23       1.0  0.31823  0.21716  0.46071  1.0000
  S   S18       1.0  0.45343  0.12249  0.39733  1.0000
  H   H24       1.0  0.46555  0.08998  0.35862  1.0000
  C   C23       1.0  0.12305  0.17316  0.41765  1.0000
  C   C24       1.0  0.11006  0.19588  0.42076  1.0000
  C   C25       1.0  0.12213  0.21757  0.41619  1.0000
  C   C26       1.0  0.14730  0.21681  0.40852  1.0000
  C   C27       1.0  0.16031  0.19407  0.40559  1.0000
  C   C28       1.0  0.14823  0.17237  0.41016  1.0000
  H   H25       1.0  0.09068  0.19678  0.42650  1.0000
  C   C29       1.0  0.45354  0.21277  0.33584  1.0000
  H   H26       1.0  0.17965  0.19320  0.39968  1.0000
  H   H27       1.0  0.15843  0.15488  0.40770  1.0000
  N   N2        1.0  0.33950  0.20446  0.42873  1.0000
  H   H28       1.0  0.35075  0.21920  0.46080  1.0000
  C   C30       1.0  0.43184  0.19056  0.36993  1.0000
  H   H29       1.0  0.40622  0.16564  0.14421  1.0000
  H   H30       1.0  0.04190  0.20932  0.44247  1.0000
  N   N3        1.0  0.45266  0.18905  0.35093  1.0000
  H   H31       1.0  0.46889  0.21223  0.32111  1.0000
  Fe  Fe9       1.0  0.42987  0.16775  0.47603  1.0000
  H   H32       1.0  0.31611  0.22736  0.40479  1.0000
  S   S19       1.0  0.48604  0.05014  0.09455  1.0000
  H   H33       1.0  0.44326  0.08788  0.25425  1.0000
  H   H34       1.0  0.42297  0.23029  0.13249  1.0000
  H   H35       1.0  0.47141  0.06707  0.19450  1.0000
  C   C31       1.0  0.46706  0.11351  0.16672  1.0000
  C   C32       1.0  0.45899  0.04395  0.23849  1.0000
  H   H36       1.0  0.36609  0.19785  0.39828  1.0000
  Fe  Fe10      1.0  0.47993  0.18076  0.45379  1.0000
  C   C33       1.0  0.46600  0.07900  0.37611  1.0000
  H   H37       1.0  0.00540  0.05499  0.47487  1.0000
  Fe  Fe11      1.0  0.03956  0.12594  0.48442  1.0000
  H   H38       1.0  0.48100  0.06514  0.27169  1.0000
  Fe  Fe12      1.0  0.47472  0.01157  0.09784  1.0000
  C   C34       1.0  0.03059  0.22601  0.44557  1.0000
  C   C35       1.0  0.31866  0.20804  0.41294  1.0000
  H   H39       1.0  0.46250  0.10564  0.23267  1.0000
  C   C36       1.0  0.31494  0.22184  0.34397  1.0000
  S   S20       1.0  0.47628  0.00661  0.40035  1.0000
  Fe  Fe13      1.0  0.47554  0.13190  0.48351  1.0000
  C   C37       1.0  0.34075  0.21960  0.34181  1.0000
  C   C38       1.0  0.36233  0.20995  0.41370  1.0000
  H   H40       1.0  0.45609  0.22792  0.34734  1.0000
  C   C39       1.0  0.33515  0.22106  0.44879  1.0000
  H   H41       1.0  0.38565  0.21095  0.18968  1.0000
  H   H42       1.0  0.44933  0.04238  0.25728  1.0000
  H   H43       1.0  0.36837  0.19447  0.14283  1.0000
  N   N4        1.0  0.47166  0.06670  0.23395  1.0000
  S   S21       1.0  0.43849  0.12750  0.47046  1.0000
  H   H44       1.0  0.43421  0.17639  0.15180  1.0000
  C   C40       1.0  0.44939  0.16953  0.33487  1.0000
  H   H45       1.0  0.32497  0.17409  0.45111  1.0000
  H   H46       1.0  0.47580  0.16537  0.37449  1.0000
  C   C41       1.0  0.46659  0.05039  0.42112  1.0000
  H   H47       1.0  0.46468  0.16788  0.32019  1.0000
  H   H48       1.0  0.32129  0.19598  0.39744  1.0000
  H   H49       1.0  0.09418  0.12740  0.47732  1.0000
  C   C42       1.0  0.47141  0.05341  0.37646  1.0000
  H   H50       1.0  0.41309  0.19058  0.19068  1.0000
  H   H51       1.0  0.42208  0.18669  0.12272  1.0000
  H   H52       1.0  0.35740  0.17551  0.45170  1.0000
  H   H53       1.0  0.30110  0.20410  0.42373  1.0000
  H   H54       1.0  0.36117  0.22926  0.40541  1.0000
  H   H55       1.0  0.30507  0.22765  0.36070  1.0000
  H   H56       1.0  0.43553  0.21912  0.16114  1.0000
  H   H57       1.0  0.35072  0.22385  0.35690  1.0000
  H   H58       1.0  0.47507  0.04482  0.35930  1.0000
  C   C43       1.0  0.47578  0.18327  0.36311  1.0000
  H   H59       1.0  0.47868  0.19745  0.37567  1.0000
  S   S22       1.0  0.43215  0.23406  0.21307  1.0000
  H   H60       1.0  0.13538  0.16093  0.46881  1.0000
  H   H61       1.0  0.12581  0.11758  0.47208  1.0000
  H   H62       1.0  0.10357  0.17032  0.47410  1.0000
  H   H63       1.0  0.11178  0.23499  0.41843  1.0000
  H   H64       1.0  0.34466  0.17238  0.63981  1.0000
  C   C44       1.0  0.14035  0.13478  0.51261  1.0000
  S   S23       1.0  0.39115  0.18334  0.48843  1.0000
  S   S24       1.0  0.15957  0.21994  0.75249  1.0000
  C   C45       1.0  0.34117  0.21549  0.61259  1.0000
  Fe  Fe14      1.0  0.12220  0.21015  0.76932  1.0000
  S   S25       1.0  0.11591  0.17454  0.79328  1.0000
  H   H65       1.0  0.98944  0.18445  0.77802  1.0000
  C   C46       1.0  0.99353  0.01706  0.50709  1.0000
  Fe  Fe15      1.0  0.02154  0.06726  0.81539  1.0000
  N   N5        1.0  0.00429  0.18143  0.81357  1.0000
  S   S26       1.0  0.02942  0.10421  0.79448  1.0000
  Fe  Fe16      1.0  0.02693  0.02188  0.85268  1.0000
  H   H66       1.0  0.12509  0.18002  0.49341  1.0000
  Fe  Fe17      1.0  0.00849  0.01711  0.80265  1.0000
  H   H67       1.0  0.01658  0.21535  0.75239  1.0000
  H   H68       1.0  0.32234  0.20627  0.57073  1.0000
  H   H69       1.0  0.05749  0.07117  0.49674  1.0000
  S   S27       1.0  0.04318  0.03035  0.81368  1.0000
  S   S28       1.0  0.00841  0.06006  0.85558  1.0000
  H   H70       1.0  0.23905  0.21857  0.69103  1.0000
  H   H71       1.0  0.99261  0.21912  0.80336  1.0000
  H   H72       1.0  0.02207  0.17816  0.77731  1.0000
  H   H73       1.0  0.04264  0.17057  0.81642  1.0000
  C   C47       1.0  0.00199  0.99917  0.74402  1.0000
  C   C48       1.0  0.99307  0.02337  0.73773  1.0000
  H   H74       1.0  0.15578  0.13064  0.49859  1.0000
  S   S29       1.0  0.46543  0.17087  0.49287  1.0000
  H   H75       1.0  0.10127  0.16243  0.53100  1.0000
  H   H76       1.0  0.99806  0.06566  0.50500  1.0000
  C   C49       1.0  0.30534  0.19266  0.61697  1.0000
  S   S30       1.0  0.04575  0.99921  0.55487  1.0000
  H   H77       1.0  0.33866  0.15379  0.61591  1.0000
  C   C50       1.0  0.00753  0.20788  0.81284  1.0000
  S   S31       1.0  0.00956  0.98927  0.77433  1.0000
  S   S32       1.0  0.04274  0.11343  0.52461  1.0000
  H   H78       1.0  0.00268  0.15427  0.78786  1.0000
  C   C51       1.0  0.20077  0.22895  0.68650  1.0000
  H   H79       1.0  0.29723  0.17562  0.61349  1.0000
  C   C52       1.0  0.33321  0.19072  0.58033  1.0000
  C   C53       1.0  0.38392  0.20531  0.51048  1.0000
  C   C54       1.0  0.40194  0.21403  0.52321  1.0000
  C   C55       1.0  0.22594  0.22793  0.67892  1.0000
  H   H80       1.0  0.36081  0.21608  0.60574  1.0000
  C   C56       1.0  0.99876  0.98966  0.70162  1.0000
  C   C57       1.0  0.35930  0.21416  0.51542  1.0000
  H   H81       1.0  0.42093  0.20737  0.51965  1.0000
  H   H82       1.0  0.36532  0.17082  0.61246  1.0000
  H   H83       1.0  0.10803  0.10518  0.49905  1.0000
  S   S33       1.0  0.10356  0.22380  0.73498  1.0000
  C   C58       1.0  0.04435  0.03095  0.54646  1.0000
  C   C59       1.0  0.05226  0.03952  0.52235  1.0000
  C   C60       1.0  0.05120  0.06479  0.51530  1.0000
  C   C61       1.0  0.04280  0.08163  0.53250  1.0000
  C   C62       1.0  0.03497  0.07302  0.55663  1.0000
  C   C63       1.0  0.03541  0.04774  0.56352  1.0000
  H   H84       1.0  0.05919  0.02661  0.50907  1.0000
  H   H85       1.0  0.01289  0.99954  0.93426  1.0000
  H   H86       1.0  0.19462  0.22029  0.70429  1.0000
  H   H87       1.0  0.02942  0.04130  0.58221  1.0000
  C   C64       1.0  0.39534  0.23125  0.54078  1.0000
  S   S34       1.0  0.04486  0.00167  0.88549  1.0000
  H   H88       1.0  0.09404  0.13097  0.53286  1.0000
  H   H89       1.0  0.00132  0.02233  0.52385  1.0000
  H   H90       1.0  0.00742  0.21398  0.83174  1.0000
  H   H91       1.0  0.35254  0.19116  0.57232  1.0000
  C   C65       1.0  0.09284  0.15403  0.79222  1.0000
  C   C66       1.0  0.07666  0.15654  0.77351  1.0000
  C   C67       1.0  0.05826  0.14020  0.77380  1.0000
  C   C68       1.0  0.05550  0.12141  0.79294  1.0000
  C   C69       1.0  0.07192  0.11864  0.81144  1.0000
  C   C70       1.0  0.09050  0.13483  0.81101  1.0000
  H   H92       1.0  0.07839  0.17101  0.75878  1.0000
  H   H93       1.0  0.04590  0.14229  0.75920  1.0000
  H   H94       1.0  0.07002  0.10438  0.82635  1.0000
  H   H95       1.0  0.10299  0.13264  0.82551  1.0000
  C   C71       1.0  0.09729  0.14746  0.51993  1.0000
  H   H96       1.0  0.32629  0.17349  0.57559  1.0000
  N   N6        1.0  0.11733  0.14220  0.50075  1.0000
  H   H97       1.0  0.99105  0.03651  0.75148  1.0000
  H   H98       1.0  0.13855  0.11807  0.52559  1.0000
  H   H99       1.0  0.14558  0.14955  0.52329  1.0000
  N   N7        1.0  0.33133  0.19256  0.60733  1.0000
  C   C72       1.0  0.02446  0.16723  0.82622  1.0000
  H   H100      1.0  0.02852  0.08595  0.57005  1.0000
  H   H101      1.0  0.07963  0.15314  0.51164  1.0000
  H   H102      1.0  0.33950  0.21795  0.63272  1.0000
  H   H103      1.0  0.34516  0.20746  0.50584  1.0000
  S   S35       1.0  0.99403  0.00603  0.84144  1.0000
  H   H104      1.0  0.30312  0.19444  0.63726  1.0000
  C   C73       1.0  0.34563  0.17143  0.61942  1.0000
  H   H105      1.0  0.29399  0.20837  0.60821  1.0000
  H   H106      1.0  0.33113  0.23170  0.60328  1.0000
  C   C74       1.0  0.35276  0.23167  0.53268  1.0000
  C   C75       1.0  0.98971  0.01384  0.69541  1.0000
  Fe  Fe18      1.0  0.01884  0.98854  0.58656  1.0000
  H   H107      1.0  0.00210  0.99939  0.96638  1.0000
  H   H108      1.0  0.00922  0.01238  0.49356  1.0000
  Fe  Fe19      1.0  0.99124  0.99690  0.63623  1.0000
  H   H109      1.0  0.02265  0.14715  0.82701  1.0000
  C   C76       1.0  0.99004  0.05892  0.48905  1.0000
  C   C77       1.0  0.00456  0.17425  0.78808  1.0000
  H   H110      1.0  0.02489  0.17212  0.84551  1.0000
  H   H111      1.0  0.02523  0.21232  0.80264  1.0000
  C   C78       1.0  0.99615  0.00173  0.94723  1.0000
  C   C79       1.0  0.01591  0.23496  0.75286  1.0000
  H   H112      1.0  0.05499  0.23541  0.75137  1.0000
  H   H113      1.0  0.98805  0.02094  0.94389  1.0000
  S   S36       1.0  0.98765  0.05402  0.80202  1.0000
  S   S37       1.0  0.14239  0.41502  0.43092  1.0000
  H   H114      1.0  0.18224  0.40740  0.15983  1.0000
  H   H115      1.0  0.08663  0.48105  0.48130  1.0000
  C   C80       1.0  0.33719  0.47401  0.04072  1.0000
  H   H116      1.0  0.34952  0.47538  0.05560  1.0000
  C   C81       1.0  0.19426  0.36226  0.18028  1.0000
  C   C82       1.0  0.36690  0.42501  0.17139  1.0000
  H   H117      1.0  0.98808  0.40766  0.37539  1.0000
  Fe  Fe20      1.0  0.15587  0.47136  0.03910  1.0000
  Fe  Fe21      1.0  0.26386  0.41465  0.16847  1.0000
  S   S38       1.0  0.29445  0.42953  0.18612  1.0000
  S   S39       1.0  0.25926  0.42366  0.12733  1.0000
  Fe  Fe22      1.0  0.25043  0.38182  0.21523  1.0000
  S   S40       1.0  0.27955  0.39438  0.23605  1.0000
  S   S41       1.0  0.22752  0.35166  0.23199  1.0000
  Fe  Fe23      1.0  0.26742  0.43199  0.21945  1.0000
  S   S42       1.0  0.25987  0.46176  0.24597  1.0000
  Fe  Fe24      1.0  0.30355  0.39048  0.20114  1.0000
  S   S43       1.0  0.34231  0.37292  0.20331  1.0000
  S   S44       1.0  0.23612  0.41960  0.20087  1.0000
  S   S45       1.0  0.27520  0.37543  0.18111  1.0000
  Fe  Fe25      1.0  0.23135  0.29113  0.36547  1.0000
  S   S46       1.0  0.23245  0.33001  0.34800  1.0000
  H   H118      1.0  0.38103  0.40343  0.12937  1.0000
  N   N8        1.0  0.11311  0.30429  0.41894  1.0000
  S   S47       1.0  0.21676  0.28153  0.40466  1.0000
  N   N9        1.0  0.19606  0.37046  0.15363  1.0000
  S   S48       1.0  0.02779  0.41450  0.42217  1.0000
  C   C83       1.0  0.10551  0.29273  0.39770  1.0000
  S   S49       1.0  0.02815  0.36190  0.47471  1.0000
  C   C84       1.0  0.00161  0.26982  0.45230  1.0000
  H   H119      1.0  0.30485  0.44630  0.06718  1.0000
  S   S50       1.0  0.36204  0.25694  0.20552  1.0000
  H   H120      1.0  0.20356  0.41016  0.48381  1.0000
  H   H121      1.0  0.10544  0.30568  0.38078  1.0000
  Fe  Fe26      1.0  0.39282  0.23932  0.22780  1.0000
  S   S51       1.0  0.21380  0.26119  0.35026  1.0000
  S   S52       1.0  0.16074  0.46437  0.46912  1.0000
  H   H122      1.0  0.22966  0.45290  0.35869  1.0000
  C   C85       1.0  0.24672  0.36181  0.48017  1.0000
  C   C86       1.0  0.42551  0.45850  0.02267  1.0000
  S   S53       1.0  0.04130  0.29583  0.45629  1.0000
  H   H123      1.0  0.36172  0.44410  0.16385  1.0000
  C   C87       1.0  0.43038  0.46022  0.07368  1.0000
  H   H124      1.0  0.19225  0.44124  0.30794  1.0000
  C   C88       1.0  0.44653  0.44755  0.03348  1.0000
  H   H125      1.0  0.40825  0.23982  0.16123  1.0000
  H   H126      1.0  0.28122  0.25243  0.28248  1.0000
  H   H127      1.0  0.30897  0.32300  0.26900  1.0000
  C   C89       1.0  0.34700  0.34055  0.20510  1.0000
  C   C90       1.0  0.32897  0.32617  0.19910  1.0000
  C   C91       1.0  0.33373  0.30057  0.19932  1.0000
  C   C92       1.0  0.35634  0.28907  0.20605  1.0000
  C   C93       1.0  0.37413  0.30336  0.21269  1.0000
  C   C94       1.0  0.36956  0.32901  0.21196  1.0000
  H   H128      1.0  0.31156  0.33479  0.19374  1.0000
  H   H129      1.0  0.31988  0.28965  0.19416  1.0000
  H   H130      1.0  0.39166  0.29472  0.21786  1.0000
  H   H131      1.0  0.38360  0.33992  0.21671  1.0000
  C   C95       1.0  0.22858  0.34575  0.26427  1.0000
  C   C96       1.0  0.22310  0.32280  0.27577  1.0000
  C   C97       1.0  0.22453  0.31760  0.30140  1.0000
  C   C98       1.0  0.23099  0.33550  0.31574  1.0000
  C   C99       1.0  0.23624  0.35850  0.30425  1.0000
  C   C100      1.0  0.23511  0.36360  0.27862  1.0000
  H   H132      1.0  0.21788  0.30896  0.26483  1.0000
  H   H133      1.0  0.22026  0.29988  0.31008  1.0000
  H   H134      1.0  0.24123  0.37238  0.31525  1.0000
  H   H135      1.0  0.23884  0.38151  0.27007  1.0000
  H   H136      1.0  0.22338  0.38347  0.12603  1.0000
  H   H137      1.0  0.11782  0.29462  0.45749  1.0000
  S   S54       1.0  0.16157  0.24472  0.40305  1.0000
  H   H138      1.0  0.38861  0.43478  0.12613  1.0000
  C   C101      1.0  0.23161  0.43590  0.11468  1.0000
  C   C102      1.0  0.21075  0.44315  0.12967  1.0000
  C   C103      1.0  0.18885  0.45195  0.11894  1.0000
  C   C104      1.0  0.18762  0.45376  0.09315  1.0000
  C   C105      1.0  0.20856  0.44678  0.07816  1.0000
  C   C106      1.0  0.23042  0.43785  0.08890  1.0000
  H   H139      1.0  0.21154  0.44208  0.14950  1.0000
  C   C107      1.0  0.25291  0.43588  0.31720  1.0000
  H   H140      1.0  0.20788  0.44812  0.05829  1.0000
  H   H141      1.0  0.24646  0.43235  0.07714  1.0000
  C   C108      1.0  0.29575  0.28900  0.30559  1.0000
  C   C109      1.0  0.29475  0.31098  0.26515  1.0000
  H   H142      1.0  0.26001  0.43815  0.29740  1.0000
  C   C110      1.0  0.11045  0.41553  0.42878  1.0000
  C   C111      1.0  0.09900  0.39374  0.43448  1.0000
  C   C112      1.0  0.07369  0.39330  0.43260  1.0000
  C   C113      1.0  0.05963  0.41466  0.42479  1.0000
  C   C114      1.0  0.07108  0.43647  0.41897  1.0000
  C   C115      1.0  0.09639  0.43697  0.42115  1.0000
  Fe  Fe27      1.0  0.25133  0.25680  0.40799  1.0000
  H   H143      1.0  0.06519  0.37631  0.43671  1.0000
  H   H144      1.0  0.06039  0.45304  0.41274  1.0000
  H   H145      1.0  0.10507  0.45383  0.41651  1.0000
  H   H146      1.0  0.35495  0.41557  0.02730  1.0000
  C   C116      1.0  0.11249  0.28650  0.44100  1.0000
  C   C117      1.0  0.07754  0.46507  0.47640  1.0000
  C   C118      1.0  0.28493  0.26477  0.48465  1.0000
  H   H147      1.0  0.32351  0.45615  0.00017  1.0000
  H   H148      1.0  0.26039  0.27918  0.27810  1.0000
  H   H149      1.0  0.27655  0.32047  0.27045  1.0000
  Fe  Fe28      1.0  0.44078  0.24622  0.24925  1.0000
  H   H150      1.0  0.31273  0.42840  0.01538  1.0000
  C   C119      1.0  0.35710  0.43498  0.03024  1.0000
  H   H151      1.0  0.36570  0.44358  0.01266  1.0000
  C   C120      1.0  0.31621  0.44750  0.01823  1.0000
  C   C121      1.0  0.40723  0.47102  0.03731  1.0000
  H   H152      1.0  0.03830  0.44071  0.47039  1.0000
  H   H153      1.0  0.23502  0.36119  0.14933  1.0000
  H   H154      1.0  0.19152  0.35615  0.11908  1.0000
  C   C122      1.0  0.44912  0.44869  0.05878  1.0000
  Fe  Fe29      1.0  0.01459  0.32882  0.46101  1.0000
  H   H155      1.0  0.46072  0.43777  0.02229  1.0000
  C   C123      1.0  0.27916  0.27108  0.27260  1.0000
  H   H156      1.0  0.11817  0.27643  0.39332  1.0000
  S   S55       1.0  0.42232  0.45497  0.99123  1.0000
  C   C124      1.0  0.13828  0.31182  0.41330  1.0000
  H   H157      1.0  0.41744  0.38451  0.16767  1.0000
  H   H158      1.0  0.29783  0.27079  0.31633  1.0000
  H   H159      1.0  0.32489  0.27215  0.25133  1.0000
  H   H160      1.0  0.32606  0.25656  0.28166  1.0000
  H   H161      1.0  0.39681  0.39078  0.19424  1.0000
  C   C125      1.0  0.24714  0.28258  0.46830  1.0000
  H   H162      1.0  0.15931  0.38781  0.15413  1.0000
  H   H163      1.0  0.06136  0.24710  0.44780  1.0000
  H   H164      1.0  0.20325  0.33390  0.14236  1.0000
  H   H165      1.0  0.20735  0.34602  0.18455  1.0000
  H   H166      1.0  0.17279  0.45746  0.13066  1.0000
  H   H167      1.0  0.47820  0.44675  0.47706  1.0000
  H   H168      1.0  0.13954  0.32499  0.39656  1.0000
  H   H169      1.0  0.39120  0.47987  0.02907  1.0000
  H   H170      1.0  0.17142  0.34501  0.14460  1.0000
  N   N10       1.0  0.29810  0.28649  0.27869  1.0000
  C   C126      1.0  0.99057  0.24826  0.44963  1.0000
  H   H171      1.0  0.21227  0.41366  0.31188  1.0000
  H   H172      1.0  0.30194  0.25337  0.48272  1.0000
  H   H173      1.0  0.30986  0.30031  0.31102  1.0000
  H   H174      1.0  0.25471  0.41593  0.32317  1.0000
  H   H175      1.0  0.07003  0.47028  0.45815  1.0000
  H   H176      1.0  0.29597  0.30973  0.24480  1.0000
  H   H177      1.0  0.26516  0.44506  0.32798  1.0000
  S   S56       1.0  0.11812  0.48441  0.02764  1.0000
  H   H178      1.0  0.14454  0.32074  0.42889  1.0000
  H   H179      1.0  0.46521  0.43975  0.06691  1.0000
  H   H180      1.0  0.44271  0.47331  0.46319  1.0000
  H   H181      1.0  0.21801  0.43556  0.28592  1.0000
  Fe  Fe30      1.0  0.00999  0.38253  0.44318  1.0000
  H   H182      1.0  0.22613  0.39205  0.15648  1.0000
  H   H183      1.0  0.31958  0.41718  0.05953  1.0000
  H   H184      1.0  0.09208  0.44982  0.47387  1.0000
  H   H185      1.0  0.34564  0.48317  0.02341  1.0000
  H   H186      1.0  0.07681  0.32125  0.42689  1.0000
  C   C127      1.0  0.02713  0.26936  0.45200  1.0000
  H   H187      1.0  0.28895  0.48095  0.20259  1.0000
  C   C128      1.0  0.22122  0.37701  0.14601  1.0000
  S   S57       1.0  0.16287  0.44546  0.00902  1.0000
  H   H188      1.0  0.22806  0.40576  0.46052  1.0000
  H   H189      1.0  0.35324  0.41310  0.16601  1.0000
  S   S58       1.0  0.27697  0.25195  0.43883  1.0000
  Fe  Fe31      1.0  0.20168  0.24940  0.38984  1.0000
  H   H190      1.0  0.23784  0.48271  0.32255  1.0000
  H   H191      1.0  0.23471  0.28478  0.45380  1.0000
  H   H192      1.0  0.19922  0.45105  0.35039  1.0000
  H   H193      1.0  0.41252  0.41047  0.12769  1.0000
  C   C129      1.0  0.04161  0.24750  0.44834  1.0000
  C   C130      1.0  0.19029  0.35049  0.13928  1.0000
  Fe  Fe32      1.0  0.47013  0.45952  0.11902  1.0000
  H   H194      1.0  0.09379  0.28027  0.44561  1.0000
  S   S59       1.0  0.26733  0.26941  0.37023  1.0000
  H   H195      1.0  0.28021  0.26882  0.25245  1.0000
  S   S60       1.0  0.22945  0.45864  0.48175  1.0000
  N   N11       1.0  0.39210  0.41646  0.16238  1.0000
  N   N12       1.0  0.22722  0.44633  0.32068  1.0000
  H   H196      1.0  0.12532  0.26996  0.43802  1.0000
  C   C131      1.0  0.09613  0.32606  0.42378  1.0000
  S   S61       1.0  0.15948  0.46437  0.08057  1.0000
  C   C132      1.0  0.26899  0.26756  0.46561  1.0000
  H   H197      1.0  0.21939  0.42353  0.35422  1.0000
  S   S62       1.0  0.43207  0.45946  0.10601  1.0000
  Fe  Fe33      1.0  0.15919  0.45093  0.43185  1.0000
  H   H198      1.0  0.23612  0.34989  0.47040  1.0000
  Fe  Fe34      1.0  0.19942  0.47220  0.45661  1.0000
  H   H199      1.0  0.08676  0.28640  0.40161  1.0000
  H   H200      1.0  0.27743  0.29786  0.31167  1.0000
  H   H201      1.0  0.06069  0.42063  0.48590  1.0000
  H   H202      1.0  0.20441  0.38485  0.46502  1.0000
  S   S63       1.0  0.40130  0.25472  0.26229  1.0000
  H   H203      1.0  0.42871  0.42725  0.16266  1.0000
  C   C133      1.0  0.25363  0.47765  0.48096  1.0000
  C   C134      1.0  0.32269  0.27485  0.27144  1.0000
  H   H204      1.0  0.17555  0.35712  0.18687  1.0000
  C   C135      1.0  0.40945  0.47148  0.06284  1.0000
  C   C136      1.0  0.17856  0.39213  0.14896  1.0000
  H   H205      1.0  0.17985  0.39917  0.12908  1.0000
  H   H206      1.0  0.19866  0.37686  0.19168  1.0000
  C   C137      1.0  0.48099  0.46503  0.42935  1.0000
  H   H207      1.0  0.09697  0.34042  0.40802  1.0000
  C   C138      1.0  0.32280  0.43663  0.06118  1.0000
  H   H208      1.0  0.10981  0.37717  0.44039  1.0000
  H   H209      1.0  0.15163  0.29579  0.40974  1.0000
  H   H210      1.0  0.38581  0.37825  0.16861  1.0000
  S   S64       1.0  0.99909  0.34909  0.42743  1.0000
  C   C139      1.0  0.39840  0.39143  0.17367  1.0000
  N   N13       1.0  0.33334  0.44826  0.03759  1.0000
  H   H211      1.0  0.33748  0.28619  0.27528  1.0000
  S   S65       1.0  0.19898  0.45533  0.42076  1.0000
  C   C140      1.0  0.40951  0.43320  0.16919  1.0000
  H   H212      1.0  0.10041  0.33439  0.44057  1.0000
  H   H213      1.0  0.29822  0.45772  0.02296  1.0000
  H   H214      1.0  0.33516  0.43692  0.07628  1.0000
  C   C141      1.0  0.39357  0.41621  0.13520  1.0000
  C   C142      1.0  0.21172  0.43363  0.30597  1.0000
  C   C143      1.0  0.21597  0.39586  0.47476  1.0000
  H   H215      1.0  0.23142  0.47578  0.29225  1.0000
  C   C144      1.0  0.21853  0.44320  0.34713  1.0000
  Fe  Fe35      1.0  0.12700  0.46197  0.99522  1.0000
  H   H216      1.0  0.40552  0.45219  0.16063  1.0000
  S   S66       1.0  0.46747  0.27505  0.24934  1.0000
  H   H217      1.0  0.36485  0.42456  0.19195  1.0000
  H   H218      1.0  0.37045  0.43501  0.04449  1.0000
  H   H219      1.0  0.40880  0.43403  0.18957  1.0000
  H   H220      1.0  0.46944  0.44929  0.43279  1.0000
  C   C145      1.0  0.22577  0.47272  0.31232  1.0000
  H   H221      1.0  0.03047  0.48386  0.48028  1.0000
  H   H222      1.0  0.99036  0.28670  0.45487  1.0000
  H   H223      1.0  0.39499  0.48067  0.07419  1.0000
  H   H224      1.0  0.25995  0.37052  0.46622  1.0000
  Fe  Fe36      1.0  0.24922  0.23870  0.35741  1.0000
  N   N14       1.0  0.48042  0.47881  0.45147  1.0000
  S   S67       1.0  0.47989  0.45016  0.15836  1.0000
  H   H225      1.0  0.33257  0.24059  0.44133  1.0000
  H   H226      1.0  0.20680  0.48148  0.31553  1.0000
  H   H227      1.0  0.47419  0.47696  0.41329  1.0000
  H   H228      1.0  0.31955  0.48491  0.04530  1.0000
  H   H229      1.0  0.28268  0.46267  0.67775  1.0000
  Fe  Fe37      1.0  0.05389  0.44461  0.85282  1.0000
  S   S68       1.0  0.09169  0.43947  0.86669  1.0000
  S   S69       1.0  0.06439  0.28636  0.75004  1.0000
  S   S70       1.0  0.18044  0.27467  0.78251  1.0000
  S   S71       1.0  0.13279  0.27379  0.73437  1.0000
  H   H230      1.0  0.05839  0.43146  0.95333  1.0000
  N   N15       1.0  0.08022  0.28526  0.67118  1.0000
  H   H231      1.0  0.10725  0.30409  0.64759  1.0000
  S   S72       1.0  0.40214  0.43957  0.52182  1.0000
  Fe  Fe38      1.0  0.25406  0.43994  0.75749  1.0000
  S   S73       1.0  0.28815  0.42225  0.77372  1.0000
  S   S74       1.0  0.25732  0.47054  0.72733  1.0000
  Fe  Fe39      1.0  0.22155  0.40187  0.78435  1.0000
  S   S75       1.0  0.25337  0.38162  0.80272  1.0000
  S   S76       1.0  0.18303  0.38946  0.78726  1.0000
  Fe  Fe40      1.0  0.26431  0.41898  0.80945  1.0000
  S   S77       1.0  0.27034  0.43014  0.84786  1.0000
  Fe  Fe41      1.0  0.27377  0.38707  0.76509  1.0000
  S   S78       1.0  0.29596  0.35670  0.74525  1.0000
  S   S79       1.0  0.23075  0.43894  0.79335  1.0000
  S   S80       1.0  0.24127  0.40521  0.74682  1.0000
  H   H232      1.0  0.08727  0.24649  0.68054  1.0000
  S   S81       1.0  0.35892  0.46710  0.95784  1.0000
  S   S82       1.0  0.36368  0.47449  0.88334  1.0000
  C   C146      1.0  0.18868  0.42774  0.91883  1.0000
  H   H233      1.0  0.13456  0.44767  0.83034  1.0000
  H   H234      1.0  0.40324  0.29828  0.55126  1.0000
  H   H235      1.0  0.21635  0.26235  0.71904  1.0000
  H   H236      1.0  0.25795  0.40594  0.49169  1.0000
  C   C147      1.0  0.20867  0.41334  0.88106  1.0000
  C   C148      1.0  0.23268  0.41905  0.91488  1.0000
  Fe  Fe42      1.0  0.29486  0.31553  0.61021  1.0000
  S   S83       1.0  0.29246  0.35042  0.62974  1.0000
  S   S84       1.0  0.25906  0.30029  0.60648  1.0000
  H   H237      1.0  0.13195  0.45276  0.94064  1.0000
  H   H238      1.0  0.00649  0.40355  0.57312  1.0000
  C   C149      1.0  0.29680  0.44155  0.85773  1.0000
  C   C150      1.0  0.31915  0.44094  0.84335  1.0000
  C   C151      1.0  0.33955  0.45066  0.85172  1.0000
  C   C152      1.0  0.33791  0.46100  0.87454  1.0000
  C   C153      1.0  0.31561  0.46144  0.88901  1.0000
  C   C154      1.0  0.29521  0.45175  0.88065  1.0000
  H   H239      1.0  0.32073  0.43298  0.82580  1.0000
  H   H240      1.0  0.21577  0.46608  0.90675  1.0000
  H   H241      1.0  0.31650  0.42900  0.64535  1.0000
  H   H242      1.0  0.27807  0.45239  0.89196  1.0000
  C   C155      1.0  0.29322  0.35382  0.71348  1.0000
  C   C156      1.0  0.30577  0.33389  0.70209  1.0000
  C   C157      1.0  0.30476  0.33184  0.67659  1.0000
  C   C158      1.0  0.29135  0.34989  0.66227  1.0000
  C   C159      1.0  0.27823  0.36932  0.67380  1.0000
  C   C160      1.0  0.27908  0.37124  0.69922  1.0000
  H   H243      1.0  0.31674  0.32026  0.71293  1.0000
  H   H244      1.0  0.31514  0.31687  0.66784  1.0000
  H   H245      1.0  0.26755  0.38315  0.66289  1.0000
  H   H246      1.0  0.26910  0.38647  0.70758  1.0000
  C   C161      1.0  0.43400  0.43274  0.52359  1.0000
  H   H247      1.0  0.21964  0.28588  0.67786  1.0000
  H   H248      1.0  0.22662  0.27472  0.74535  1.0000
  H   H249      1.0  0.33379  0.23858  0.53596  1.0000
  C   C162      1.0  0.07098  0.30727  0.68392  1.0000
  C   C163      1.0  0.44864  0.44944  0.53170  1.0000
  H   H250      1.0  0.31042  0.47110  0.66029  1.0000
  C   C164      1.0  0.98956  0.40945  0.53864  1.0000
  H   H251      1.0  0.22516  0.41349  0.86771  1.0000
  H   H252      1.0  0.44051  0.46705  0.53686  1.0000
  H   H253      1.0  0.11334  0.27131  0.65129  1.0000
  C   C165      1.0  0.23723  0.31815  0.72268  1.0000
  C   C166      1.0  0.21868  0.27970  0.72725  1.0000
  C   C167      1.0  0.03774  0.24640  0.75186  1.0000
  C   C168      1.0  0.21705  0.25064  0.64013  1.0000
  C   C169      1.0  0.30293  0.46244  0.67828  1.0000
  C   C170      1.0  0.27900  0.27674  0.50632  1.0000
  C   C171      1.0  0.48464  0.42030  0.52717  1.0000
  H   H254      1.0  0.19255  0.42008  0.87055  1.0000
  S   S85       1.0  0.11440  0.24567  0.78749  1.0000
  C   C172      1.0  0.37073  0.24012  0.54565  1.0000
  C   C173      1.0  0.18051  0.30680  0.78214  1.0000
  C   C174      1.0  0.15910  0.32255  0.78030  1.0000
  C   C175      1.0  0.15992  0.34796  0.78171  1.0000
  C   C176      1.0  0.18222  0.35774  0.78437  1.0000
  C   C177      1.0  0.20366  0.34201  0.78522  1.0000
  C   C178      1.0  0.20274  0.31667  0.78446  1.0000
  H   H255      1.0  0.14189  0.31505  0.77848  1.0000
  H   H256      1.0  0.14328  0.36000  0.78086  1.0000
  H   H257      1.0  0.22094  0.34923  0.78708  1.0000
  H   H258      1.0  0.21935  0.30463  0.78600  1.0000
  N   N16       1.0  0.43173  0.31761  0.53035  1.0000
  C   C179      1.0  0.03709  0.27187  0.75151  1.0000
  C   C180      1.0  0.01447  0.28587  0.75236  1.0000
  C   C181      1.0  0.14263  0.44858  0.81084  1.0000
  H   H259      1.0  0.01375  0.30562  0.75178  1.0000
  H   H260      1.0  0.98861  0.45064  0.62783  1.0000
  C   C182      1.0  0.09268  0.44093  0.89876  1.0000
  C   C183      1.0  0.07252  0.43556  0.91515  1.0000
  C   C184      1.0  0.07390  0.43609  0.94071  1.0000
  C   C185      1.0  0.09524  0.44246  0.95002  1.0000
  C   C186      1.0  0.11534  0.44808  0.93361  1.0000
  H   H261      1.0  0.45061  0.30236  0.49829  1.0000
  H   H262      1.0  0.05605  0.43044  0.90822  1.0000
  S   S86       1.0  0.01860  0.43275  0.87161  1.0000
  N   N17       1.0  0.23421  0.29572  0.71060  1.0000
  H   H263      1.0  0.20093  0.38124  0.52155  1.0000
  C   C187      1.0  0.25849  0.28259  0.70517  1.0000
  S   S87       1.0  0.04696  0.43151  0.81647  1.0000
  S   S88       1.0  0.29040  0.25671  0.57618  1.0000
  Fe  Fe43      1.0  0.32422  0.27529  0.58122  1.0000
  C   C188      1.0  0.99810  0.41703  0.55999  1.0000
  C   C189      1.0  0.01218  0.47826  0.70020  1.0000
  H   H264      1.0  0.20002  0.28884  0.73130  1.0000
  H   H265      1.0  0.24684  0.31386  0.73995  1.0000
  H   H266      1.0  0.08253  0.30989  0.69917  1.0000
  H   H267      1.0  0.28879  0.42128  0.66308  1.0000
  S   S89       1.0  0.03885  0.48316  0.84353  1.0000
  H   H268      1.0  0.23352  0.41017  0.51510  1.0000
  H   H269      1.0  0.26791  0.27712  0.72236  1.0000
  H   H270      1.0  0.25749  0.34951  0.49350  1.0000
  C   C190      1.0  0.99328  0.24881  0.75453  1.0000
  C   C191      1.0  0.42167  0.34189  0.53793  1.0000
  H   H271      1.0  0.35673  0.45015  0.84043  1.0000
  S   S90       1.0  0.31436  0.27935  0.62183  1.0000
  S   S91       1.0  0.21234  0.47143  0.96035  1.0000
  C   C192      1.0  0.41186  0.30095  0.53203  1.0000
  H   H272      1.0  0.22398  0.35613  0.52568  1.0000
  H   H273      1.0  0.30903  0.47931  0.50453  1.0000
  H   H274      1.0  0.12972  0.45131  0.89543  1.0000
  C   C193      1.0  0.30402  0.42684  0.70767  1.0000
  S   S92       1.0  0.15182  0.24049  0.67902  1.0000
  Fe  Fe44      1.0  0.27353  0.29507  0.56729  1.0000
  H   H275      1.0  0.31686  0.40262  0.66739  1.0000
  H   H276      1.0  0.07083  0.32415  0.67100  1.0000
  S   S93       1.0  0.99114  0.46002  0.82386  1.0000
  H   H277      1.0  0.15847  0.43441  0.80981  1.0000
  H   H278      1.0  0.35004  0.41891  0.68770  1.0000
  C   C194      1.0  0.13573  0.44582  0.76807  1.0000
  H   H279      1.0  0.34565  0.44911  0.69830  1.0000
  C   C195      1.0  0.00573  0.46341  0.72170  1.0000
  C   C196      1.0  0.22243  0.30245  0.68725  1.0000
  H   H280      1.0  0.24819  0.33102  0.71034  1.0000
  H   H281      1.0  0.20416  0.31260  0.69058  1.0000
  H   H282      1.0  0.07107  0.26589  0.64120  1.0000
  C   C197      1.0  0.11411  0.44712  0.90805  1.0000
  C   C198      1.0  0.47381  0.44312  0.53376  1.0000
  H   H283      1.0  0.39701  0.30821  0.52000  1.0000
  H   H284      1.0  0.28378  0.42641  0.70809  1.0000
  N   N18       1.0  0.31423  0.43722  0.68340  1.0000
  C   C199      1.0  0.24529  0.39596  0.50528  1.0000
  H   H285      1.0  0.20659  0.39389  0.88789  1.0000
  Fe  Fe45      1.0  0.02893  0.46929  0.80852  1.0000
  H   H286      1.0  0.05198  0.30564  0.69252  1.0000
  S   S94       1.0  0.26585  0.23676  0.64663  1.0000
  H   H287      1.0  0.18973  0.43902  0.93459  1.0000
  H   H288      1.0  0.30605  0.47436  0.69299  1.0000
  C   C200      1.0  0.44270  0.32031  0.50461  1.0000
  Fe  Fe46      1.0  0.27913  0.26386  0.61581  1.0000
  H   H289      1.0  0.20235  0.35566  0.50298  1.0000
  Fe  Fe47      1.0  0.39435  0.47855  0.96928  1.0000
  N   N19       1.0  0.05630  0.33428  0.80587  1.0000
  C   C201      1.0  0.06214  0.36013  0.80211  1.0000
  C   C202      1.0  0.07841  0.31807  0.79923  1.0000
  C   C203      1.0  0.03662  0.33052  0.79009  1.0000
  C   C204      1.0  0.04792  0.32840  0.83207  1.0000
  H   H290      1.0  0.04577  0.37281  0.80690  1.0000
  H   H291      1.0  0.06842  0.36517  0.78249  1.0000
  H   H292      1.0  0.07681  0.36370  0.81385  1.0000
  H   H293      1.0  0.08523  0.32198  0.77955  1.0000
  H   H294      1.0  0.09365  0.32023  0.81086  1.0000
  H   H295      1.0  0.07454  0.29841  0.80152  1.0000
  H   H296      1.0  0.03147  0.31128  0.79273  1.0000
  H   H297      1.0  0.04244  0.33427  0.77013  1.0000
  H   H298      1.0  0.01978  0.34277  0.79428  1.0000
  H   H299      1.0  0.04337  0.30901  0.83553  1.0000
  H   H300      1.0  0.03115  0.34022  0.83760  1.0000
  H   H301      1.0  0.06220  0.33121  0.84458  1.0000
  C   C205      1.0  0.44481  0.40988  0.51710  1.0000
  H   H302      1.0  0.46622  0.31927  0.54580  1.0000
  N   N20       1.0  0.21096  0.42857  0.90162  1.0000
  S   S95       1.0  0.00119  0.47274  0.67192  1.0000
  H   H303      1.0  0.17195  0.43489  0.90947  1.0000
  C   C206      1.0  0.01432  0.46743  0.74446  1.0000
  H   H304      1.0  0.19782  0.46207  0.88160  1.0000
  H   H305      1.0  0.41878  0.28249  0.52631  1.0000
  Fe  Fe48      1.0  0.15000  0.25648  0.76794  1.0000
  H   H306      1.0  0.43627  0.35481  0.53715  1.0000
  C   C207      1.0  0.25709  0.29162  0.50907  1.0000
  C   C208      1.0  0.99256  0.27432  0.75427  1.0000
  H   H307      1.0  0.24975  0.41909  0.90224  1.0000
  Fe  Fe49      1.0  0.09804  0.25976  0.75208  1.0000
  H   H308      1.0  0.06489  0.29861  0.63700  1.0000
  N   N21       1.0  0.23040  0.38037  0.49293  1.0000
  H   H309      1.0  0.00225  0.44743  0.58104  1.0000
  H   H310      1.0  0.15138  0.43156  0.76597  1.0000
  H   H311      1.0  0.22316  0.25891  0.62215  1.0000
  H   H312      1.0  0.99405  0.44878  0.72077  1.0000
  H   H313      1.0  0.23386  0.31425  0.67408  1.0000
  H   H314      1.0  0.34938  0.44540  0.66573  1.0000
  H   H315      1.0  0.00925  0.45595  0.76095  1.0000
  H   H316      1.0  0.40744  0.35043  0.52571  1.0000
  H   H317      1.0  0.23053  0.45537  0.87860  1.0000
  Fe  Fe50      1.0  0.00998  0.42273  0.83427  1.0000
  C   C209      1.0  0.21386  0.45416  0.89167  1.0000
  H   H318      1.0  0.07759  0.46749  0.52539  1.0000
  C   C210      1.0  0.30889  0.42189  0.66394  1.0000
  S   S96       1.0  0.24936  0.30690  0.53602  1.0000
  H   H319      1.0  0.06049  0.26062  0.69696  1.0000
  H   H320      1.0  0.31404  0.46941  0.90656  1.0000
  S   S97       1.0  0.30793  0.31337  0.57003  1.0000
  H   H321      1.0  0.45797  0.33255  0.50277  1.0000
  H   H322      1.0  0.48492  0.45603  0.54037  1.0000
  S   S98       1.0  0.09609  0.44339  0.98217  1.0000
  H   H323      1.0  0.23517  0.43044  0.93025  1.0000
  C   C211      1.0  0.34103  0.43769  0.68378  1.0000
  H   H324      1.0  0.47489  0.25884  0.51011  1.0000
  H   H325      1.0  0.25652  0.38491  0.51906  1.0000
  H   H326      1.0  0.31194  0.40774  0.71230  1.0000
  Fe  Fe51      1.0  0.00289  0.47086  0.85984  1.0000
  C   C212      1.0  0.99575  0.44192  0.56450  1.0000
  Fe  Fe52      1.0  0.99138  0.36646  0.49554  1.0000
  H   H327      1.0  0.25690  0.26567  0.69583  1.0000
  H   H328      1.0  0.08921  0.46114  0.78299  1.0000
  H   H329      1.0  0.05469  0.44637  0.53434  1.0000
  H   H330      1.0  0.23108  0.39991  0.92300  1.0000
  H   H331      1.0  0.30758  0.43807  0.72274  1.0000
  C   C213      1.0  0.06466  0.28251  0.65096  1.0000
  H   H332      1.0  0.27066  0.29424  0.69269  1.0000
  C   C214      1.0  0.18361  0.24029  0.67067  1.0000
  H   H333      1.0  0.41301  0.34054  0.55719  1.0000
  Fe  Fe53      1.0  0.38672  0.47903  0.52381  1.0000
  H   H334      1.0  0.17868  0.25986  0.63508  1.0000
  H   H335      1.0  0.18597  0.40872  0.92679  1.0000
  H   H336      1.0  0.45891  0.28902  0.54154  1.0000
  C   C215      1.0  0.47006  0.40370  0.51877  1.0000
  H   H337      1.0  0.29146  0.27456  0.52083  1.0000
  H   H338      1.0  0.10124  0.41649  0.78764  1.0000
  C   C216      1.0  0.21363  0.36785  0.51161  1.0000
  N   N22       1.0  0.12426  0.44456  0.79366  1.0000
  C   C217      1.0  0.19184  0.25115  0.64748  1.0000
  H   H339      1.0  0.47813  0.38599  0.51390  1.0000
  H   H340      1.0  0.09046  0.26558  0.70478  1.0000
  H   H341      1.0  0.13045  0.40534  0.79882  1.0000
  C   C218      1.0  0.07950  0.26346  0.68906  1.0000
  H   H342      1.0  0.14298  0.46395  0.76262  1.0000
  S   S99       1.0  0.36331  0.26130  0.56840  1.0000
  H   H343      1.0  0.12236  0.44296  0.75459  1.0000
  H   H344      1.0  0.21921  0.32811  0.72784  1.0000
  C   C219      1.0  0.45080  0.30728  0.54683  1.0000
  C   C220      1.0  0.10579  0.28768  0.66099  1.0000
  H   H345      1.0  0.11812  0.28920  0.67589  1.0000
  H   H346      1.0  0.44328  0.30502  0.56643  1.0000
  N   N23       1.0  0.05811  0.45797  0.49551  1.0000
  H   H347      1.0  0.14995  0.46682  0.80650  1.0000
  S   S100      1.0  0.02688  0.48075  0.60402  1.0000
  S   S101      1.0  0.99158  0.37790  0.53433  1.0000
  H   H348      1.0  0.04525  0.28068  0.65811  1.0000
  H   H349      1.0  0.08327  0.43611  0.51834  1.0000
  H   H350      1.0  0.03227  0.43045  0.50240  1.0000
  C   C221      1.0  0.06889  0.45168  0.51945  1.0000
  H   H351      1.0  0.43360  0.39696  0.51070  1.0000
  H   H352      1.0  0.02429  0.47401  0.51236  1.0000
  S   S102      1.0  0.99789  0.38424  0.83289  1.0000
  C   C222      1.0  0.11522  0.42012  0.80015  1.0000
  C   C223      1.0  0.29333  0.48529  0.49418  1.0000
  C   C224      1.0  0.03914  0.47866  0.49794  1.0000
  Fe  Fe54      1.0  0.17853  0.47760  0.98647  1.0000
  C   C225      1.0  0.26088  0.48044  0.95412  1.0000
  H   H353      1.0  0.10665  0.41851  0.81944  1.0000
  H   H354      1.0  0.27431  0.45309  0.50616  1.0000
  H   H355      1.0  0.26082  0.47386  0.93603  1.0000
  C   C226      1.0  0.23940  0.48102  0.97004  1.0000
  C   C227      1.0  0.10354  0.46363  0.79562  1.0000
  H   H356      1.0  0.09452  0.46326  0.81473  1.0000
  C   C228      1.0  0.27373  0.47040  0.49497  1.0000
  H   H357      1.0  0.40939  0.23762  0.55074  1.0000
  C   C229      1.0  0.23416  0.23874  0.65572  1.0000
  H   H358      1.0  0.42894  0.32816  0.49159  1.0000
  H   H359      1.0  0.22418  0.30597  0.49208  1.0000
  H   H360      1.0  0.10962  0.48234  0.79075  1.0000
  H   H361      1.0  0.05072  0.47663  0.96831  1.0000
  C   C230      1.0  0.24123  0.29462  0.48997  1.0000
  H   H362      1.0  0.04562  0.48150  0.92299  1.0000
  Fe  Fe55      1.0  0.13997  0.23690  0.71983  1.0000
  C   C231      1.0  0.04685  0.43652  0.48828  1.0000
  H   H363      1.0  0.32775  0.53915  0.36218  1.0000
  C   C232      1.0  0.07767  0.58319  0.99900  1.0000
  S   S103      1.0  0.24068  0.70424  0.12385  1.0000
  S   S104      1.0  0.20252  0.50517  0.36620  1.0000
  H   H364      1.0  0.22283  0.52624  0.31945  1.0000
  H   H365      1.0  0.09939  0.55581  0.11277  1.0000
  S   S105      1.0  0.31687  0.52670  0.47769  1.0000
  S   S106      1.0  0.18939  0.51082  0.44080  1.0000
  Fe  Fe56      1.0  0.28458  0.60589  0.29836  1.0000
  S   S107      1.0  0.32100  0.59174  0.28049  1.0000
  S   S108      1.0  0.27249  0.59176  0.33785  1.0000
  Fe  Fe57      1.0  0.27441  0.64252  0.25357  1.0000
  S   S109      1.0  0.30940  0.63044  0.23254  1.0000
  S   S110      1.0  0.24940  0.67433  0.23812  1.0000
  Fe  Fe58      1.0  0.30047  0.59230  0.24656  1.0000
  S   S111      1.0  0.30611  0.56339  0.21923  1.0000
  Fe  Fe59      1.0  0.32657  0.63130  0.26827  1.0000
  S   S112      1.0  0.36363  0.64698  0.26650  1.0000
  S   S113      1.0  0.26368  0.60425  0.26491  1.0000
  S   S114      1.0  0.29194  0.64560  0.28888  1.0000
  H   H366      1.0  0.25980  0.50429  0.27308  1.0000
  S   S115      1.0  0.48634  0.49562  0.11530  1.0000
  H   H367      1.0  0.30270  0.55911  0.43461  1.0000
  H   H368      1.0  0.25038  0.55943  0.30781  1.0000
  C   C233      1.0  0.25310  0.49996  0.46644  1.0000
  H   H369      1.0  0.29148  0.51780  0.40416  1.0000
  H   H370      1.0  0.35604  0.53466  0.39562  1.0000
  H   H371      1.0  0.27849  0.60672  0.19914  1.0000
  S   S116      1.0  0.00489  0.57682  0.01539  1.0000
  H   H372      1.0  0.43724  0.59203  0.33236  1.0000
  H   H373      1.0  0.27994  0.58673  0.17496  1.0000
  C   C234      1.0  0.14350  0.72614  0.14227  1.0000
  H   H374      1.0  0.38491  0.59582  0.29245  1.0000
  S   S117      1.0  0.11832  0.52474  0.46719  1.0000
  C   C235      1.0  0.13629  0.53871  0.06302  1.0000
  C   C236      1.0  0.43234  0.55086  0.45706  1.0000
  C   C237      1.0  0.41207  0.54732  0.44431  1.0000
  C   C238      1.0  0.41452  0.54674  0.41848  1.0000
  C   C239      1.0  0.43729  0.54935  0.40526  1.0000
  C   C240      1.0  0.45752  0.55302  0.41798  1.0000
  C   C241      1.0  0.45499  0.55404  0.44377  1.0000
  H   H375      1.0  0.39442  0.54540  0.45431  1.0000
  C   C242      1.0  0.23971  0.48936  0.99345  1.0000
  H   H376      1.0  0.45382  0.49949  0.99524  1.0000
  H   H377      1.0  0.27166  0.53227  0.45479  1.0000
  H   H378      1.0  0.48279  0.52326  0.04645  1.0000
  C   C243      1.0  0.04695  0.54598  0.01385  1.0000
  C   C244      1.0  0.09211  0.54240  0.06795  1.0000
  H   H379      1.0  0.07535  0.54247  0.08093  1.0000
  N   N24       1.0  0.48225  0.51882  0.00771  1.0000
  C   C245      1.0  0.28654  0.49458  0.21584  1.0000
  H   H380      1.0  0.03508  0.53160  0.01998  1.0000
  H   H381      1.0  0.47067  0.55705  0.45349  1.0000
  H   H382      1.0  0.07993  0.52151  0.01258  1.0000
  C   C246      1.0  0.36459  0.67918  0.26575  1.0000
  C   C247      1.0  0.34510  0.69398  0.27622  1.0000
  H   H383      1.0  0.08954  0.59777  0.99376  1.0000
  H   H384      1.0  0.31859  0.57057  0.36760  1.0000
  C   C248      1.0  0.38729  0.71550  0.25532  1.0000
  C   C249      1.0  0.38568  0.69006  0.25531  1.0000
  H   H385      1.0  0.32889  0.68583  0.28459  1.0000
  C   C250      1.0  0.08786  0.55897  0.00298  1.0000
  H   H386      1.0  0.13587  0.52535  0.04906  1.0000
  H   H387      1.0  0.40085  0.67878  0.24715  1.0000
  C   C251      1.0  0.24959  0.68370  0.20624  1.0000
  C   C252      1.0  0.23533  0.70507  0.19854  1.0000
  C   C253      1.0  0.23359  0.71219  0.17326  1.0000
  C   C254      1.0  0.24561  0.69761  0.15547  1.0000
  C   C255      1.0  0.26032  0.67651  0.16315  1.0000
  C   C256      1.0  0.26275  0.66988  0.18846  1.0000
  H   H388      1.0  0.22523  0.71595  0.21221  1.0000
  C   C257      1.0  0.34289  0.54746  0.40586  1.0000
  H   H389      1.0  0.26987  0.66532  0.14945  1.0000
  H   H390      1.0  0.27426  0.65377  0.19426  1.0000
  C   C258      1.0  0.29379  0.53500  0.22730  1.0000
  C   C259      1.0  0.28033  0.53032  0.24993  1.0000
  H   H391      1.0  0.43127  0.63399  0.31107  1.0000
  C   C260      1.0  0.29679  0.51713  0.21026  1.0000
  H   H392      1.0  0.27791  0.54400  0.26318  1.0000
  S   S118      1.0  0.43988  0.54816  0.37291  1.0000
  H   H393      1.0  0.30713  0.52070  0.19270  1.0000
  C   C261      1.0  0.03677  0.57021  0.00990  1.0000
  H   H394      1.0  0.33456  0.70927  0.22430  1.0000
  H   H395      1.0  0.21199  0.58804  0.17336  1.0000
  H   H396      1.0  0.28118  0.56069  0.41140  1.0000
  C   C262      1.0  0.22115  0.53000  0.35863  1.0000
  C   C263      1.0  0.22871  0.54344  0.37678  1.0000
  C   C264      1.0  0.24392  0.56266  0.37003  1.0000
  C   C265      1.0  0.25202  0.56847  0.34517  1.0000
  C   C266      1.0  0.24436  0.55514  0.32701  1.0000
  C   C267      1.0  0.22890  0.53612  0.33372  1.0000
  H   H397      1.0  0.22269  0.53913  0.39598  1.0000
  H   H398      1.0  0.24930  0.57322  0.38412  1.0000
  H   H399      1.0  0.40364  0.72364  0.24729  1.0000
  N   N25       1.0  0.42263  0.60084  0.29684  1.0000
  C   C268      1.0  0.44684  0.59686  0.28307  1.0000
  H   H400      1.0  0.46182  0.60239  0.29339  1.0000
  C   C269      1.0  0.42289  0.58656  0.32119  1.0000
  C   C270      1.0  0.40346  0.59277  0.28271  1.0000
  H   H401      1.0  0.44715  0.50049  0.44287  1.0000
  C   C271      1.0  0.41730  0.62719  0.30039  1.0000
  H   H402      1.0  0.31319  0.51461  0.42728  1.0000
  C   C272      1.0  0.45494  0.48838  0.45829  1.0000
  C   C273      1.0  0.32361  0.71526  0.20819  1.0000
  H   H403      1.0  0.40501  0.58908  0.33224  1.0000
  H   H404      1.0  0.11500  0.57499  0.08918  1.0000
  H   H405      1.0  0.09167  0.56038  0.05667  1.0000
  H   H406      1.0  0.15378  0.53433  0.07202  1.0000
  Fe  Fe60      1.0  0.98832  0.60975  0.99274  1.0000
  C   C274      1.0  0.30067  0.56250  0.41440  1.0000
  H   H407      1.0  0.30440  0.58188  0.40883  1.0000
  H   H408      1.0  0.45129  0.57719  0.27983  1.0000
  H   H409      1.0  0.13218  0.50833  0.10419  1.0000
  Fe  Fe61      1.0  0.15041  0.50134  0.45044  1.0000
  H   H410      1.0  0.31271  0.69982  0.20520  1.0000
  H   H411      1.0  0.39880  0.54406  0.40873  1.0000
  H   H412      1.0  0.26968  0.61862  0.16912  1.0000
  Fe  Fe62      1.0  0.18674  0.49347  0.40531  1.0000
  H   H413      1.0  0.45388  0.49941  0.47459  1.0000
  H   H414      1.0  0.13681  0.55709  0.05261  1.0000
  H   H415      1.0  0.09919  0.51129  0.10837  1.0000
  H   H416      1.0  0.39900  0.63087  0.31046  1.0000
  H   H417      1.0  0.40273  0.60324  0.26425  1.0000
  H   H418      1.0  0.34840  0.56636  0.40079  1.0000
  C   C275      1.0  0.23011  0.61776  0.20249  1.0000
  H   H419      1.0  0.42687  0.56656  0.31926  1.0000
  C   C276      1.0  0.34699  0.71929  0.27684  1.0000
  H   H420      1.0  0.23779  0.50569  0.45556  1.0000
  H   H421      1.0  0.09077  0.52814  0.05503  1.0000
  H   H422      1.0  0.41686  0.63849  0.28235  1.0000
  C   C277      1.0  0.27245  0.51495  0.46591  1.0000
  H   H423      1.0  0.11454  0.49842  0.08156  1.0000
  C   C278      1.0  0.27315  0.48981  0.23850  1.0000
  H   H424      1.0  0.25367  0.55855  0.19963  1.0000
  C   C279      1.0  0.31491  0.55123  0.37353  1.0000
  H   H425      1.0  0.44745  0.60758  0.26471  1.0000
  C   C280      1.0  0.11540  0.55621  0.09881  1.0000
  H   H426      1.0  0.22472  0.56976  0.21422  1.0000
  H   H427      1.0  0.25290  0.57722  0.22479  1.0000
  H   H428      1.0  0.34527  0.54308  0.42597  1.0000
  C   C281      1.0  0.46956  0.52126  0.03251  1.0000
  N   N26       1.0  0.31736  0.54528  0.40028  1.0000
  C   C282      1.0  0.07235  0.54027  0.00977  1.0000
  C   C283      1.0  0.05217  0.58877  0.00211  1.0000
  H   H429      1.0  0.40671  0.57295  0.27972  1.0000
  H   H430      1.0  0.13234  0.55312  0.10890  1.0000
  H   H431      1.0  0.32274  0.50651  0.39663  1.0000
  H   H432      1.0  0.23091  0.60880  0.15474  1.0000
  C   C284      1.0  0.11511  0.51290  0.09447  1.0000
  H   H433      1.0  0.22883  0.63458  0.18949  1.0000
  H   H434      1.0  0.33680  0.71811  0.19173  1.0000
  C   C285      1.0  0.26107  0.49783  0.00067  1.0000
  H   H435      1.0  0.29603  0.54900  0.36865  1.0000
  N   N27       1.0  0.24346  0.59685  0.19050  1.0000
  C   C286      1.0  0.23125  0.59242  0.16840  1.0000
  C   C287      1.0  0.24358  0.57465  0.20801  1.0000
  H   H436      1.0  0.21115  0.61376  0.20941  1.0000
  C   C288      1.0  0.26895  0.60253  0.18302  1.0000
  H   H437      1.0  0.23949  0.62238  0.21858  1.0000
  H   H438      1.0  0.47507  0.55543  0.40795  1.0000
  H   H439      1.0  0.24099  0.57678  0.15896  1.0000
  C   C289      1.0  0.27005  0.50778  0.25549  1.0000
  S   S119      1.0  0.30870  0.50857  0.99440  1.0000
  S   S120      1.0  0.17360  0.50257  0.01726  1.0000
  N   N28       1.0  0.11472  0.53756  0.08109  1.0000
  C   C290      1.0  0.31090  0.51994  0.40736  1.0000
  Fe  Fe63      1.0  0.13633  0.51369  0.00371  1.0000
  H   H440      1.0  0.26105  0.50457  0.01871  1.0000
  S   S121      1.0  0.48702  0.54495  0.31505  1.0000
  H   H441      1.0  0.33212  0.73046  0.28564  1.0000
  H   H442      1.0  0.27855  0.71815  0.23162  1.0000
  H   H443      1.0  0.45601  0.53760  0.03249  1.0000
  S   S122      1.0  0.12003  0.55298  0.00108  1.0000
  H   H444      1.0  0.22351  0.48933  0.00606  1.0000
  S   S123      1.0  0.14662  0.48745  0.41347  1.0000
  C   C291      1.0  0.29270  0.50759  0.47958  1.0000
  C   C292      1.0  0.36806  0.73019  0.26642  1.0000
  H   H445      1.0  0.15871  0.71652  0.15265  1.0000
  Fe  Fe64      1.0  0.47818  0.53875  0.35593  1.0000
  H   H446      1.0  0.13775  0.71306  0.12989  1.0000
  H   H447      1.0  0.12777  0.73030  0.15593  1.0000
  H   H448      1.0  0.18835  0.73335  0.12009  1.0000
  H   H449      1.0  0.04452  0.60756  0.99932  1.0000
  H   H450      1.0  0.30019  0.72715  0.25115  1.0000
  H   H451      1.0  0.45947  0.50488  0.03899  1.0000
  H   H452      1.0  0.22216  0.72844  0.16760  1.0000
  H   H453      1.0  0.16762  0.72938  0.09729  1.0000
  H   H454      1.0  0.28223  0.73079  0.18647  1.0000
  C   C293      1.0  0.29030  0.73301  0.23431  1.0000
  H   H455      1.0  0.48237  0.55775  0.99849  1.0000
  S   S124      1.0  0.38505  0.50227  0.48797  1.0000
  H   H456      1.0  0.45037  0.53218  0.98847  1.0000
  C   C294      1.0  0.46408  0.51598  0.98987  1.0000
  C   C295      1.0  0.03900  0.63124  0.88678  1.0000
  C   C296      1.0  0.04741  0.67071  0.86609  1.0000
  S   S125      1.0  0.08869  0.50730  0.58219  1.0000
  H   H457      1.0  0.29248  0.71782  0.93784  1.0000
  H   H458      1.0  0.47535  0.60522  0.96055  1.0000
  H   H459      1.0  0.04780  0.69068  0.86789  1.0000
  H   H460      1.0  0.26614  0.65187  0.91862  1.0000
  Fe  Fe65      1.0  0.28121  0.62477  0.68142  1.0000
  S   S126      1.0  0.24930  0.60710  0.70239  1.0000
  S   S127      1.0  0.29687  0.62120  0.64155  1.0000
  Fe  Fe66      1.0  0.28776  0.65635  0.72352  1.0000
  S   S128      1.0  0.25718  0.64090  0.74786  1.0000
  S   S129      1.0  0.30783  0.68780  0.73319  1.0000
  Fe  Fe67      1.0  0.27242  0.60463  0.73484  1.0000
  S   S130      1.0  0.27594  0.57260  0.76371  1.0000
  Fe  Fe68      1.0  0.23662  0.64492  0.71380  1.0000
  S   S131      1.0  0.19724  0.66064  0.71896  1.0000
  S   S132      1.0  0.30520  0.61973  0.71326  1.0000
  S   S133      1.0  0.26618  0.66292  0.69011  1.0000
  Fe  Fe69      1.0  0.36298  0.52059  0.55437  1.0000
  H   H461      1.0  0.47305  0.51396  0.97098  1.0000
  S   S134      1.0  0.34670  0.52513  0.59396  1.0000
  H   H462      1.0  0.04704  0.49517  0.50328  1.0000
  H   H463      1.0  0.04972  0.57380  0.60099  1.0000
  N   N29       1.0  0.03940  0.65762  0.88989  1.0000
  C   C297      1.0  0.48689  0.63120  0.90077  1.0000
  H   H464      1.0  0.27299  0.71732  0.89873  1.0000
  S   S135      1.0  0.36081  0.54753  0.52077  1.0000
  S   S136      1.0  0.40226  0.50695  0.54408  1.0000
  S   S137      1.0  0.40199  0.56737  0.94364  1.0000
  S   S138      1.0  0.30415  0.70355  0.84751  1.0000
  Fe  Fe70      1.0  0.01079  0.49815  0.63812  1.0000
  C   C298      1.0  0.43399  0.56850  0.94349  1.0000
  C   C299      1.0  0.44317  0.58796  0.95374  1.0000
  C   C300      1.0  0.46853  0.59024  0.95252  1.0000
  H   H465      1.0  0.04776  0.57437  0.54431  1.0000
  H   H466      1.0  0.45940  0.67382  0.93789  1.0000
  C   C301      1.0  0.45040  0.55116  0.93221  1.0000
  H   H467      1.0  0.07555  0.65353  0.90303  1.0000
  H   H468      1.0  0.43057  0.60134  0.96263  1.0000
  H   H469      1.0  0.44351  0.53620  0.92407  1.0000
  C   C302      1.0  0.30606  0.69231  0.76497  1.0000
  C   C303      1.0  0.31102  0.71498  0.77245  1.0000
  C   C304      1.0  0.30990  0.71885  0.79771  1.0000
  C   C305      1.0  0.30438  0.69984  0.81565  1.0000
  C   C306      1.0  0.29934  0.67723  0.80814  1.0000
  C   C307      1.0  0.29994  0.67354  0.78290  1.0000
  H   H470      1.0  0.24636  0.70604  0.91538  1.0000
  H   H471      1.0  0.30525  0.56140  0.83324  1.0000
  H   H472      1.0  0.29511  0.66242  0.82187  1.0000
  H   H473      1.0  0.29631  0.65592  0.77737  1.0000
  C   C308      1.0  0.26978  0.54469  0.75326  1.0000
  C   C309      1.0  0.26366  0.52532  0.77054  1.0000
  C   C310      1.0  0.27165  0.54130  0.72804  1.0000
  H   H474      1.0  0.26125  0.52820  0.78994  1.0000
  H   H475      1.0  0.27640  0.55617  0.71460  1.0000
  C   C311      1.0  0.31073  0.59426  0.62877  1.0000
  C   C312      1.0  0.31275  0.57161  0.64269  1.0000
  C   C313      1.0  0.32401  0.55072  0.63177  1.0000
  C   C314      1.0  0.33346  0.55223  0.60690  1.0000
  C   C315      1.0  0.33144  0.57489  0.59297  1.0000
  C   C316      1.0  0.32011  0.59576  0.60388  1.0000
  H   H476      1.0  0.30558  0.57015  0.66184  1.0000
  H   H477      1.0  0.32542  0.53327  0.64269  1.0000
  H   H478      1.0  0.33870  0.57638  0.57386  1.0000
  H   H479      1.0  0.31865  0.61321  0.59295  1.0000
  H   H480      1.0  0.30537  0.53441  0.52781  1.0000
  H   H481      1.0  0.01407  0.68762  0.90095  1.0000
  H   H482      1.0  0.00821  0.65842  0.91616  1.0000
  S   S139      1.0  0.99985  0.59100  0.61341  1.0000
  C   C317      1.0  0.26192  0.49900  0.73753  1.0000
  H   H483      1.0  0.03307  0.62088  0.90449  1.0000
  H   H484      1.0  0.45347  0.64209  0.93851  1.0000
  C   C318      1.0  0.32771  0.53272  0.79900  1.0000
  C   C319      1.0  0.17121  0.70347  0.73005  1.0000
  C   C320      1.0  0.19130  0.69273  0.71613  1.0000
  C   C321      1.0  0.20538  0.70761  0.69940  1.0000
  C   C322      1.0  0.03420  0.49886  0.92615  1.0000
  C   C323      1.0  0.02947  0.48631  0.74574  1.0000
  H   H485      1.0  0.16037  0.69203  0.74311  1.0000
  H   H486      1.0  0.22075  0.69946  0.68837  1.0000
  H   H487      1.0  0.25063  0.66788  0.94355  1.0000
  H   H488      1.0  0.25531  0.48753  0.77618  1.0000
  C   C324      1.0  0.04512  0.59169  0.55363  1.0000
  N   N30       1.0  0.47515  0.65560  0.90621  1.0000
  S   S140      1.0  0.40536  0.49592  0.93143  1.0000
  Fe  Fe71      1.0  0.34770  0.51659  0.50258  1.0000
  C   C325      1.0  0.24094  0.72766  0.74605  1.0000
  N   N31       1.0  0.31682  0.52478  0.82387  1.0000
  H   H489      1.0  0.29551  0.69042  0.95834  1.0000
  H   H490      1.0  0.02003  0.49020  0.97443  1.0000
  C   C326      1.0  0.08673  0.52747  0.50864  1.0000
  C   C327      1.0  0.07971  0.52329  0.53397  1.0000
  C   C328      1.0  0.09638  0.51143  0.55005  1.0000
  C   C329      1.0  0.11991  0.50324  0.54049  1.0000
  C   C330      1.0  0.12675  0.50689  0.51504  1.0000
  C   C331      1.0  0.01455  0.66775  0.89817  1.0000
  H   H491      1.0  0.06152  0.52948  0.54100  1.0000
  H   H492      1.0  0.28584  0.54307  0.59351  1.0000
  H   H493      1.0  0.26008  0.71902  0.74625  1.0000
  N   N32       1.0  0.28051  0.68588  0.92396  1.0000
  C   C332      1.0  0.28377  0.70070  0.94458  1.0000
  C   C333      1.0  0.26469  0.70032  0.90637  1.0000
  C   C334      1.0  0.26889  0.66341  0.93375  1.0000
  C   C335      1.0  0.30464  0.67910  0.91109  1.0000
  H   H494      1.0  0.06613  0.66357  0.85925  1.0000
  H   H495      1.0  0.26337  0.52243  0.52567  1.0000
  H   H496      1.0  0.02798  0.54668  0.93279  1.0000
  Fe  Fe72      1.0  0.34305  0.50385  0.96918  1.0000
  H   H497      1.0  0.11599  0.70703  0.73124  1.0000
  H   H498      1.0  0.26203  0.68992  0.89034  1.0000
  C   C336      1.0  0.01551  0.71907  0.96369  1.0000
  C   C337      1.0  0.29868  0.54360  0.54472  1.0000
  H   H499      1.0  0.31370  0.53506  0.78514  1.0000
  H   H500      1.0  0.29112  0.50297  0.81024  1.0000
  S   S141      1.0  0.14310  0.49213  0.97058  1.0000
  H   H501      1.0  0.31390  0.69561  0.90334  1.0000
  Fe  Fe73      1.0  0.99508  0.66018  0.96599  1.0000
  C   C338      1.0  0.11024  0.51925  0.49908  1.0000
  H   H502      1.0  0.05691  0.68049  0.91185  1.0000
  H   H503      1.0  0.43982  0.64771  0.89646  1.0000
  H   H504      1.0  0.31590  0.72954  0.75868  1.0000
  H   H505      1.0  0.02582  0.62807  0.87320  1.0000
  C   C339      1.0  0.30599  0.50128  0.82300  1.0000
  H   H506      1.0  0.26900  0.51596  0.70065  1.0000
  C   C340      1.0  0.02689  0.53407  0.94997  1.0000
  H   H507      1.0  0.25580  0.71886  0.79184  1.0000
  H   H508      1.0  0.27265  0.49534  0.57668  1.0000
  Fe  Fe74      1.0  0.36797  0.48795  0.92113  1.0000
  Fe  Fe75      1.0  0.04896  0.51316  0.59668  1.0000
  Fe  Fe76      1.0  0.99783  0.50435  0.58487  1.0000
  H   H509      1.0  0.48483  0.69285  0.90399  1.0000
  H   H510      1.0  0.07638  0.61985  0.59246  1.0000
  H   H511      1.0  0.29886  0.48848  0.94904  1.0000
  H   H512      1.0  0.08356  0.71365  0.73815  1.0000
  H   H513      1.0  0.13293  0.49407  0.55281  1.0000
  C   C341      1.0  0.16500  0.72884  0.72707  1.0000
  H   H514      1.0  0.05096  0.65115  0.92683  1.0000
  H   H515      1.0  0.00722  0.53089  0.95443  1.0000
  H   H516      1.0  0.29285  0.56301  0.53883  1.0000
  H   H517      1.0  0.28038  0.65202  0.94706  1.0000
  H   H518      1.0  0.07476  0.52494  0.95726  1.0000
  H   H519      1.0  0.25515  0.53485  0.59207  1.0000
  H   H520      1.0  0.00091  0.66530  0.88483  1.0000
  N   N33       1.0  0.35345  0.65851  0.66173  1.0000
  C   C342      1.0  0.32864  0.66922  0.65635  1.0000
  C   C343      1.0  0.37184  0.67102  0.64496  1.0000
  C   C344      1.0  0.35569  0.63209  0.65786  1.0000
  C   C345      1.0  0.35751  0.66177  0.68767  1.0000
  H   H521      1.0  0.31446  0.65991  0.66850  1.0000
  H   H522      1.0  0.32474  0.66705  0.63698  1.0000
  H   H523      1.0  0.32598  0.68905  0.65941  1.0000
  H   H524      1.0  0.36919  0.66889  0.62525  1.0000
  H   H525      1.0  0.34253  0.51911  0.79248  1.0000
  H   H526      1.0  0.39080  0.66338  0.64850  1.0000
  H   H527      1.0  0.34197  0.62208  0.67010  1.0000
  H   H528      1.0  0.37417  0.62328  0.66166  1.0000
  H   H529      1.0  0.37601  0.65387  0.69253  1.0000
  H   H530      1.0  0.34381  0.65273  0.70082  1.0000
  H   H531      1.0  0.35563  0.68148  0.69131  1.0000
  H   H532      1.0  0.04546  0.50271  0.98597  1.0000
  C   C346      1.0  0.29755  0.54359  0.83186  1.0000
  H   H533      1.0  0.22864  0.71256  0.74667  1.0000
  C   C347      1.0  0.11852  0.73495  0.68758  1.0000
  Fe  Fe77      1.0  0.39841  0.53101  0.50864  1.0000
  H   H534      1.0  0.32838  0.51562  0.86062  1.0000
  H   H535      1.0  0.28317  0.54713  0.81844  1.0000
  C   C348      1.0  0.08889  0.59337  0.55318  1.0000
  H   H536      1.0  0.35065  0.50699  0.83647  1.0000
  C   C349      1.0  0.25999  0.50241  0.76274  1.0000
  S   S142      1.0  0.37763  0.51341  0.98360  1.0000
  H   H537      1.0  0.05190  0.72947  0.95218  1.0000
  H   H538      1.0  0.44421  0.67979  0.89554  1.0000
  C   C350      1.0  0.33602  0.52145  0.84160  1.0000
  H   H539      1.0  0.07107  0.52788  0.92463  1.0000
  H   H540      1.0  0.31712  0.66809  0.92370  1.0000
  S   S143      1.0  0.00997  0.62206  0.95816  1.0000
  S   S144      1.0  0.34764  0.49045  0.53662  1.0000
  H   H541      1.0  0.30332  0.50420  0.57697  1.0000
  H   H542      1.0  0.03235  0.50866  0.68515  1.0000
  H   H543      1.0  0.05738  0.62292  0.88036  1.0000
  H   H544      1.0  0.28843  0.53789  0.85025  1.0000
  N   N34       1.0  0.04217  0.51079  0.94699  1.0000
  H   H545      1.0  0.09061  0.70319  0.67105  1.0000
  C   C351      1.0  0.27058  0.54359  0.58119  1.0000
  H   H546      1.0  0.24229  0.52204  0.55271  1.0000
  H   H547      1.0  0.01480  0.49432  0.92959  1.0000
  C   C352      1.0  0.19881  0.73296  0.69603  1.0000
  C   C353      1.0  0.02728  0.49713  0.70156  1.0000
  H   H548      1.0  0.08022  0.49849  0.93994  1.0000
  Fe  Fe78      1.0  0.00601  0.54947  0.61223  1.0000
  H   H549      1.0  0.48319  0.65037  0.94427  1.0000
  H   H550      1.0  0.26586  0.70651  0.95441  1.0000
  C   C354      1.0  0.28237  0.49773  0.98463  1.0000
  H   H551      1.0  0.02728  0.59162  0.56505  1.0000
  H   H552      1.0  0.08861  0.60834  0.53800  1.0000
  H   H553      1.0  0.06046  0.63346  0.56637  1.0000
  H   H554      1.0  0.03265  0.54392  0.96517  1.0000
  C   C355      1.0  0.99349  0.53718  0.87483  1.0000
  H   H555      1.0  0.25075  0.55075  0.53729  1.0000
  S   S145      1.0  0.03609  0.52845  0.63297  1.0000
  H   H556      1.0  0.02151  0.72816  0.76647  1.0000
  H   H557      1.0  0.30278  0.66822  0.89517  1.0000
  N   N35       1.0  0.27852  0.53103  0.55865  1.0000
  H   H558      1.0  0.29291  0.49518  0.54906  1.0000
  S   S146      1.0  0.02075  0.53602  0.57556  1.0000
  H   H559      1.0  0.04387  0.61843  0.59241  1.0000
  H   H560      1.0  0.08233  0.57449  0.60011  1.0000
  C   C356      1.0  0.06819  0.51578  0.94194  1.0000
  C   C357      1.0  0.03942  0.49437  0.96992  1.0000
  C   C358      1.0  0.28720  0.50530  0.56567  1.0000
  H   H561      1.0  0.26449  0.56323  0.57664  1.0000
  H   H562      1.0  0.04764  0.51571  0.72515  1.0000
  C   C359      1.0  0.45350  0.66150  0.89178  1.0000
  C   C360      1.0  0.99201  0.72723  0.97307  1.0000
  N   N36       1.0  0.09669  0.72450  0.70075  1.0000
  C   C361      1.0  0.06681  0.57366  0.58848  1.0000
  C   C362      1.0  0.10011  0.72050  0.72746  1.0000
  H   H563      1.0  0.34496  0.53863  0.84263  1.0000
  H   H564      1.0  0.05792  0.73426  0.70640  1.0000
  H   H565      1.0  0.10474  0.59520  0.56410  1.0000
  C   C363      1.0  0.09331  0.70086  0.69116  1.0000
  H   H566      1.0  0.37055  0.69100  0.64732  1.0000
  C   C364      1.0  0.25779  0.53161  0.54294  1.0000
  H   H567      1.0  0.09251  0.57564  0.54451  1.0000
  S   S147      1.0  0.02280  0.68837  0.95675  1.0000
  N   N37       1.0  0.06559  0.59410  0.56893  1.0000
  C   C365      1.0  0.46737  0.65542  0.93285  1.0000
  H   H568      1.0  0.07701  0.69248  0.70080  1.0000
  H   H569      1.0  0.31457  0.54363  0.55604  1.0000
  C   C366      1.0  0.03594  0.50109  0.72425  1.0000
  H   H570      1.0  0.45869  0.66178  0.87157  1.0000
  H   H571      1.0  0.14499  0.50064  0.50788  1.0000
  C   C367      1.0  0.26762  0.51849  0.72018  1.0000
  H   H572      1.0  0.04334  0.60709  0.53900  1.0000
  C   C368      1.0  0.06146  0.61754  0.58051  1.0000
  H   H573      1.0  0.35231  0.62900  0.63856  1.0000
  Fe  Fe79      1.0  0.38649  0.53041  0.94535  1.0000
  S   S148      1.0  0.34994  0.52425  0.93205  1.0000
  H   H574      1.0  0.06937  0.55569  0.58045  1.0000
  H   H575      1.0  0.98981  0.64188  0.62221  1.0000
  H   H576      1.0  0.10956  0.68747  0.69384  1.0000
  C   C369      1.0  0.47573  0.55385  0.93038  1.0000
  C   C370      1.0  0.05654  0.66081  0.90862  1.0000
  C   C371      1.0  0.99397  0.56232  0.87782  1.0000
  C   C372      1.0  0.48487  0.57354  0.94028  1.0000
  H   H577      1.0  0.22426  0.71272  0.79225  1.0000
  H   H578      1.0  0.33565  0.55064  0.79884  1.0000
  S   S149      1.0  0.04089  0.49180  0.77377  1.0000
  H   H579      1.0  0.03547  0.51091  0.90860  1.0000
  S   S150      1.0  0.43003  0.55055  0.48956  1.0000
  H   H580      1.0  0.07387  0.53698  0.49634  1.0000
  H   H581      1.0  0.13529  0.72215  0.68948  1.0000
  H   H582      1.0  0.00246  0.57411  0.86319  1.0000
  H   H583      1.0  0.29810  0.49440  0.84157  1.0000
  C   C373      1.0  0.28240  0.48873  0.96144  1.0000
  H   H584      1.0  0.31995  0.48690  0.81643  1.0000
  H   H585      1.0  0.47398  0.61667  0.90520  1.0000
  H   H586      1.0  0.03478  0.66869  0.85162  1.0000
  C   C374      1.0  0.23682  0.72767  0.79048  1.0000
  H   H587      1.0  0.00157  0.52980  0.85799  1.0000
  C   C375      1.0  0.03366  0.73570  0.95934  1.0000
  H   H588      1.0  0.46397  0.95705  0.10464  1.0000
  Fe  Fe80      1.0  0.39771  0.78345  0.24407  1.0000
  H   H589      1.0  0.35971  0.78503  0.07316  1.0000
  Fe  Fe81      1.0  0.42335  0.83134  0.23492  1.0000
  S   S151      1.0  0.43888  0.82092  0.19745  1.0000
  S   S152      1.0  0.43556  0.86894  0.24097  1.0000
  Fe  Fe82      1.0  0.40231  0.80819  0.19230  1.0000
  S   S153      1.0  0.38739  0.81334  0.15459  1.0000
  Fe  Fe83      1.0  0.44755  0.78367  0.21612  1.0000
  H   H590      1.0  0.47048  0.79306  0.14490  1.0000
  S   S154      1.0  0.38554  0.82163  0.22806  1.0000
  S   S155      1.0  0.43418  0.79435  0.25412  1.0000
  H   H591      1.0  0.13606  0.77802  0.10359  1.0000
  H   H592      1.0  0.47334  0.83474  0.26373  1.0000
  H   H593      1.0  0.17751  0.84421  0.01531  1.0000
  C   C376      1.0  0.45790  0.92716  0.04386  1.0000
  Fe  Fe84      1.0  0.24139  0.74397  0.10925  1.0000
  H   H594      1.0  0.45513  0.94629  0.14964  1.0000
  H   H595      1.0  0.43262  0.83722  0.13954  1.0000
  C   C377      1.0  0.47942  0.81681  0.09970  1.0000
  S   S156      1.0  0.22206  0.77407  0.13019  1.0000
  Fe  Fe85      1.0  0.26249  0.77977  0.06892  1.0000
  S   S157      1.0  0.24530  0.81266  0.08746  1.0000
  S   S158      1.0  0.28736  0.78752  0.03445  1.0000
  Fe  Fe86      1.0  0.25737  0.79183  0.12235  1.0000
  S   S159      1.0  0.27289  0.80602  0.15467  1.0000
  Fe  Fe87      1.0  0.21170  0.79171  0.09313  1.0000
  S   S160      1.0  0.17366  0.81123  0.08901  1.0000
  S   S161      1.0  0.27733  0.76070  0.10342  1.0000
  H   H596      1.0  0.42692  0.98397  0.39129  1.0000
  H   H597      1.0  0.43037  0.91735  0.38357  1.0000
  S   S162      1.0  0.04047  0.83927  0.00965  1.0000
  H   H598      1.0  0.34778  0.81707  0.19308  1.0000
  H   H599      1.0  0.47371  0.95870  0.23600  1.0000
  H   H600      1.0  0.18371  0.82303  0.99196  1.0000
  S   S163      1.0  0.46820  0.90928  0.33840  1.0000
  H   H601      1.0  0.46073  0.96350  0.02592  1.0000
  H   H602      1.0  0.42270  0.96111  0.37058  1.0000
  N   N38       1.0  0.43222  0.94661  0.40692  1.0000
  C   C378      1.0  0.45681  0.91269  0.06634  1.0000
  H   H603      1.0  0.33725  0.78020  0.05244  1.0000
  H   H604      1.0  0.43914  0.79909  0.08629  1.0000
  H   H605      1.0  0.43374  0.96086  0.17131  1.0000
  S   S164      1.0  0.00925  0.90777  0.01528  1.0000
  H   H606      1.0  0.45019  0.85467  0.11606  1.0000
  C   C379      1.0  0.15612  0.81306  0.06291  1.0000
  C   C380      1.0  0.13618  0.83088  0.06103  1.0000
  C   C381      1.0  0.12234  0.83356  0.04016  1.0000
  C   C382      1.0  0.12833  0.81837  0.02094  1.0000
  C   C383      1.0  0.14780  0.80001  0.02322  1.0000
  C   C384      1.0  0.16154  0.79725  0.04414  1.0000
  H   H607      1.0  0.13165  0.84306  0.07557  1.0000
  H   H608      1.0  0.10745  0.84779  0.03866  1.0000
  H   H609      1.0  0.15242  0.78802  0.00854  1.0000
  H   H610      1.0  0.17637  0.78299  0.04564  1.0000
  H   H611      1.0  0.21231  0.79815  0.01945  1.0000
  C   C385      1.0  0.27811  0.77870  0.00671  1.0000
  C   C386      1.0  0.25730  0.76590  0.00665  1.0000
  C   C387      1.0  0.43355  0.96536  0.38575  1.0000
  C   C388      1.0  0.29372  0.74537  0.19054  1.0000
  Fe  Fe88      1.0  0.45717  0.86639  0.02961  1.0000
  C   C389      1.0  0.35569  0.81040  0.15481  1.0000
  C   C390      1.0  0.34028  0.81325  0.17629  1.0000
  C   C391      1.0  0.31492  0.81199  0.17591  1.0000
  C   C392      1.0  0.30484  0.80727  0.15424  1.0000
  C   C393      1.0  0.32028  0.80385  0.13282  1.0000
  C   C394      1.0  0.34565  0.80566  0.13307  1.0000
  H   H612      1.0  0.48108  0.76655  0.25602  1.0000
  H   H613      1.0  0.30302  0.81491  0.19243  1.0000
  H   H614      1.0  0.31261  0.80021  0.11605  1.0000
  H   H615      1.0  0.35755  0.80331  0.11648  1.0000
  C   C395      1.0  0.44421  0.87981  0.26844  1.0000
  C   C396      1.0  0.45563  0.90186  0.26674  1.0000
  C   C397      1.0  0.46331  0.91096  0.28790  1.0000
  C   C398      1.0  0.45935  0.89827  0.31113  1.0000
  C   C399      1.0  0.44791  0.87623  0.31286  1.0000
  C   C400      1.0  0.44050  0.86695  0.29163  1.0000
  H   H616      1.0  0.45863  0.91204  0.24900  1.0000
  H   H617      1.0  0.40483  0.93211  0.43338  1.0000
  C   C401      1.0  0.45065  0.83745  0.12854  1.0000
  H   H618      1.0  0.43165  0.85002  0.29328  1.0000
  N   N39       1.0  0.35506  0.81348  0.04368  1.0000
  H   H619      1.0  0.23744  0.81183  0.03009  1.0000
  H   H620      1.0  0.12502  0.74881  0.10087  1.0000
  S   S165      1.0  0.36960  0.76208  0.26791  1.0000
  S   S166      1.0  0.44377  0.88464  0.99415  1.0000
  H   H621      1.0  0.33546  0.84794  0.05137  1.0000
  N   N40       1.0  0.45555  0.81565  0.11434  1.0000
  S   S167      1.0  0.44558  0.82951  0.02333  1.0000
  C   C402      1.0  0.35539  0.78748  0.05347  1.0000
  H   H622      1.0  0.45274  0.96650  0.37795  1.0000
  C   C403      1.0  0.44767  0.95278  0.42603  1.0000
  S   S168      1.0  0.41230  0.76985  0.20775  1.0000
  H   H623      1.0  0.39445  0.94154  0.40330  1.0000
  H   H624      1.0  0.43826  0.79175  0.14280  1.0000
  H   H625      1.0  0.46720  0.95326  0.41875  1.0000
  H   H626      1.0  0.46056  0.92200  0.39074  1.0000
  N   N41       1.0  0.21585  0.83548  0.00514  1.0000
  H   H627      1.0  0.42659  0.90117  0.14739  1.0000
  C   C404      1.0  0.15858  0.76553  0.14522  1.0000
  H   H628      1.0  0.45631  0.91909  0.02682  1.0000
  H   H629      1.0  0.33077  0.80939  0.01574  1.0000
  H   H630      1.0  0.17842  0.75881  0.09918  1.0000
  C   C405      1.0  0.46047  0.95237  0.04336  1.0000
  N   N42       1.0  0.30760  0.73782  0.21246  1.0000
  C   C406      1.0  0.19005  0.83961  0.99890  1.0000
  C   C407      1.0  0.32277  0.75762  0.21687  1.0000
  H   H631      1.0  0.14310  0.77093  0.15870  1.0000
  H   H632      1.0  0.11453  0.76584  0.12698  1.0000
  H   H633      1.0  0.44472  0.86628  0.33074  1.0000
  C   C408      1.0  0.40654  0.94607  0.41733  1.0000
  S   S169      1.0  0.22817  0.75988  0.07260  1.0000
  H   H634      1.0  0.39387  0.81168  0.03396  1.0000
  H   H635      1.0  0.41209  0.90327  0.20324  1.0000
  H   H636      1.0  0.34034  0.82706  0.07818  1.0000
  H   H637      1.0  0.24738  0.76025  0.02379  1.0000
  N   N43       1.0  0.43675  0.92144  0.17629  1.0000
  C   C409      1.0  0.41280  0.92050  0.19078  1.0000
  C   C410      1.0  0.44081  0.90047  0.16089  1.0000
  C   C411      1.0  0.45643  0.92012  0.19333  1.0000
  C   C412      1.0  0.43702  0.94465  0.16025  1.0000
  H   H638      1.0  0.47206  0.92795  0.28627  1.0000
  C   C413      1.0  0.45904  0.92353  0.08830  1.0000
  C   C414      1.0  0.21817  0.81552  0.02508  1.0000
  H   H639      1.0  0.45340  0.93512  0.20592  1.0000
  H   H640      1.0  0.44018  0.90760  0.41389  1.0000
  S   S170      1.0  0.11372  0.82292  0.99287  1.0000
  H   H641      1.0  0.44181  0.97128  0.43232  1.0000
  C   C415      1.0  0.45610  0.79324  0.13161  1.0000
  H   H642      1.0  0.44015  0.88272  0.17250  1.0000
  H   H643      1.0  0.47469  0.92199  0.18311  1.0000
  H   H644      1.0  0.45745  0.90247  0.20501  1.0000
  H   H645      1.0  0.20678  0.82018  0.04217  1.0000
  H   H646      1.0  0.37989  0.84189  0.03742  1.0000
  H   H647      1.0  0.21196  0.86373  0.03028  1.0000
  S   S171      1.0  0.45233  0.88119  0.06728  1.0000
  H   H648      1.0  0.40923  0.93604  0.20269  1.0000
  H   H649      1.0  0.43499  0.83200  0.08435  1.0000
  H   H650      1.0  0.45901  0.90037  0.15022  1.0000
  C   C416      1.0  0.17234  0.74224  0.11041  1.0000
  C   C417      1.0  0.46259  0.96324  0.06526  1.0000
  H   H651      1.0  0.17402  0.75703  0.15591  1.0000
  C   C418      1.0  0.46217  0.94872  0.08775  1.0000
  H   H652      1.0  0.41769  0.81431  0.10790  1.0000
  C   C419      1.0  0.33635  0.82825  0.05840  1.0000
  H   H653      1.0  0.31132  0.77492  0.22021  1.0000
  H   H654      1.0  0.36927  0.77581  0.04273  1.0000
  C   C420      1.0  0.34905  0.81578  0.01763  1.0000
  S   S172      1.0  0.47665  0.98123  0.33206  1.0000
  C   C421      1.0  0.37944  0.82241  0.04508  1.0000
  H   H655      1.0  0.16466  0.78274  0.13511  1.0000
  C   C422      1.0  0.22360  0.85813  0.01363  1.0000
  H   H656      1.0  0.31776  0.82183  0.05774  1.0000
  H   H657      1.0  0.34892  0.83514  0.00956  1.0000
  H   H658      1.0  0.30616  0.74956  0.17376  1.0000
  H   H659      1.0  0.39748  0.92136  0.17855  1.0000
  H   H660      1.0  0.36275  0.80478  0.00598  1.0000
  H   H661      1.0  0.45992  0.77640  0.12160  1.0000
  H   H662      1.0  0.38467  0.82115  0.06445  1.0000
  H   H663      1.0  0.45843  0.91242  0.10567  1.0000
  H   H664      1.0  0.28128  0.76225  0.19324  1.0000
  H   H665      1.0  0.39928  0.96417  0.42378  1.0000
  Fe  Fe89      1.0  0.02972  0.87774  0.99359  1.0000
  N   N44       1.0  0.15130  0.74868  0.12805  1.0000
  H   H666      1.0  0.24294  0.85554  0.01872  1.0000
  H   H667      1.0  0.22222  0.87365  0.99907  1.0000
  H   H668      1.0  0.42281  0.94617  0.14670  1.0000
  H   H669      1.0  0.47960  0.83365  0.08662  1.0000
  H   H670      1.0  0.44703  0.93920  0.44245  1.0000
  H   H671      1.0  0.33615  0.76168  0.20082  1.0000
  S   S173      1.0  0.48184  0.97468  0.18438  1.0000
  S   S174      1.0  0.48418  0.76594  0.20277  1.0000
  C   C423      1.0  0.44115  0.92233  0.39851  1.0000
  C   C424      1.0  0.13080  0.76079  0.11431  1.0000
  C   C425      1.0  0.43596  0.81520  0.09746  1.0000
  H   H672      1.0  0.27795  0.74962  0.23819  1.0000
  Fe  Fe90      1.0  0.48284  0.82282  0.00386  1.0000
  H   H673      1.0  0.46497  0.83827  0.14162  1.0000
  H   H674      1.0  0.33344  0.75265  0.23332  1.0000
  H   H675      1.0  0.48357  0.80081  0.08846  1.0000
  C   C426      1.0  0.48727  0.97194  0.23406  1.0000
  H   H676      1.0  0.22636  0.81145  0.97634  1.0000
  Fe  Fe91      1.0  0.08868  0.78723  0.75484  1.0000
  S   S175      1.0  0.10013  0.80325  0.71661  1.0000
  C   C427      1.0  0.11725  0.80487  0.87564  1.0000
  Fe  Fe92      1.0  0.12814  0.81107  0.77879  1.0000
  S   S176      1.0  0.14212  0.82924  0.74252  1.0000
  S   S177      1.0  0.14461  0.81171  0.81546  1.0000
  Fe  Fe93      1.0  0.10233  0.83795  0.73510  1.0000
  S   S178      1.0  0.08822  0.87714  0.72289  1.0000
  Fe  Fe94      1.0  0.13856  0.79297  0.72775  1.0000
  S   S179      1.0  0.08850  0.82234  0.77291  1.0000
  H   H677      1.0  0.12583  0.92246  0.58959  1.0000
  C   C428      1.0  0.06425  0.92741  0.58541  1.0000
  H   H678      1.0  0.08722  0.96171  0.76810  1.0000
  H   H679      1.0  0.04319  0.79337  0.72385  1.0000
  H   H680      1.0  0.30739  0.79522  0.98405  1.0000
  S   S180      1.0  0.31314  0.75006  0.89564  1.0000
  C   C429      1.0  0.05599  0.94108  0.80282  1.0000
  C   C430      1.0  0.04610  0.96931  0.88987  1.0000
  S   S181      1.0  0.02100  0.90624  0.63335  1.0000
  H   H681      1.0  0.04844  0.91537  0.74982  1.0000
  S   S182      1.0  0.99729  0.79938  0.98001  1.0000
  Fe  Fe95      1.0  0.00651  0.94537  0.62235  1.0000
  S   S183      1.0  0.39580  0.83985  0.97788  1.0000
  S   S184      1.0  0.12691  0.77446  0.76448  1.0000
  H   H682      1.0  0.04033  0.95539  0.80188  1.0000
  Fe  Fe96      1.0  0.27835  0.79390  0.84803  1.0000
  H   H683      1.0  0.10338  0.93271  0.62932  1.0000
  S   S185      1.0  0.25965  0.81647  0.81724  1.0000
  Fe  Fe97      1.0  0.32414  0.78592  0.87693  1.0000
  C   C431      1.0  0.04309  0.92223  0.76830  1.0000
  S   S186      1.0  0.36096  0.80060  0.88080  1.0000
  H   H684      1.0  0.24735  0.77446  0.78114  1.0000
  Fe  Fe98      1.0  0.27574  0.76971  0.90025  1.0000
  H   H685      1.0  0.20929  0.74426  0.68248  1.0000
  S   S187      1.0  0.31616  0.77613  0.83918  1.0000
  S   S188      1.0  0.28720  0.80647  0.88422  1.0000
  S   S189      1.0  0.05183  0.88517  0.90230  1.0000
  C   C432      1.0  0.26209  0.76731  0.96186  1.0000
  C   C433      1.0  0.28321  0.77968  0.96181  1.0000
  H   H686      1.0  0.29329  0.78501  0.94451  1.0000
  H   H687      1.0  0.17769  0.79796  0.85347  1.0000
  C   C434      1.0  0.38667  0.82866  0.95073  1.0000
  C   C435      1.0  0.40320  0.82424  0.93034  1.0000
  C   C436      1.0  0.39507  0.81555  0.90914  1.0000
  C   C437      1.0  0.37046  0.81079  0.90821  1.0000
  C   C438      1.0  0.35392  0.81512  0.92861  1.0000
  C   C439      1.0  0.36196  0.82420  0.94963  1.0000
  H   H688      1.0  0.42223  0.82764  0.93084  1.0000
  H   H689      1.0  0.40801  0.81233  0.89343  1.0000
  H   H690      1.0  0.33491  0.81168  0.92815  1.0000
  H   H691      1.0  0.34887  0.82786  0.96503  1.0000
  S   S190      1.0  0.26348  0.75930  0.86481  1.0000
  C   C440      1.0  0.99424  0.76060  0.71847  1.0000
  C   C441      1.0  0.17685  0.81161  0.81516  1.0000
  S   S191      1.0  0.06109  0.82831  0.95270  1.0000
  C   C442      1.0  0.21385  0.80512  0.83759  1.0000
  C   C443      1.0  0.22791  0.81377  0.81652  1.0000
  C   C444      1.0  0.21643  0.82085  0.79463  1.0000
  C   C445      1.0  0.19105  0.81952  0.79386  1.0000
  H   H692      1.0  0.12214  0.75241  0.69495  1.0000
  H   H693      1.0  0.08841  0.86146  0.86309  1.0000
  H   H694      1.0  0.22715  0.82763  0.77827  1.0000
  H   H695      1.0  0.18238  0.82537  0.77700  1.0000
  C   C446      1.0  0.06906  0.88474  0.69830  1.0000
  C   C447      1.0  0.06017  0.90932  0.69311  1.0000
  C   C448      1.0  0.04498  0.91611  0.67364  1.0000
  C   C449      1.0  0.03882  0.89838  0.65894  1.0000
  C   C450      1.0  0.04774  0.87383  0.66409  1.0000
  C   C451      1.0  0.06271  0.86700  0.68374  1.0000
  H   H696      1.0  0.06504  0.92320  0.70419  1.0000
  H   H697      1.0  0.03813  0.93506  0.66997  1.0000
  H   H698      1.0  0.04305  0.86000  0.65283  1.0000
  H   H699      1.0  0.06941  0.84804  0.68755  1.0000
  S   S192      1.0  0.01245  0.86554  0.96172  1.0000
  H   H700      1.0  0.04998  0.92584  0.81613  1.0000
  H   H701      1.0  0.06109  0.90774  0.59006  1.0000
  H   H702      1.0  0.04252  0.77299  0.96115  1.0000
  H   H703      1.0  0.07169  0.74549  0.67695  1.0000
  C   C452      1.0  0.03993  0.95517  0.87160  1.0000
  C   C453      1.0  0.04162  0.92939  0.87563  1.0000
  C   C454      1.0  0.04899  0.91761  0.89809  1.0000
  C   C455      1.0  0.05469  0.93181  0.91649  1.0000
  C   C456      1.0  0.05353  0.95750  0.91227  1.0000
  H   H704      1.0  0.03417  0.96407  0.85428  1.0000
  H   H705      1.0  0.03698  0.91854  0.86141  1.0000
  H   H706      1.0  0.06055  0.92301  0.93379  1.0000
  H   H707      1.0  0.05845  0.96828  0.92645  1.0000
  Fe  Fe99      1.0  0.04955  0.86792  0.94182  1.0000
  H   H708      1.0  0.10786  0.96510  0.59423  1.0000
  C   C457      1.0  0.03077  0.77909  0.72772  1.0000
  C   C458      1.0  0.01061  0.77892  0.71351  1.0000
  N   N45       1.0  0.32985  0.86359  0.84637  1.0000
  C   C459      1.0  0.35680  0.86420  0.84457  1.0000
  C   C460      1.0  0.32343  0.84234  0.83422  1.0000
  C   C461      1.0  0.31856  0.88638  0.83400  1.0000
  C   C462      1.0  0.32059  0.86138  0.87269  1.0000
  H   H709      1.0  0.36236  0.87997  0.85357  1.0000
  H   H710      1.0  0.36451  0.86559  0.82499  1.0000
  H   H711      1.0  0.36583  0.84725  0.85386  1.0000
  H   H712      1.0  0.32981  0.84350  0.81425  1.0000
  H   H713      1.0  0.33209  0.82491  0.84279  1.0000
  H   H714      1.0  0.30325  0.84091  0.83558  1.0000
  H   H715      1.0  0.29823  0.88631  0.83487  1.0000
  H   H716      1.0  0.32524  0.88867  0.81412  1.0000
  H   H717      1.0  0.32285  0.90282  0.84279  1.0000
  H   H718      1.0  0.30031  0.86086  0.87479  1.0000
  H   H719      1.0  0.32534  0.87695  0.88252  1.0000
  H   H720      1.0  0.32866  0.84428  0.88253  1.0000
  N   N46       1.0  0.10051  0.82660  0.88120  1.0000
  H   H721      1.0  0.47789  0.74139  0.95224  1.0000
  C   C463      1.0  0.10864  0.83757  0.90257  1.0000
  H   H722      1.0  0.09114  0.90694  0.76208  1.0000
  C   C464      1.0  0.07536  0.81915  0.88708  1.0000
  H   H723      1.0  0.47896  0.77894  0.97404  1.0000
  S   S193      1.0  0.99949  0.95520  0.58230  1.0000
  H   H724      1.0  0.06224  0.83510  0.89152  1.0000
  Fe  Fe100     1.0  0.30171  0.74220  0.85873  1.0000
  S   S194      1.0  0.25108  0.76073  0.93420  1.0000
  H   H725      1.0  0.06398  0.93152  0.56505  1.0000
  H   H726      1.0  0.07655  0.75949  0.70442  1.0000
  S   S195      1.0  0.47151  0.83783  0.96639  1.0000
  H   H727      1.0  0.11178  0.79624  0.85947  1.0000
  H   H728      1.0  0.07440  0.80537  0.90334  1.0000
  H   H729      1.0  0.00099  0.97657  0.68777  1.0000
  H   H730      1.0  0.08335  0.90894  0.62744  1.0000
  N   N47       1.0  0.06381  0.93251  0.77819  1.0000
  C   C465      1.0  0.00478  0.98234  0.72590  1.0000
  H   H731      1.0  0.04826  0.93817  0.59406  1.0000
  S   S196      1.0  0.06088  0.75919  0.76380  1.0000
  C   C466      1.0  0.08443  0.91340  0.78042  1.0000
  H   H732      1.0  0.20371  0.76605  0.78115  1.0000
  H   H733      1.0  0.00631  0.95529  0.93512  1.0000
  H   H734      1.0  0.01160  0.96358  0.73060  1.0000
  C   C467      1.0  0.20912  0.75419  0.76573  1.0000
  H   H735      1.0  0.06861  0.81101  0.87125  1.0000
  H   H736      1.0  0.07078  0.93969  0.63082  1.0000
  H   H737      1.0  0.11963  0.85062  0.85434  1.0000
  H   H738      1.0  0.12747  0.84358  0.89864  1.0000
  H   H739      1.0  0.10875  0.82435  0.91932  1.0000
  H   H740      1.0  0.10611  0.89844  0.58793  1.0000
  H   H741      1.0  0.07104  0.94928  0.81076  1.0000
  H   H742      1.0  0.09633  0.85396  0.90738  1.0000
  H   H743      1.0  0.09495  0.83705  0.84295  1.0000
  H   H744      1.0  0.07777  0.94743  0.74244  1.0000
  Fe  Fe101     1.0  0.43455  0.84702  0.98633  1.0000
  H   H745      1.0  0.13635  0.80991  0.87092  1.0000
  H   H746      1.0  0.11752  0.79076  0.89163  1.0000
  C   C468      1.0  0.29119  0.78541  0.98423  1.0000
  Fe  Fe102     1.0  0.02551  0.82742  0.97592  1.0000
  H   H747      1.0  0.07524  0.97175  0.59593  1.0000
  C   C469      1.0  0.00487  0.76854  0.97370  1.0000
  C   C470      1.0  0.10809  0.91833  0.58314  1.0000
  H   H748      1.0  0.22244  0.79975  0.85460  1.0000
  H   H749      1.0  0.10022  0.92037  0.78828  1.0000
  H   H750      1.0  0.20675  0.76583  0.74809  1.0000
  H   H751      1.0  0.07890  0.89708  0.79249  1.0000
  N   N48       1.0  0.23458  0.74305  0.76693  1.0000
  H   H752      1.0  0.23032  0.84319  0.96754  1.0000
  C   C471      1.0  0.08625  0.92850  0.62168  1.0000
  C   C472      1.0  0.03484  0.76071  0.74678  1.0000
  C   C473      1.0  0.01847  0.74241  0.75173  1.0000
  N   N49       1.0  0.08733  0.93351  0.59450  1.0000
  H   H753      1.0  0.10932  0.92161  0.56262  1.0000
  H   H754      1.0  0.00764  0.79310  0.69869  1.0000
  C   C474      1.0  0.10085  0.84478  0.85946  1.0000
  C   C475      1.0  0.07175  0.95331  0.76117  1.0000
  C   C476      1.0  0.09063  0.95974  0.58773  1.0000
  S   S197      1.0  0.02797  0.97759  0.62570  1.0000
  C   C477      1.0  0.18840  0.80426  0.83695  1.0000
  H   H755      1.0  0.09112  0.96427  0.56735  1.0000
  S   S198      1.0  0.16962  0.77515  0.70383  1.0000
  C   C478      1.0  0.02840  0.76035  0.96441  1.0000
  C   C479      1.0  0.99816  0.74239  0.73770  1.0000
  S   S199      1.0  0.06674  0.88195  0.97299  1.0000
  C   C480      1.0  0.07478  0.74166  0.69688  1.0000
  C   C481      1.0  0.98994  0.95876  0.94817  1.0000
  H   H756      1.0  0.03650  0.90656  0.78069  1.0000
  H   H757      1.0  0.18746  0.85492  0.98428  1.0000
  Fe  Fe103     1.0  0.48193  0.87378  0.97780  1.0000
  H   H758      1.0  0.05658  0.96803  0.75893  1.0000
  C   C482      1.0  0.25150  0.76264  0.76549  1.0000
  H   H759      1.0  0.19583  0.73995  0.76679  1.0000
  H   H760      1.0  0.25018  0.77473  0.74804  1.0000
  H   H761      1.0  0.02727  0.93627  0.76627  1.0000
  H   H762      1.0  0.27088  0.75488  0.76622  1.0000
  C   C483      1.0  0.24922  0.76033  0.98429  1.0000
  H   H763      1.0  0.23295  0.75062  0.98438  1.0000
  H   H764      1.0  0.99599  0.95531  0.96727  1.0000
  C   C484      1.0  0.23162  0.82862  0.98306  1.0000
  C   C485      1.0  0.17843  0.74362  0.70967  1.0000
  Fe  Fe104     1.0  0.07587  0.84214  0.98582  1.0000
  H   H765      1.0  0.11630  0.73898  0.66748  1.0000
  H   H766      1.0  0.23239  0.73872  0.80666  1.0000
  H   H767      1.0  0.25122  0.82534  0.98715  1.0000
  H   H768      1.0  0.10343  0.73786  0.73515  1.0000
  H   H769      1.0  0.14940  0.73677  0.73773  1.0000
  H   H770      1.0  0.23931  0.73858  0.72794  1.0000
  H   H771      1.0  0.31395  0.73631  0.80330  1.0000
  H   H772      1.0  0.98746  0.98572  0.90432  1.0000
  Fe  Fe105     1.0  0.87614  0.04703  0.42344  1.0000
  S   S200      1.0  0.89232  0.08369  0.41794  1.0000
  Fe  Fe106     1.0  0.78690  0.08676  0.23091  1.0000
  S   S201      1.0  0.81788  0.10487  0.20917  1.0000
  S   S202      1.0  0.79635  0.05067  0.25279  1.0000
  Fe  Fe107     1.0  0.74968  0.12967  0.21900  1.0000
  S   S203      1.0  0.77737  0.15060  0.19559  1.0000
  S   S204      1.0  0.71118  0.14534  0.22985  1.0000
  Fe  Fe108     1.0  0.79106  0.11464  0.18030  1.0000
  S   S205      1.0  0.80394  0.11554  0.13930  1.0000
  Fe  Fe109     1.0  0.80192  0.13909  0.22609  1.0000
  S   S206      1.0  0.82335  0.16870  0.23767  1.0000
  S   S207      1.0  0.76070  0.09445  0.20102  1.0000
  S   S208      1.0  0.77346  0.12020  0.25054  1.0000
  H   H773      1.0  0.49841  0.05181  0.20700  1.0000
  Fe  Fe110     1.0  0.85984  0.01964  0.04305  1.0000
  Fe  Fe111     1.0  0.85560  0.00339  0.40261  1.0000
  S   S209      1.0  0.84833  0.02209  0.08408  1.0000
  H   H774      1.0  0.96869  0.11966  0.42930  1.0000
  S   S210      1.0  0.83957  0.04130  0.41035  1.0000
  H   H775      1.0  0.73791  0.01358  0.31272  1.0000
  S   S211      1.0  0.89803  0.00803  0.02713  1.0000
  H   H776      1.0  0.95287  0.04351  0.46689  1.0000
  H   H777      1.0  0.60288  0.02074  0.07836  1.0000
  C   C486      1.0  0.93277  0.20716  0.37726  1.0000
  Fe  Fe112     1.0  0.51787  0.03318  0.11513  1.0000
  S   S212      1.0  0.55767  0.03801  0.10390  1.0000
  H   H778      1.0  0.75478  0.04472  0.09631  1.0000
  S   S213      1.0  0.50659  0.20925  0.44219  1.0000
  H   H779      1.0  0.51087  0.00719  0.44334  1.0000
  C   C487      1.0  0.82226  0.10257  0.43373  1.0000
  H   H780      1.0  0.85976  0.12378  0.13471  1.0000
  C   C488      1.0  0.76969  0.02369  0.46422  1.0000
  H   H781      1.0  0.57603  0.00144  0.45844  1.0000
  H   H782      1.0  0.73483  0.03073  0.06138  1.0000
  C   C489      1.0  0.82325  0.17046  0.26988  1.0000
  C   C490      1.0  0.82833  0.19236  0.27899  1.0000
  C   C491      1.0  0.82877  0.19397  0.30457  1.0000
  C   C492      1.0  0.82473  0.17349  0.32114  1.0000
  C   C493      1.0  0.81962  0.15162  0.31201  1.0000
  C   C494      1.0  0.81860  0.15019  0.28650  1.0000
  H   H783      1.0  0.83204  0.20809  0.26625  1.0000
  C   C495      1.0  0.53914  0.10125  0.48022  1.0000
  H   H784      1.0  0.81656  0.13567  0.32467  1.0000
  H   H785      1.0  0.81491  0.13315  0.27966  1.0000
  C   C496      1.0  0.70493  0.17747  0.22765  1.0000
  C   C497      1.0  0.71788  0.19265  0.21017  1.0000
  C   C498      1.0  0.60802  0.20569  0.19119  1.0000
  H   H786      1.0  0.81018  0.04558  0.05197  1.0000
  H   H787      1.0  0.53018  0.01069  0.01369  1.0000
  C   C499      1.0  0.68588  0.18795  0.24310  1.0000
  H   H788      1.0  0.73239  0.18475  0.19797  1.0000
  H   H789      1.0  0.51810  0.05108  0.43116  1.0000
  Fe  Fe113     1.0  0.83743  0.01801  0.99428  1.0000
  H   H790      1.0  0.67591  0.17632  0.25678  1.0000
  C   C500      1.0  0.81655  0.08942  0.12432  1.0000
  C   C501      1.0  0.82418  0.09212  0.09898  1.0000
  C   C502      1.0  0.83434  0.07181  0.08642  1.0000
  C   C503      1.0  0.83691  0.04855  0.09913  1.0000
  C   C504      1.0  0.82932  0.04588  0.12447  1.0000
  C   C505      1.0  0.81921  0.06619  0.13703  1.0000
  H   H791      1.0  0.82224  0.11005  0.08900  1.0000
  H   H792      1.0  0.84022  0.07419  0.06696  1.0000
  H   H793      1.0  0.83122  0.02797  0.13447  1.0000
  H   H794      1.0  0.81343  0.06383  0.15653  1.0000
  C   C506      1.0  0.75814  0.00454  0.22011  1.0000
  C   C507      1.0  0.76758  0.02588  0.22624  1.0000
  C   C508      1.0  0.78574  0.02424  0.24290  1.0000
  C   C509      1.0  0.79473  0.00114  0.25303  1.0000
  S   S214      1.0  0.85258  0.04830  0.01177  1.0000
  H   H795      1.0  0.74391  0.00593  0.20737  1.0000
  H   H796      1.0  0.76042  0.04356  0.21844  1.0000
  H   H797      1.0  0.80932  0.99973  0.26527  1.0000
  C   C510      1.0  0.92433  0.08270  0.41952  1.0000
  C   C511      1.0  0.93502  0.10381  0.42438  1.0000
  C   C512      1.0  0.96055  0.10340  0.42546  1.0000
  C   C513      1.0  0.56683  0.02033  0.45804  1.0000
  C   C514      1.0  0.96483  0.06099  0.41614  1.0000
  C   C515      1.0  0.93931  0.06124  0.41561  1.0000
  H   H798      1.0  0.92351  0.12042  0.42748  1.0000
  H   H799      1.0  0.52787  0.05367  0.46139  1.0000
  H   H800      1.0  0.93132  0.04498  0.41158  1.0000
  C   C516      1.0  0.58271  0.03837  0.02151  1.0000
  C   C517      1.0  0.55893  0.04779  0.02899  1.0000
  C   C518      1.0  0.55080  0.04700  0.05421  1.0000
  C   C519      1.0  0.56670  0.03749  0.07211  1.0000
  C   C520      1.0  0.59049  0.02807  0.06459  1.0000
  C   C521      1.0  0.59835  0.02815  0.03935  1.0000
  H   H801      1.0  0.54675  0.05578  0.01529  1.0000
  H   H802      1.0  0.53251  0.05450  0.05983  1.0000
  H   H803      1.0  0.97792  0.07426  0.48071  1.0000
  H   H804      1.0  0.93238  0.19478  0.36229  1.0000
  H   H805      1.0  0.78835  0.99829  0.43969  1.0000
  H   H806      1.0  0.53528  0.02005  0.22739  1.0000
  H   H807      1.0  0.49896  0.08443  0.25012  1.0000
  H   H808      1.0  0.53395  0.21775  0.28073  1.0000
  H   H809      1.0  0.78665  0.04993  0.09278  1.0000
  N   N50       1.0  0.82355  0.12132  0.41247  1.0000
  H   H810      1.0  0.59325  0.18159  0.23434  1.0000
  C   C522      1.0  0.74708  0.03161  0.47606  1.0000
  H   H811      1.0  0.74361  0.05783  0.04294  1.0000
  H   H812      1.0  0.94854  0.21853  0.37253  1.0000
  S   S215      1.0  0.49262  0.14222  0.44577  1.0000
  H   H813      1.0  0.61872  0.18768  0.19475  1.0000
  H   H814      1.0  0.95068  0.22214  0.41680  1.0000
  H   H815      1.0  0.74739  0.03902  0.34546  1.0000
  C   C523      1.0  0.53422  0.04842  0.44249  1.0000
  H   H816      1.0  0.56164  0.99730  0.41767  1.0000
  S   S216      1.0  0.52980  0.99575  0.34847  1.0000
  H   H817      1.0  0.80300  0.02789  0.30288  1.0000
  N   N51       1.0  0.77301  0.03688  0.06100  1.0000
  H   H818      1.0  0.75180  0.02822  0.03204  1.0000
  C   C524      1.0  0.79241  0.04670  0.04341  1.0000
  C   C525      1.0  0.78032  0.01099  0.06889  1.0000
  C   C526      1.0  0.76964  0.05128  0.08284  1.0000
  H   H819      1.0  0.56690  0.02869  0.40865  1.0000
  C   C527      1.0  0.76935  0.99321  0.34559  1.0000
  C   C528      1.0  0.86508  0.12357  0.15402  1.0000
  C   C529      1.0  0.51331  0.99712  0.25284  1.0000
  H   H820      1.0  0.93732  0.20055  0.43935  1.0000
  C   C530      1.0  0.95747  0.17666  0.40118  1.0000
  H   H821      1.0  0.49192  0.18211  0.34934  1.0000
  H   H822      1.0  0.52052  0.01070  0.47350  1.0000
  C   C531      1.0  0.52181  0.00668  0.22930  1.0000
  H   H823      1.0  0.76620  0.00294  0.08228  1.0000
  C   C532      1.0  0.79932  0.01260  0.31722  1.0000
  C   C533      1.0  0.72595  0.01996  0.47315  1.0000
  Fe  Fe114     1.0  0.66735  0.99122  0.48140  1.0000
  H   H824      1.0  0.48897  0.13652  0.18417  1.0000
  H   H825      1.0  0.85747  0.13632  0.20091  1.0000
  C   C534      1.0  0.67964  0.21337  0.24096  1.0000
  H   H826      1.0  0.78504  0.12246  0.40756  1.0000
  H   H827      1.0  0.83289  0.21087  0.31141  1.0000
  S   S217      1.0  0.83467  0.21572  0.40585  1.0000
  H   H828      1.0  0.77843  0.03893  0.35358  1.0000
  H   H829      1.0  0.72595  0.20328  0.30442  1.0000
  C   C535      1.0  0.62053  0.22010  0.22821  1.0000
  H   H830      1.0  0.83220  0.12289  0.37313  1.0000
  H   H831      1.0  0.76979  0.05326  0.32422  1.0000
  C   C536      1.0  0.72738  0.00019  0.45855  1.0000
  C   C537      1.0  0.74987  0.99271  0.44615  1.0000
  H   H832      1.0  0.85250  0.11167  0.16563  1.0000
  H   H833      1.0  0.63150  0.20245  0.23260  1.0000
  H   H834      1.0  0.84036  0.09205  0.43594  1.0000
  C   C538      1.0  0.91329  0.17856  0.40726  1.0000
  S   S218      1.0  0.84271  0.98995  0.02629  1.0000
  H   H835      1.0  0.79316  0.14456  0.42715  1.0000
  N   N52       1.0  0.54533  0.02286  0.44317  1.0000
  C   C539      1.0  0.93509  0.21042  0.42081  1.0000
  H   H836      1.0  0.78772  0.06623  0.03703  1.0000
  C   C540      1.0  0.75769  0.01256  0.30624  1.0000
  N   N53       1.0  0.74931  0.22546  0.27983  1.0000
  H   H837      1.0  0.91252  0.16519  0.39324  1.0000
  C   C541      1.0  0.76419  0.23112  0.29964  1.0000
  H   H838      1.0  0.75280  0.23337  0.31732  1.0000
  H   H839      1.0  0.55652  0.18204  0.46202  1.0000
  H   H840      1.0  0.88892  0.13912  0.19016  1.0000
  H   H841      1.0  0.76034  0.02786  0.29163  1.0000
  H   H842      1.0  0.87551  0.16492  0.12665  1.0000
  H   H843      1.0  0.91406  0.16800  0.42564  1.0000
  S   S219      1.0  0.78373  0.22691  0.37842  1.0000
  H   H844      1.0  0.61677  0.02095  0.03380  1.0000
  H   H845      1.0  0.83548  0.17835  0.16759  1.0000
  H   H846      1.0  0.89944  0.15584  0.14695  1.0000
  H   H847      1.0  0.95606  0.01230  0.47982  1.0000
  C   C542      1.0  0.84171  0.13858  0.41626  1.0000
  C   C543      1.0  0.55312  0.01648  0.41775  1.0000
  H   H848      1.0  0.86835  0.16597  0.19519  1.0000
  Fe  Fe115     1.0  0.88896  0.03387  0.99407  1.0000
  H   H849      1.0  0.50431  0.05183  0.25087  1.0000
  S   S220      1.0  0.63140  0.00228  0.46529  1.0000
  H   H850      1.0  0.62028  0.21782  0.17939  1.0000
  H   H851      1.0  0.80472  0.99518  0.30860  1.0000
  H   H852      1.0  0.77988  0.20787  0.25892  1.0000
  C   C544      1.0  0.56384  0.09292  0.47527  1.0000
  H   H853      1.0  0.53729  0.01802  0.40604  1.0000
  H   H854      1.0  0.83658  0.14819  0.43328  1.0000
  H   H855      1.0  0.54760  0.06158  0.43448  1.0000
  C   C545      1.0  0.83788  0.15971  0.16087  1.0000
  C   C546      1.0  0.79924  0.13492  0.41031  1.0000
  C   C547      1.0  0.86990  0.14743  0.18820  1.0000
  H   H856      1.0  0.79957  0.14910  0.39432  1.0000
  H   H857      1.0  0.53106  0.11618  0.46865  1.0000
  C   C548      1.0  0.76692  0.03733  0.33804  1.0000
  H   H858      1.0  0.82482  0.14841  0.17238  1.0000
  S   S221      1.0  0.77712  0.22112  0.44998  1.0000
  H   H859      1.0  0.75238  0.18667  0.29019  1.0000
  C   C549      1.0  0.58327  0.19976  0.22974  1.0000
  H   H860      1.0  0.81172  0.01352  0.33219  1.0000
  H   H861      1.0  0.77899  0.21634  0.30332  1.0000
  C   C550      1.0  0.71118  0.21801  0.20759  1.0000
  H   H862      1.0  0.83212  0.16100  0.14165  1.0000
  H   H863      1.0  0.86027  0.12889  0.41799  1.0000
  C   C551      1.0  0.88009  0.16370  0.14627  1.0000
  C   C552      1.0  0.51275  0.99921  0.20819  1.0000
  S   S222      1.0  0.60636  0.06492  0.48398  1.0000
  H   H864      1.0  0.80885  0.08907  0.43149  1.0000
  S   S223      1.0  0.89317  0.01085  0.41213  1.0000
  S   S224      1.0  0.52235  0.00926  0.27890  1.0000
  S   S225      1.0  0.82681  0.17430  0.35319  1.0000
  H   H865      1.0  0.81661  0.11098  0.45135  1.0000
  C   C553      1.0  0.52711  0.00615  0.45444  1.0000
  N   N54       1.0  0.86326  0.14858  0.16235  1.0000
  H   H866      1.0  0.79794  0.00916  0.07789  1.0000
  Fe  Fe116     1.0  0.83130  0.02446  0.44884  1.0000
  S   S226      1.0  0.86667  0.03304  0.46260  1.0000
  H   H867      1.0  0.87904  0.18271  0.15199  1.0000
  H   H868      1.0  0.97635  0.04446  0.41259  1.0000
  H   H869      1.0  0.53087  0.16419  0.46860  1.0000
  H   H870      1.0  0.84323  0.15283  0.40043  1.0000
  H   H871      1.0  0.56132  0.14961  0.47056  1.0000
  H   H872      1.0  0.97397  0.18712  0.39683  1.0000
  H   H873      1.0  0.79544  0.03623  0.02672  1.0000
  C   C554      1.0  0.83104  0.10925  0.38954  1.0000
  C   C555      1.0  0.74979  0.03850  0.04885  1.0000
  H   H874      1.0  0.84942  0.09899  0.39047  1.0000
  S   S227      1.0  0.79612  0.03744  0.46973  1.0000
  C   C556      1.0  0.54939  0.16654  0.47433  1.0000
  H   H875      1.0  0.57453  0.10152  0.45981  1.0000
  H   H876      1.0  0.81785  0.09601  0.38609  1.0000
  C   C557      1.0  0.77101  0.00443  0.44897  1.0000
  H   H877      1.0  0.78300  0.99961  0.05286  1.0000
  H   H878      1.0  0.88396  0.11451  0.15478  1.0000
  S   S228      1.0  0.49928  0.03996  0.15271  1.0000
  C   C558      1.0  0.73292  0.99018  0.99789  1.0000
  H   H879      1.0  0.95976  0.16627  0.41949  1.0000
  H   H880      1.0  0.49162  0.22872  0.26844  1.0000
  H   H881      1.0  0.89579  0.19054  0.40747  1.0000
  H   H882      1.0  0.76493  0.07108  0.07755  1.0000
  C   C559      1.0  0.76512  0.22303  0.25668  1.0000
  H   H883      1.0  0.91794  0.22279  0.42210  1.0000
  Fe  Fe117     1.0  0.82195  0.21132  0.36868  1.0000
  C   C560      1.0  0.97552  0.08199  0.42117  1.0000
  C   C561      1.0  0.77655  0.99311  0.00126  1.0000
  H   H884      1.0  0.58074  0.03316  0.45055  1.0000
  C   C562      1.0  0.69180  0.22842  0.22273  1.0000
  N   N55       1.0  0.93466  0.19318  0.40162  1.0000
  C   C563      1.0  0.73812  0.20216  0.28709  1.0000
  H   H885      1.0  0.78122  0.99337  0.36114  1.0000
  Fe  Fe118     1.0  0.88138  0.99631  0.45074  1.0000
  H   H886      1.0  0.56156  0.02418  0.47755  1.0000
  H   H887      1.0  0.61469  0.22805  0.24604  1.0000
  N   N56       1.0  0.77330  0.01391  0.32679  1.0000
  H   H888      1.0  0.66509  0.22116  0.25310  1.0000
  H   H889      1.0  0.72077  0.22953  0.19350  1.0000
  H   H890      1.0  0.91575  0.21986  0.37702  1.0000
  H   H891      1.0  0.59249  0.20268  0.18030  1.0000
  H   H892      1.0  0.51959  0.00649  0.19009  1.0000
  N   N57       1.0  0.59925  0.21648  0.21453  1.0000
  H   H893      1.0  0.57648  0.20736  0.24756  1.0000
  H   H894      1.0  0.70863  0.02614  0.48241  1.0000
  H   H895      1.0  0.75438  0.21892  0.24134  1.0000
  H   H896      1.0  0.76206  0.99512  0.29727  1.0000
  H   H897      1.0  0.56689  0.19673  0.22011  1.0000
  S   S229      1.0  0.85280  0.98850  0.36531  1.0000
  C   C564      1.0  0.96610  0.02900  0.47492  1.0000
  H   H898      1.0  0.72686  0.19732  0.27246  1.0000
  H   H899      1.0  0.63299  0.23276  0.21741  1.0000
  H   H900      1.0  0.95774  0.16307  0.38722  1.0000
  H   H901      1.0  0.74999  0.99375  0.35353  1.0000
  H   H902      1.0  0.98065  0.02482  0.46003  1.0000
  Fe  Fe119     1.0  0.79749  0.23450  0.41431  1.0000
  C   C565      1.0  0.50524  0.23476  0.45968  1.0000
  S   S230      1.0  0.50758  0.99459  0.11635  1.0000
  S   S231      1.0  0.59245  0.03963  0.98978  1.0000
  H   H903      1.0  0.49411  0.08462  0.20474  1.0000
  H   H904      1.0  0.53514  0.98679  0.45580  1.0000
  H   H905      1.0  0.52197  0.99049  0.99220  1.0000
  H   H906      1.0  0.54845  0.99367  0.05222  1.0000
  C   C566      1.0  0.52347  0.99244  0.01214  1.0000
  H   H907      1.0  0.57266  0.99068  0.01204  1.0000
  Fe  Fe120     1.0  0.49334  0.98740  0.36712  1.0000
  H   H908      1.0  0.50462  0.99261  0.02156  1.0000
  C   C567      1.0  0.78102  0.23583  0.47641  1.0000
  C   C568      1.0  0.48971  0.06711  0.25249  1.0000
  S   S232      1.0  0.84491  0.98597  0.44055  1.0000
  H   H909      1.0  0.74596  0.04666  0.48769  1.0000
  H   H910      1.0  0.79335  0.98638  0.00944  1.0000
  Fe  Fe121     1.0  0.51447  0.98606  0.31413  1.0000
  H   H911      1.0  0.71626  0.01600  0.97091  1.0000
  H   H912      1.0  0.94111  0.08926  0.81897  1.0000
  Fe  Fe122     1.0  0.80998  0.11302  0.78775  1.0000
  S   S233      1.0  0.77247  0.12672  0.80300  1.0000
  S   S234      1.0  0.84606  0.13022  0.78699  1.0000
  Fe  Fe123     1.0  0.79090  0.06830  0.76839  1.0000
  S   S235      1.0  0.75185  0.07868  0.78180  1.0000
  S   S236      1.0  0.80508  0.03687  0.74569  1.0000
  Fe  Fe124     1.0  0.76006  0.11701  0.76705  1.0000
  S   S237      1.0  0.73304  0.14144  0.74453  1.0000
  Fe  Fe125     1.0  0.76767  0.08716  0.81652  1.0000
  S   S238      1.0  0.75520  0.07572  0.85669  1.0000
  S   S239      1.0  0.79783  0.10584  0.75113  1.0000
  S   S240      1.0  0.80645  0.07428  0.80386  1.0000
  H   H913      1.0  0.76947  0.20564  0.50140  1.0000
  H   H914      1.0  0.59781  0.05431  0.92273  1.0000
  H   H915      1.0  0.96500  0.18681  0.81790  1.0000
  S   S241      1.0  0.98133  0.02342  0.66534  1.0000
  H   H916      1.0  0.97763  0.15649  0.82784  1.0000
  H   H917      1.0  0.88338  0.21775  0.70522  1.0000
  Fe  Fe126     1.0  0.97640  0.04428  0.84202  1.0000
  H   H918      1.0  0.88718  0.10804  0.81734  1.0000
  S   S242      1.0  0.66565  0.01171  0.89394  1.0000
  S   S243      1.0  0.66161  0.02008  0.96516  1.0000
  C   C569      1.0  0.84766  0.21249  0.79472  1.0000
  H   H919      1.0  0.95002  0.09761  0.78709  1.0000
  C   C570      1.0  0.73298  0.00957  0.97942  1.0000
  S   S244      1.0  0.49498  0.10268  0.50878  1.0000
  H   H920      1.0  0.65795  0.07296  0.89425  1.0000
  C   C571      1.0  0.61769  0.05463  0.91682  1.0000
  S   S245      1.0  0.93697  0.04992  0.85763  1.0000
  H   H921      1.0  0.59427  0.09935  0.91025  1.0000
  C   C572      1.0  0.95654  0.04302  0.51557  1.0000
  S   S246      1.0  0.76230  0.18286  0.63440  1.0000
  H   H922      1.0  0.81137  0.04609  0.86154  1.0000
  H   H923      1.0  0.62918  0.10029  0.95114  1.0000
  H   H924      1.0  0.87379  0.01803  0.67547  1.0000
  H   H925      1.0  0.88839  0.09202  0.76531  1.0000
  H   H926      1.0  0.92808  0.01898  0.68483  1.0000
  C   C573      1.0  0.65371  0.07698  0.91390  1.0000
  S   S247      1.0  0.66121  0.01869  0.50974  1.0000
  H   H927      1.0  0.74210  0.21911  0.68621  1.0000
  C   C574      1.0  0.73037  0.05763  0.86657  1.0000
  C   C575      1.0  0.71542  0.04976  0.84986  1.0000
  C   C576      1.0  0.69583  0.03555  0.85851  1.0000
  C   C577      1.0  0.69115  0.02876  0.88389  1.0000
  C   C578      1.0  0.70620  0.03648  0.90058  1.0000
  C   C579      1.0  0.72550  0.05105  0.89198  1.0000
  H   H928      1.0  0.71887  0.05470  0.83029  1.0000
  H   H929      1.0  0.68426  0.02973  0.84545  1.0000
  H   H930      1.0  0.70293  0.03134  0.92014  1.0000
  H   H931      1.0  0.73666  0.05724  0.90517  1.0000
  C   C580      1.0  0.74175  0.15363  0.71425  1.0000
  C   C581      1.0  0.72379  0.16612  0.69986  1.0000
  C   C582      1.0  0.72999  0.17564  0.67551  1.0000
  C   C583      1.0  0.75420  0.17258  0.66534  1.0000
  C   C584      1.0  0.77212  0.15998  0.67967  1.0000
  C   C585      1.0  0.76599  0.15082  0.70413  1.0000
  H   H932      1.0  0.78652  0.04485  0.92690  1.0000
  H   H933      1.0  0.80922  0.20087  0.72268  1.0000
  H   H934      1.0  0.79083  0.15732  0.67178  1.0000
  H   H935      1.0  0.78004  0.14146  0.71500  1.0000
  C   C586      1.0  0.90050  0.98887  0.64441  1.0000
  H   H936      1.0  0.94338  0.05803  0.50834  1.0000
  C   C587      1.0  0.78519  0.01440  0.74179  1.0000
  C   C588      1.0  0.76143  0.01526  0.75327  1.0000
  H   H937      1.0  0.53132  0.19856  0.52414  1.0000
  H   H938      1.0  0.75528  0.02936  0.76545  1.0000
  H   H939      1.0  0.88164  0.99753  0.50780  1.0000
  Fe  Fe127     1.0  0.62356  0.02706  0.49595  1.0000
  H   H940      1.0  0.97966  0.18149  0.84640  1.0000
  N   N58       1.0  0.81659  0.04998  0.89960  1.0000
  C   C589      1.0  0.53626  0.07121  0.51533  1.0000
  C   C590      1.0  0.56090  0.06250  0.51008  1.0000
  C   C591      1.0  0.79314  0.99562  0.72646  1.0000
  H   H941      1.0  0.58172  0.18930  0.49620  1.0000
  H   H942      1.0  0.52575  0.06299  0.53114  1.0000
  H   H943      1.0  0.56928  0.04771  0.52184  1.0000
  C   C592      1.0  0.93216  0.05121  0.88993  1.0000
  C   C593      1.0  0.90919  0.04663  0.90187  1.0000
  C   C594      1.0  0.90489  0.04767  0.92758  1.0000
  C   C595      1.0  0.92344  0.05371  0.94144  1.0000
  C   C596      1.0  0.94628  0.05862  0.92942  1.0000
  C   C597      1.0  0.95072  0.05713  0.90380  1.0000
  H   H944      1.0  0.89475  0.04212  0.89123  1.0000
  H   H945      1.0  0.88710  0.04433  0.93660  1.0000
  H   H946      1.0  0.96060  0.06358  0.93998  1.0000
  H   H947      1.0  0.96839  0.06096  0.89478  1.0000
  N   N59       1.0  0.84488  0.21338  0.71240  1.0000
  C   C598      1.0  0.82553  0.20138  0.79948  1.0000
  C   C599      1.0  0.82471  0.17622  0.79692  1.0000
  C   C600      1.0  0.84612  0.16194  0.78991  1.0000
  C   C601      1.0  0.86822  0.17307  0.78511  1.0000
  C   C602      1.0  0.86897  0.19825  0.78737  1.0000
  H   H948      1.0  0.61769  0.09520  0.88550  1.0000
  H   H949      1.0  0.80760  0.16784  0.80082  1.0000
  H   H950      1.0  0.88489  0.16223  0.77974  1.0000
  C   C603      1.0  0.53268  0.19422  0.50451  1.0000
  H   H951      1.0  0.72627  0.23056  0.52393  1.0000
  H   H952      1.0  0.93572  0.05902  0.77572  1.0000
  H   H953      1.0  0.70494  0.16821  0.70745  1.0000
  H   H954      1.0  0.89946  0.11959  0.77321  1.0000
  H   H955      1.0  0.53990  0.21016  0.49297  1.0000
  C   C604      1.0  0.73183  0.21655  0.73620  1.0000
  H   H956      1.0  0.71611  0.00252  0.53145  1.0000
  H   H957      1.0  0.89074  0.99400  0.62734  1.0000
  H   H958      1.0  0.87550  0.19864  0.73275  1.0000
  H   H959      1.0  0.87503  0.18728  0.70288  1.0000
  C   C605      1.0  0.88648  0.02723  0.66128  1.0000
  S   S248      1.0  0.91868  0.05539  0.97369  1.0000
  C   C606      1.0  0.90262  0.99221  0.53993  1.0000
  H   H960      1.0  0.82082  0.22939  0.68492  1.0000
  C   C607      1.0  0.52532  0.09079  0.50056  1.0000
  H   H961      1.0  0.88871  0.00192  0.55147  1.0000
  C   C608      1.0  0.74561  0.99765  0.74917  1.0000
  C   C609      1.0  0.83977  0.22062  0.68642  1.0000
  H   H962      1.0  0.81180  0.07701  0.86889  1.0000
  H   H963      1.0  0.51374  0.19282  0.49930  1.0000
  C   C610      1.0  0.53785  0.15075  0.51612  1.0000
  C   C611      1.0  0.82023  0.05801  0.87299  1.0000
  N   N60       1.0  0.73488  0.07545  0.70405  1.0000
  C   C612      1.0  0.71795  0.07350  0.72660  1.0000
  C   C613      1.0  0.73778  0.05180  0.69277  1.0000
  C   C614      1.0  0.75897  0.08154  0.71065  1.0000
  C   C615      1.0  0.72488  0.09502  0.68631  1.0000
  H   H964      1.0  0.71576  0.09093  0.73586  1.0000
  H   H965      1.0  0.72482  0.05871  0.74027  1.0000
  H   H966      1.0  0.69942  0.06929  0.72233  1.0000
  H   H967      1.0  0.75032  0.05268  0.67561  1.0000
  H   H968      1.0  0.71990  0.04637  0.68788  1.0000
  H   H969      1.0  0.75742  0.09928  0.71916  1.0000
  H   H970      1.0  0.77237  0.08305  0.69420  1.0000
  H   H971      1.0  0.76694  0.06731  0.72420  1.0000
  H   H972      1.0  0.70687  0.09088  0.68054  1.0000
  H   H973      1.0  0.73751  0.09752  0.66934  1.0000
  H   H974      1.0  0.72207  0.11296  0.69455  1.0000
  C   C616      1.0  0.82890  0.19422  0.72298  1.0000
  H   H975      1.0  0.75432  0.03621  0.95821  1.0000
  C   C617      1.0  0.92159  0.00298  0.67690  1.0000
  H   H976      1.0  0.76916  0.21172  0.70231  1.0000
  H   H977      1.0  0.87604  0.03338  0.64487  1.0000
  H   H978      1.0  0.84776  0.02327  0.89906  1.0000
  C   C618      1.0  0.87083  0.20377  0.71336  1.0000
  H   H979      1.0  0.88617  0.20655  0.78396  1.0000
  H   H980      1.0  0.91534  0.02948  0.61860  1.0000
  H   H981      1.0  0.81924  0.01167  0.89367  1.0000
  H   H982      1.0  0.94751  0.00652  0.95846  1.0000
  H   H983      1.0  0.90478  0.05169  0.78479  1.0000
  N   N61       1.0  0.90828  0.01067  0.65463  1.0000
  H   H984      1.0  0.92669  0.05064  0.80749  1.0000
  H   H985      1.0  0.89861  0.07896  0.83167  1.0000
  C   C619      1.0  0.57488  0.07363  0.49022  1.0000
  H   H986      1.0  0.69902  0.22612  0.50961  1.0000
  C   C620      1.0  0.89300  0.08862  0.81392  1.0000
  N   N62       1.0  0.91315  0.08699  0.79419  1.0000
  S   S249      1.0  0.61659  0.99190  0.94650  1.0000
  C   C621      1.0  0.61444  0.09814  0.90550  1.0000
  H   H987      1.0  0.71597  0.18497  0.66442  1.0000
  H   H988      1.0  0.83198  0.17758  0.71257  1.0000
  H   H989      1.0  0.62102  0.11620  0.90815  1.0000
  C   C622      1.0  0.79005  0.05085  0.90700  1.0000
  C   C623      1.0  0.93439  0.09855  0.80149  1.0000
  H   H990      1.0  0.82025  0.08570  0.91124  1.0000
  H   H991      1.0  0.66153  0.09445  0.91643  1.0000
  C   C624      1.0  0.77649  0.01276  0.98307  1.0000
  H   H992      1.0  0.87652  0.08041  0.80890  1.0000
  H   H993      1.0  0.83248  0.18841  0.74256  1.0000
  C   C625      1.0  0.90482  0.09987  0.77100  1.0000
  C   C626      1.0  0.92456  0.02366  0.63585  1.0000
  H   H994      1.0  0.91942  0.09873  0.75559  1.0000
  H   H995      1.0  0.93108  0.04012  0.64289  1.0000
  S   S250      1.0  0.60660  0.99898  0.52282  1.0000
  H   H996      1.0  0.92954  0.11817  0.80461  1.0000
  H   H997      1.0  0.89176  0.04390  0.66897  1.0000
  H   H998      1.0  0.74466  0.98620  0.56388  1.0000
  H   H999      1.0  0.71823  0.20744  0.72702  1.0000
  H   H1000     1.0  0.72721  0.99846  0.75804  1.0000
  C   C627      1.0  0.92037  0.06096  0.79032  1.0000
  H   H1001     1.0  0.98408  0.00011  0.51264  1.0000
  Fe  Fe128     1.0  0.65611  0.99766  0.93402  1.0000
  S   S251      1.0  0.80318  0.02790  0.97394  1.0000
  C   C628      1.0  0.62235  0.08272  0.94726  1.0000
  H   H1002     1.0  0.63145  0.06787  0.95942  1.0000
  H   H1003     1.0  0.60241  0.08339  0.95326  1.0000
  H   H1004     1.0  0.62060  0.05058  0.89708  1.0000
  H   H1005     1.0  0.62743  0.03922  0.92756  1.0000
  N   N63       1.0  0.62705  0.07815  0.92088  1.0000
  H   H1006     1.0  0.80899  0.21227  0.80526  1.0000
  H   H1007     1.0  0.74565  0.03674  0.70561  1.0000
  H   H1008     1.0  0.66374  0.06212  0.92528  1.0000
  C   C629      1.0  0.89860  0.98979  0.51514  1.0000
  H   H1009     1.0  0.82506  0.01805  0.92422  1.0000
  C   C630      1.0  0.84017  0.23498  0.72689  1.0000
  H   H1010     1.0  0.94599  0.02685  0.52161  1.0000
  H   H1011     1.0  0.72238  0.22331  0.75346  1.0000
  H   H1012     1.0  0.84208  0.20463  0.67507  1.0000
  H   H1013     1.0  0.84003  0.05763  0.86661  1.0000
  H   H1014     1.0  0.57318  0.17756  0.52735  1.0000
  H   H1015     1.0  0.74640  0.20210  0.74165  1.0000
  C   C631      1.0  0.82768  0.02463  0.90427  1.0000
  H   H1016     1.0  0.96379  0.04903  0.53229  1.0000
  H   H1017     1.0  0.84835  0.06617  0.90916  1.0000
  C   C632      1.0  0.75497  0.22671  0.69750  1.0000
  H   H1018     1.0  0.76005  0.99705  0.51992  1.0000
  H   H1019     1.0  0.97996  0.04940  0.70874  1.0000
  S   S252      1.0  0.98452  0.01126  0.59727  1.0000
  H   H1020     1.0  0.93823  0.99054  0.67256  1.0000
  C   C633      1.0  0.82826  0.06642  0.91418  1.0000
  H   H1021     1.0  0.94114  0.01166  0.63056  1.0000
  C   C634      1.0  0.95651  0.98758  0.96107  1.0000
  H   H1022     1.0  0.58554  0.15690  0.50484  1.0000
  S   S253      1.0  0.73602  0.23482  0.58346  1.0000
  H   H1023     1.0  0.78064  0.03871  0.89629  1.0000
  N   N64       1.0  0.54831  0.17135  0.50065  1.0000
  H   H1024     1.0  0.78105  0.06971  0.90376  1.0000
  H   H1025     1.0  0.82574  0.06082  0.93436  1.0000
  S   S254      1.0  0.87318  0.00611  0.97411  1.0000
  H   H1026     1.0  0.53606  0.15402  0.53605  1.0000
  H   H1027     1.0  0.81154  0.99481  0.71760  1.0000
  H   H1028     1.0  0.51926  0.14778  0.51086  1.0000
  Fe  Fe129     1.0  0.75061  0.22185  0.62027  1.0000
  H   H1029     1.0  0.90993  0.99316  0.69155  1.0000
  H   H1030     1.0  0.96209  0.00646  0.91400  1.0000
  C   C635      1.0  0.57331  0.17392  0.50758  1.0000
  Fe  Fe130     1.0  0.62328  0.01179  0.97906  1.0000
  N   N65       1.0  0.97657  0.03701  0.49665  1.0000
  C   C636      1.0  0.75465  0.02094  0.97218  1.0000
  H   H1031     1.0  0.85252  0.23415  0.67771  1.0000
  Fe  Fe131     1.0  0.64495  0.98802  0.53429  1.0000
  C   C637      1.0  0.98057  0.17633  0.82706  1.0000
  H   H1032     1.0  0.54951  0.13327  0.51420  1.0000
  H   H1033     1.0  0.84321  0.23020  0.74670  1.0000
  H   H1034     1.0  0.69716  0.23307  0.54142  1.0000
  C   C638      1.0  0.77524  0.22405  0.49983  1.0000
  H   H1035     1.0  0.77281  0.22665  0.53927  1.0000
  C   C639      1.0  0.97120  0.98777  0.91794  1.0000
  C   C640      1.0  0.98680  0.03064  0.71352  1.0000
  S   S255      1.0  0.96629  0.23372  0.75794  1.0000
  H   H1036     1.0  0.77463  0.23579  0.73898  1.0000
  S   S256      1.0  0.55639  0.37987  0.41916  1.0000
  H   H1037     1.0  0.83940  0.26248  0.47332  1.0000
  S   S257      1.0  0.80843  0.27227  0.40104  1.0000
  H   H1038     1.0  0.57356  0.33248  0.39355  1.0000
  C   C641      1.0  0.85952  0.26390  0.47217  1.0000
  S   S258      1.0  0.83556  0.24675  0.35202  1.0000
  H   H1039     1.0  0.86838  0.24515  0.47635  1.0000
  Fe  Fe132     1.0  0.84534  0.25293  0.39028  1.0000
  S   S259      1.0  0.88403  0.25912  0.39981  1.0000
  Fe  Fe133     1.0  0.79756  0.26289  0.36400  1.0000
  S   S260      1.0  0.77696  0.28593  0.33443  1.0000
  C   C642      1.0  0.61298  0.41966  0.08972  1.0000
  H   H1040     1.0  0.49513  0.45321  0.24938  1.0000
  C   C643      1.0  0.50467  0.24242  0.26650  1.0000
  H   H1041     1.0  0.96248  0.37476  0.36611  1.0000
  Fe  Fe134     1.0  0.96427  0.35324  0.45222  1.0000
  S   S261      1.0  0.92579  0.35146  0.43973  1.0000
  H   H1042     1.0  0.58637  0.37057  0.37063  1.0000
  H   H1043     1.0  0.93173  0.37375  0.38046  1.0000
  H   H1044     1.0  0.86014  0.31268  0.46346  1.0000
  H   H1045     1.0  0.53605  0.28519  0.46416  1.0000
  S   S262      1.0  0.53552  0.46653  0.13877  1.0000
  Fe  Fe135     1.0  0.51539  0.43254  0.14167  1.0000
  S   S263      1.0  0.53170  0.39416  0.15369  1.0000
  C   C644      1.0  0.94113  0.42060  0.36521  1.0000
  Fe  Fe136     1.0  0.61801  0.32356  0.25155  1.0000
  S   S264      1.0  0.60460  0.30811  0.28960  1.0000
  S   S265      1.0  0.60431  0.36274  0.23859  1.0000
  Fe  Fe137     1.0  0.65330  0.27799  0.24349  1.0000
  S   S266      1.0  0.64210  0.25944  0.28034  1.0000
  Fe  Fe138     1.0  0.60383  0.27312  0.27164  1.0000
  C   C645      1.0  0.59064  0.42726  0.12871  1.0000
  Fe  Fe139     1.0  0.64425  0.29587  0.29480  1.0000
  S   S267      1.0  0.66081  0.29611  0.33155  1.0000
  S   S268      1.0  0.61472  0.28906  0.23325  1.0000
  S   S269      1.0  0.65791  0.31403  0.25833  1.0000
  C   C646      1.0  0.60566  0.36437  0.37443  1.0000
  H   H1046     1.0  0.51237  0.40347  0.26648  1.0000
  C   C647      1.0  0.53887  0.27779  0.26145  1.0000
  C   C648      1.0  0.51480  0.28402  0.25479  1.0000
  H   H1047     1.0  0.61712  0.33523  0.33728  1.0000
  H   H1048     1.0  0.55197  0.29152  0.25947  1.0000
  S   S270      1.0  0.57565  0.24551  0.27975  1.0000
  H   H1049     1.0  0.58551  0.33301  0.34845  1.0000
  C   C649      1.0  0.49748  0.47986  0.21800  1.0000
  H   H1050     1.0  0.77306  0.24853  0.29475  1.0000
  C   C650      1.0  0.63549  0.32992  0.38164  1.0000
  C   C651      1.0  0.55131  0.38587  0.17790  1.0000
  C   C652      1.0  0.55858  0.36094  0.18360  1.0000
  C   C653      1.0  0.57476  0.35353  0.20212  1.0000
  C   C654      1.0  0.58411  0.37104  0.21492  1.0000
  C   C655      1.0  0.57700  0.39599  0.20909  1.0000
  C   C656      1.0  0.56051  0.40340  0.19084  1.0000
  H   H1051     1.0  0.55153  0.34724  0.17373  1.0000
  H   H1052     1.0  0.57999  0.33427  0.20646  1.0000
  H   H1053     1.0  0.58436  0.40966  0.21871  1.0000
  H   H1054     1.0  0.55507  0.42264  0.18669  1.0000
  C   C657      1.0  0.89548  0.28543  0.40986  1.0000
  C   C658      1.0  0.91996  0.28400  0.41603  1.0000
  C   C659      1.0  0.92961  0.30406  0.42499  1.0000
  C   C660      1.0  0.91485  0.32587  0.42784  1.0000
  C   C661      1.0  0.89046  0.32742  0.42141  1.0000
  C   C662      1.0  0.88077  0.30729  0.41257  1.0000
  H   H1055     1.0  0.93160  0.26727  0.41392  1.0000
  H   H1056     1.0  0.94843  0.30258  0.42981  1.0000
  H   H1057     1.0  0.87892  0.34425  0.42343  1.0000
  H   H1058     1.0  0.86194  0.30871  0.40780  1.0000
  C   C663      1.0  0.69316  0.29168  0.33176  1.0000
  C   C664      1.0  0.70382  0.28237  0.35362  1.0000
  C   C665      1.0  0.72950  0.27975  0.35452  1.0000
  C   C666      1.0  0.74470  0.28710  0.33375  1.0000
  C   C667      1.0  0.73403  0.29629  0.31190  1.0000
  C   C668      1.0  0.70841  0.29827  0.31078  1.0000
  H   H1059     1.0  0.69218  0.27722  0.36993  1.0000
  H   H1060     1.0  0.73752  0.27270  0.37147  1.0000
  H   H1061     1.0  0.74563  0.30221  0.29582  1.0000
  H   H1062     1.0  0.70046  0.30568  0.29391  1.0000
  C   C669      1.0  0.55294  0.41219  0.41320  1.0000
  C   C670      1.0  0.54713  0.42277  0.38973  1.0000
  C   C671      1.0  0.54508  0.44846  0.38456  1.0000
  C   C672      1.0  0.54948  0.46367  0.40267  1.0000
  C   C673      1.0  0.55521  0.45306  0.42608  1.0000
  C   C674      1.0  0.55661  0.42752  0.43141  1.0000
  H   H1063     1.0  0.54412  0.41110  0.37555  1.0000
  H   H1064     1.0  0.54059  0.45649  0.36646  1.0000
  H   H1065     1.0  0.95345  0.41723  0.34834  1.0000
  H   H1066     1.0  0.56120  0.41975  0.44946  1.0000
  H   H1067     1.0  0.70945  0.25780  0.47620  1.0000
  H   H1068     1.0  0.86527  0.26982  0.45262  1.0000
  H   H1069     1.0  0.91414  0.40537  0.40689  1.0000
  H   H1070     1.0  0.55431  0.38249  0.26115  1.0000
  H   H1071     1.0  0.79248  0.26895  0.45641  1.0000
  S   S271      1.0  0.51651  0.36424  0.48012  1.0000
  C   C675      1.0  0.52256  0.25206  0.45408  1.0000
  N   N66       1.0  0.94978  0.40545  0.38708  1.0000
  N   N67       1.0  0.59183  0.41303  0.10685  1.0000
  H   H1072     1.0  0.97508  0.43101  0.39482  1.0000
  S   S272      1.0  0.56760  0.32755  0.47459  1.0000
  S   S273      1.0  0.97366  0.38914  0.46468  1.0000
  H   H1073     1.0  0.50638  0.42737  0.28704  1.0000
  H   H1074     1.0  0.55457  0.37581  0.29396  1.0000
  H   H1075     1.0  0.50883  0.45452  0.46765  1.0000
  H   H1076     1.0  0.61155  0.38160  0.12471  1.0000
  H   H1077     1.0  0.54444  0.42593  0.24362  1.0000
  H   H1078     1.0  0.71440  0.28814  0.48353  1.0000
  C   C676      1.0  0.55035  0.42278  0.30543  1.0000
  H   H1079     1.0  0.95736  0.36730  0.39869  1.0000
  C   C677      1.0  0.58526  0.24034  0.20899  1.0000
  H   H1080     1.0  0.64852  0.33719  0.36651  1.0000
  H   H1081     1.0  0.56941  0.40876  0.07726  1.0000
  H   H1082     1.0  0.61453  0.40913  0.07308  1.0000
  H   H1083     1.0  0.55280  0.41331  0.10640  1.0000
  Fe  Fe140     1.0  0.52083  0.47482  0.10149  1.0000
  H   H1084     1.0  0.56584  0.43868  0.08851  1.0000
  C   C678      1.0  0.54575  0.25393  0.27100  1.0000
  H   H1085     1.0  0.60726  0.42301  0.13915  1.0000
  H   H1086     1.0  0.63927  0.30961  0.38305  1.0000
  H   H1087     1.0  0.58883  0.44734  0.12337  1.0000
  H   H1088     1.0  0.63050  0.41589  0.09877  1.0000
  C   C679      1.0  0.56901  0.41872  0.09417  1.0000
  H   H1089     1.0  0.61117  0.43951  0.08316  1.0000
  C   C680      1.0  0.48974  0.46238  0.47222  1.0000
  C   C681      1.0  0.51776  0.40998  0.28383  1.0000
  C   C682      1.0  0.59463  0.38656  0.11486  1.0000
  Fe  Fe141     1.0  0.55360  0.36548  0.45963  1.0000
  C   C683      1.0  0.60477  0.32794  0.35300  1.0000
  N   N68       1.0  0.60976  0.33733  0.37647  1.0000
  N   N69       1.0  0.54420  0.41355  0.28227  1.0000
  H   H1090     1.0  0.60797  0.30758  0.35382  1.0000
  C   C684      1.0  0.55018  0.43152  0.26123  1.0000
  S   S274      1.0  0.68304  0.26011  0.21810  1.0000
  H   H1091     1.0  0.53600  0.25007  0.43854  1.0000
  H   H1092     1.0  0.59675  0.25344  0.19756  1.0000
  H   H1093     1.0  0.49087  0.48000  0.01462  1.0000
  C   C685      1.0  0.93294  0.41053  0.40899  1.0000
  H   H1094     1.0  0.92237  0.41651  0.36153  1.0000
  H   H1095     1.0  0.57890  0.38104  0.12783  1.0000
  H   H1096     1.0  0.57860  0.39186  0.27703  1.0000
  S   S275      1.0  0.50209  0.47824  0.29182  1.0000
  H   H1097     1.0  0.71819  0.24191  0.26105  1.0000
  H   H1098     1.0  0.54081  0.44995  0.26412  1.0000
  C   C686      1.0  0.59314  0.32708  0.39681  1.0000
  H   H1099     1.0  0.57457  0.42302  0.14172  1.0000
  H   H1100     1.0  0.60899  0.37203  0.39196  1.0000
  C   C687      1.0  0.52265  0.27191  0.46859  1.0000
  C   C688      1.0  0.49762  0.26639  0.25735  1.0000
  H   H1101     1.0  0.59629  0.33396  0.41478  1.0000
  C   C689      1.0  0.78848  0.25960  0.47444  1.0000
  C   C690      1.0  0.49762  0.47212  0.24324  1.0000
  C   C691      1.0  0.55852  0.38991  0.27852  1.0000
  H   H1102     1.0  0.64003  0.33666  0.39919  1.0000
  H   H1103     1.0  0.54602  0.40977  0.32175  1.0000
  H   H1104     1.0  0.94049  0.44050  0.36782  1.0000
  H   H1105     1.0  0.50943  0.30258  0.24767  1.0000
  H   H1106     1.0  0.55875  0.46467  0.44014  1.0000
  H   H1107     1.0  0.53977  0.44063  0.30874  1.0000
  H   H1108     1.0  0.59546  0.37520  0.09890  1.0000
  H   H1109     1.0  0.51266  0.39631  0.29932  1.0000
  H   H1110     1.0  0.59566  0.30671  0.39893  1.0000
  C   C692      1.0  0.72979  0.24546  0.27588  1.0000
  H   H1111     1.0  0.73759  0.26331  0.27035  1.0000
  H   H1112     1.0  0.61796  0.37280  0.35937  1.0000
  S   S276      1.0  0.50386  0.43912  0.10266  1.0000
  H   H1113     1.0  0.49507  0.46689  0.20487  1.0000
  C   C693      1.0  0.95037  0.37923  0.38279  1.0000
  H   H1114     1.0  0.93163  0.43022  0.41256  1.0000
  H   H1115     1.0  0.49999  0.45764  0.42369  1.0000
  C   C694      1.0  0.97467  0.41142  0.39136  1.0000
  H   H1116     1.0  0.57021  0.43365  0.25869  1.0000
  H   H1117     1.0  0.57014  0.42584  0.30481  1.0000
  Fe  Fe142     1.0  0.49945  0.48467  0.15287  1.0000
  H   H1118     1.0  0.98165  0.40037  0.40780  1.0000
  H   H1119     1.0  0.93925  0.39982  0.42592  1.0000
  H   H1120     1.0  0.97083  0.24859  0.45030  1.0000
  H   H1121     1.0  0.89994  0.28835  0.46818  1.0000
  H   H1122     1.0  0.57855  0.24903  0.22624  1.0000
  H   H1123     1.0  0.77410  0.24016  0.25071  1.0000
  C   C695      1.0  0.52866  0.23625  0.27341  1.0000
  H   H1124     1.0  0.71747  0.24780  0.29297  1.0000
  H   H1125     1.0  0.56888  0.23831  0.19892  1.0000
  H   H1126     1.0  0.83399  0.30589  0.48407  1.0000
  C   C696      1.0  0.85429  0.30587  0.48271  1.0000
  S   S277      1.0  0.97927  0.33087  0.48513  1.0000
  C   C697      1.0  0.89302  0.28216  0.48731  1.0000
  C   C698      1.0  0.48790  0.23743  0.47977  1.0000
  C   C699      1.0  0.71651  0.26837  0.49014  1.0000
  H   H1127     1.0  0.89663  0.43367  0.87610  1.0000
  H   H1128     1.0  0.82114  0.24351  0.72583  1.0000
  H   H1129     1.0  0.97514  0.28516  0.75566  1.0000
  H   H1130     1.0  0.71146  0.26273  0.72852  1.0000
  C   C700      1.0  0.90926  0.41805  0.88308  1.0000
  H   H1131     1.0  0.55954  0.42651  0.55744  1.0000
  C   C701      1.0  0.72172  0.25475  0.71226  1.0000
  Fe  Fe143     1.0  0.90799  0.30981  0.76587  1.0000
  S   S278      1.0  0.92826  0.29476  0.73210  1.0000
  S   S279      1.0  0.91418  0.34888  0.77358  1.0000
  Fe  Fe144     1.0  0.87929  0.26392  0.77719  1.0000
  H   H1132     1.0  0.95676  0.47205  0.60284  1.0000
  Fe  Fe145     1.0  0.93232  0.25982  0.75665  1.0000
  H   H1133     1.0  0.92962  0.40497  0.83930  1.0000
  Fe  Fe146     1.0  0.89198  0.28253  0.72394  1.0000
  S   S280      1.0  0.87885  0.28202  0.68561  1.0000
  S   S281      1.0  0.91386  0.27515  0.79095  1.0000
  S   S282      1.0  0.87114  0.30024  0.75559  1.0000
  Fe  Fe147     1.0  0.75414  0.27327  0.63446  1.0000
  H   H1134     1.0  0.94983  0.39767  0.90302  1.0000
  S   S283      1.0  0.76544  0.29077  0.66743  1.0000
  Fe  Fe148     1.0  0.71191  0.26276  0.60417  1.0000
  H   H1135     1.0  0.66712  0.26764  0.53214  1.0000
  S   S284      1.0  0.67134  0.26770  0.59694  1.0000
  N   N70       1.0  0.70373  0.26366  0.51488  1.0000
  Fe  Fe149     1.0  0.76383  0.26262  0.58058  1.0000
  S   S285      1.0  0.78587  0.27552  0.54560  1.0000
  S   S286      1.0  0.72440  0.24735  0.64134  1.0000
  S   S287      1.0  0.73903  0.29133  0.59943  1.0000
  H   H1136     1.0  0.94941  0.44356  0.59304  1.0000
  H   H1137     1.0  0.91557  0.42895  0.63831  1.0000
  H   H1138     1.0  0.63094  0.39051  0.54228  1.0000
  S   S288      1.0  0.54564  0.34419  0.52979  1.0000
  S   S289      1.0  0.50534  0.29861  0.50786  1.0000
  Fe  Fe150     1.0  0.53330  0.38030  0.51020  1.0000
  H   H1139     1.0  0.98152  0.42642  0.65062  1.0000
  H   H1140     1.0  0.86607  0.25418  0.52051  1.0000
  S   S290      1.0  0.61971  0.34382  0.51799  1.0000
  H   H1141     1.0  0.74998  0.25694  0.74959  1.0000
  S   S291      1.0  0.56949  0.38395  0.48863  1.0000
  H   H1142     1.0  0.86232  0.28542  0.52835  1.0000
  C   C702      1.0  0.78419  0.25981  0.51926  1.0000
  H   H1143     1.0  0.57002  0.41965  0.52675  1.0000
  S   S292      1.0  0.78089  0.24695  0.61516  1.0000
  C   C703      1.0  0.93550  0.42300  0.63807  1.0000
  Fe  Fe151     1.0  0.58081  0.34622  0.50563  1.0000
  C   C704      1.0  0.65666  0.29011  0.57631  1.0000
  C   C705      1.0  0.63266  0.28724  0.57057  1.0000
  C   C706      1.0  0.62088  0.30370  0.55305  1.0000
  C   C707      1.0  0.63304  0.32324  0.54110  1.0000
  C   C708      1.0  0.65683  0.32643  0.54720  1.0000
  C   C709      1.0  0.66855  0.31005  0.56480  1.0000
  H   H1144     1.0  0.62324  0.27196  0.57948  1.0000
  H   H1145     1.0  0.60254  0.30106  0.54860  1.0000
  H   H1146     1.0  0.66634  0.34159  0.53817  1.0000
  H   H1147     1.0  0.68682  0.31279  0.56938  1.0000
  H   H1148     1.0  0.58736  0.41618  0.59153  1.0000
  H   H1149     1.0  0.98026  0.33708  0.83054  1.0000
  N   N71       1.0  0.59521  0.40668  0.55415  1.0000
  H   H1150     1.0  0.56859  0.38346  0.57268  1.0000
  H   H1151     1.0  0.61082  0.43263  0.57407  1.0000
  C   C710      1.0  0.84733  0.28639  0.68049  1.0000
  C   C711      1.0  0.82949  0.29310  0.69910  1.0000
  C   C712      1.0  0.80447  0.29487  0.69476  1.0000
  C   C713      1.0  0.79707  0.28965  0.67190  1.0000
  C   C714      1.0  0.81493  0.28327  0.65323  1.0000
  C   C715      1.0  0.83992  0.28181  0.65746  1.0000
  H   H1152     1.0  0.83498  0.29705  0.71680  1.0000
  H   H1153     1.0  0.79086  0.30045  0.70913  1.0000
  H   H1154     1.0  0.80959  0.27997  0.63531  1.0000
  H   H1155     1.0  0.85359  0.27689  0.64286  1.0000
  N   N72       1.0  0.93478  0.42077  0.87299  1.0000
  C   C716      1.0  0.96289  0.39077  0.79827  1.0000
  C   C717      1.0  0.94431  0.38254  0.78559  1.0000
  C   C718      1.0  0.93888  0.35787  0.78869  1.0000
  C   C719      1.0  0.95234  0.34146  0.80460  1.0000
  S   S293      1.0  0.89848  0.24597  0.74504  1.0000
  H   H1156     1.0  0.96701  0.40973  0.79539  1.0000
  H   H1157     1.0  0.93408  0.39533  0.77322  1.0000
  H   H1158     1.0  0.94827  0.32247  0.80723  1.0000
  C   C720      1.0  0.94538  0.45632  0.60787  1.0000
  C   C721      1.0  0.61651  0.40460  0.53572  1.0000
  H   H1159     1.0  0.62489  0.42231  0.53151  1.0000
  C   C722      1.0  0.93600  0.42180  0.84573  1.0000
  N   N73       1.0  0.86612  0.28117  0.48929  1.0000
  C   C723      1.0  0.50552  0.27438  0.48887  1.0000
  H   H1160     1.0  0.70567  0.27373  0.55177  1.0000
  C   C724      1.0  0.71439  0.27743  0.53278  1.0000
  H   H1161     1.0  0.97043  0.40160  0.87592  1.0000
  H   H1162     1.0  0.94252  0.44359  0.90104  1.0000
  H   H1163     1.0  0.93150  0.46011  0.87363  1.0000
  H   H1164     1.0  0.85268  0.24932  0.72011  1.0000
  H   H1165     1.0  0.94907  0.45325  0.67008  1.0000
  H   H1166     1.0  0.90265  0.26388  0.49217  1.0000
  C   C725      1.0  0.58506  0.38261  0.55930  1.0000
  C   C726      1.0  0.57620  0.42490  0.54431  1.0000
  C   C727      1.0  0.60304  0.41451  0.57726  1.0000
  H   H1167     1.0  0.70842  0.24630  0.70203  1.0000
  C   C728      1.0  0.67738  0.27165  0.51392  1.0000
  H   H1168     1.0  0.92585  0.46360  0.60736  1.0000
  H   H1169     1.0  0.83738  0.27202  0.51711  1.0000
  H   H1170     1.0  0.76719  0.26410  0.72080  1.0000
  H   H1171     1.0  0.92454  0.43783  0.83775  1.0000
  H   H1172     1.0  0.71207  0.29755  0.52786  1.0000
  H   H1173     1.0  0.57947  0.37611  0.54213  1.0000
  H   H1174     1.0  0.59884  0.36832  0.56678  1.0000
  H   H1175     1.0  0.89871  0.29520  0.49977  1.0000
  H   H1176     1.0  0.97194  0.42136  0.50533  1.0000
  H   H1177     1.0  0.93961  0.40935  0.62407  1.0000
  H   H1178     1.0  0.95511  0.42326  0.83759  1.0000
  H   H1179     1.0  0.96695  0.46520  0.51371  1.0000
  H   H1180     1.0  0.76407  0.24110  0.68529  1.0000
  C   C729      1.0  0.97882  0.42700  0.52170  1.0000
  H   H1181     1.0  0.94606  0.38215  0.87601  1.0000
  Fe  Fe152     1.0  0.53151  0.32807  0.49777  1.0000
  C   C730      1.0  0.94302  0.44362  0.88057  1.0000
  C   C731      1.0  0.78991  0.27160  0.49585  1.0000
  H   H1182     1.0  0.90761  0.41736  0.90363  1.0000
  H   H1183     1.0  0.73647  0.26297  0.49038  1.0000
  C   C732      1.0  0.97678  0.43523  0.63222  1.0000
  H   H1184     1.0  0.96220  0.44619  0.87325  1.0000
  C   C733      1.0  0.97594  0.45183  0.52653  1.0000
  H   H1185     1.0  0.90256  0.40091  0.87773  1.0000
  H   H1186     1.0  0.93898  0.41336  0.65649  1.0000
  S   S294      1.0  0.84798  0.24423  0.79743  1.0000
  C   C734      1.0  0.94460  0.46162  0.65143  1.0000
  H   H1187     1.0  0.73435  0.27223  0.53365  1.0000
  H   H1188     1.0  0.98194  0.42173  0.61826  1.0000
  H   H1189     1.0  0.61735  0.40108  0.58514  1.0000
  C   C735      1.0  0.97046  0.34983  0.81780  1.0000
  S   S295      1.0  0.51640  0.41314  0.52936  1.0000
  C   C736      1.0  0.97570  0.37455  0.81486  1.0000
  H   H1190     1.0  0.58303  0.44340  0.54044  1.0000
  H   H1191     1.0  0.61115  0.39885  0.51800  1.0000
  N   N74       1.0  0.95055  0.44404  0.63240  1.0000
  C   C737      1.0  0.95091  0.39961  0.88247  1.0000
  H   H1192     1.0  0.66889  0.26214  0.50009  1.0000
  C   C738      1.0  0.85765  0.27282  0.51492  1.0000
  H   H1193     1.0  0.72868  0.27022  0.69981  1.0000
  C   C739      1.0  0.98422  0.45936  0.54803  1.0000
  H   H1194     1.0  0.92487  0.46837  0.65249  1.0000
  H   H1195     1.0  0.85904  0.31942  0.49513  1.0000
  H   H1196     1.0  0.79491  0.29026  0.49428  1.0000
  C   C740      1.0  0.75923  0.24886  0.73288  1.0000
  H   H1197     1.0  0.95539  0.47790  0.64746  1.0000
  H   H1198     1.0  0.67434  0.29174  0.50896  1.0000
  H   H1199     1.0  0.48980  0.47229  0.48912  1.0000
  C   C741      1.0  0.48816  0.25709  0.49442  1.0000
  C   C742      1.0  0.70664  0.23718  0.52277  1.0000
  N   N75       1.0  0.74195  0.23670  0.71973  1.0000
  C   C743      1.0  0.77696  0.23597  0.52125  1.0000
  C   C744      1.0  0.50321  0.52111  0.22709  1.0000
  H   H1200     1.0  0.50896  0.54384  0.01297  1.0000
  C   C745      1.0  0.71716  0.73069  0.14298  1.0000
  Fe  Fe153     1.0  0.77887  0.73387  0.11488  1.0000
  Fe  Fe154     1.0  0.62992  0.68924  0.27232  1.0000
  H   H1201     1.0  0.51419  0.69156  0.30853  1.0000
  S   S296      1.0  0.62692  0.65094  0.29188  1.0000
  C   C746      1.0  0.55614  0.56901  0.12052  1.0000
  S   S297      1.0  0.86535  0.72607  0.07685  1.0000
  S   S298      1.0  0.66510  0.70310  0.25405  1.0000
  H   H1202     1.0  0.50654  0.52617  0.26545  1.0000
  H   H1203     1.0  0.50737  0.58052  0.12525  1.0000
  S   S299      1.0  0.54259  0.51938  0.32434  1.0000
  H   H1204     1.0  0.56589  0.56320  0.01831  1.0000
  C   C747      1.0  0.71326  0.70677  0.98898  1.0000
  S   S300      1.0  0.51237  0.55382  0.36547  1.0000
  C   C748      1.0  0.51479  0.56594  0.13881  1.0000
  Fe  Fe155     1.0  0.52289  0.55728  0.32446  1.0000
  S   S301      1.0  0.53167  0.59195  0.30017  1.0000
  Fe  Fe156     1.0  0.52872  0.51464  0.36453  1.0000
  H   H1205     1.0  0.50229  0.56607  0.15603  1.0000
  C   C749      1.0  0.49603  0.49944  0.44598  1.0000
  S   S302      1.0  0.54025  0.60348  0.04411  1.0000
  C   C750      1.0  0.54066  0.59350  0.15393  1.0000
  S   S303      1.0  0.60667  0.70737  0.24269  1.0000
  H   H1206     1.0  0.91317  0.70455  0.06167  1.0000
  S   S304      1.0  0.76348  0.70677  0.14448  1.0000
  C   C751      1.0  0.84679  0.64237  0.12929  1.0000
  H   H1207     1.0  0.85594  0.68142  0.00418  1.0000
  C   C752      1.0  0.55189  0.66509  0.32949  1.0000
  S   S305      1.0  0.62355  0.72051  0.29656  1.0000
  N   N76       1.0  0.54019  0.56955  0.14377  1.0000
  S   S306      1.0  0.97616  0.64818  0.00286  1.0000
  H   H1208     1.0  0.82976  0.70233  0.11457  1.0000
  C   C753      1.0  0.89351  0.67807  0.01361  1.0000
  C   C754      1.0  0.86858  0.68665  0.01647  1.0000
  C   C755      1.0  0.85978  0.70188  0.03531  1.0000
  C   C756      1.0  0.87577  0.70834  0.05180  1.0000
  C   C757      1.0  0.90064  0.69969  0.04901  1.0000
  C   C758      1.0  0.90951  0.68476  0.02995  1.0000
  H   H1209     1.0  0.53500  0.70519  0.99479  1.0000
  H   H1210     1.0  0.84059  0.70841  0.03719  1.0000
  H   H1211     1.0  0.51463  0.57331  0.08111  1.0000
  H   H1212     1.0  0.92872  0.67831  0.02802  1.0000
  H   H1213     1.0  0.57098  0.65631  0.32936  1.0000
  C   C759      1.0  0.50378  0.51327  0.25233  1.0000
  N   N77       1.0  0.83362  0.66323  0.11557  1.0000
  C   C760      1.0  0.84179  0.66355  0.08899  1.0000
  H   H1214     1.0  0.84314  0.62460  0.12266  1.0000
  N   N78       1.0  0.55139  0.69057  0.31807  1.0000
  H   H1215     1.0  0.54415  0.66428  0.34904  1.0000
  C   C761      1.0  0.60170  0.63285  0.29235  1.0000
  C   C762      1.0  0.58421  0.63748  0.27495  1.0000
  C   C763      1.0  0.56316  0.62439  0.27735  1.0000
  C   C764      1.0  0.55963  0.60609  0.29679  1.0000
  C   C765      1.0  0.57762  0.60069  0.31360  1.0000
  C   C766      1.0  0.59858  0.61400  0.31134  1.0000
  H   H1216     1.0  0.58675  0.65141  0.25982  1.0000
  H   H1217     1.0  0.54946  0.62853  0.26412  1.0000
  H   H1218     1.0  0.57517  0.58662  0.32862  1.0000
  H   H1219     1.0  0.61216  0.61006  0.32472  1.0000
  H   H1220     1.0  0.51560  0.49285  0.44197  1.0000
  H   H1221     1.0  0.51369  0.54793  0.13133  1.0000
  H   H1222     1.0  0.69275  0.69766  0.20501  1.0000
  C   C767      1.0  0.68392  0.72422  0.17487  1.0000
  C   C768      1.0  0.72384  0.70165  0.17831  1.0000
  C   C769      1.0  0.69953  0.70709  0.18787  1.0000
  H   H1223     1.0  0.73573  0.68822  0.18835  1.0000
  S   S307      1.0  0.65318  0.73135  0.18586  1.0000
  C   C770      1.0  0.50092  0.48876  0.26044  1.0000
  C   C771      1.0  0.73277  0.71352  0.15589  1.0000
  C   C772      1.0  0.54911  0.54974  0.16187  1.0000
  H   H1224     1.0  0.57543  0.57177  0.12353  1.0000
  H   H1225     1.0  0.58114  0.68371  0.29082  1.0000
  H   H1226     1.0  0.52875  0.59453  0.17147  1.0000
  C   C773      1.0  0.54207  0.52014  0.06040  1.0000
  C   C774      1.0  0.55560  0.53013  0.03952  1.0000
  C   C775      1.0  0.55470  0.55568  0.03391  1.0000
  C   C776      1.0  0.54018  0.57136  0.04911  1.0000
  C   C777      1.0  0.52618  0.56129  0.06957  1.0000
  C   C778      1.0  0.52723  0.53583  0.07527  1.0000
  H   H1227     1.0  0.56720  0.51818  0.02790  1.0000
  C   C779      1.0  0.80694  0.66079  0.11903  1.0000
  Fe  Fe157     1.0  0.50603  0.50720  0.31760  1.0000
  H   H1228     1.0  0.51686  0.52845  0.09141  1.0000
  C   C780      1.0  0.50010  0.49702  0.00872  1.0000
  H   H1229     1.0  0.86179  0.66584  0.08568  1.0000
  H   H1230     1.0  0.79642  0.67628  0.10897  1.0000
  H   H1231     1.0  0.83219  0.67912  0.07814  1.0000
  H   H1232     1.0  0.53749  0.54968  0.17967  1.0000
  H   H1233     1.0  0.83824  0.64638  0.08112  1.0000
  H   H1234     1.0  0.54991  0.58368  0.10635  1.0000
  C   C781      1.0  0.56143  0.69053  0.29208  1.0000
  H   H1235     1.0  0.58574  0.69652  0.33167  1.0000
  H   H1236     1.0  0.55138  0.67887  0.28149  1.0000
  S   S308      1.0  0.54822  0.49590  0.39694  1.0000
  C   C782      1.0  0.83899  0.68634  0.12499  1.0000
  S   S309      1.0  0.49375  0.49965  0.35766  1.0000
  H   H1237     1.0  0.86697  0.64373  0.12702  1.0000
  H   H1238     1.0  0.79032  0.73054  0.02079  1.0000
  H   H1239     1.0  0.85897  0.68888  0.12282  1.0000
  H   H1240     1.0  0.54852  0.53137  0.15496  1.0000
  C   C783      1.0  0.50013  0.50440  0.20990  1.0000
  H   H1241     1.0  0.70170  0.71428  0.00477  1.0000
  H   H1242     1.0  0.84109  0.64172  0.14943  1.0000
  H   H1243     1.0  0.80208  0.64354  0.11224  1.0000
  H   H1244     1.0  0.50528  0.54012  0.22093  1.0000
  H   H1245     1.0  0.53408  0.60885  0.14069  1.0000
  H   H1246     1.0  0.80003  0.66095  0.13886  1.0000
  H   H1247     1.0  0.55625  0.55117  0.11235  1.0000
  Fe  Fe158     1.0  0.54612  0.61877  0.00425  1.0000
  H   H1248     1.0  0.83251  0.68723  0.14483  1.0000
  H   H1249     1.0  0.56015  0.70918  0.28241  1.0000
  S   S310      1.0  0.49970  0.51453  0.17840  1.0000
  H   H1250     1.0  0.55920  0.70575  0.35126  1.0000
  C   C784      1.0  0.56647  0.70486  0.33167  1.0000
  H   H1251     1.0  0.56827  0.55168  0.16600  1.0000
  S   S311      1.0  0.79362  0.72360  0.07708  1.0000
  H   H1252     1.0  0.51405  0.49854  0.02208  1.0000
  H   H1253     1.0  0.55954  0.59681  0.15800  1.0000
  C   C785      1.0  0.52590  0.70182  0.31891  1.0000
  Fe  Fe159     1.0  0.64136  0.72380  0.22640  1.0000
  H   H1254     1.0  0.49500  0.51112  0.46173  1.0000
  H   H1255     1.0  0.51762  0.70210  0.33823  1.0000
  H   H1256     1.0  0.71957  0.68743  0.99471  1.0000
  H   H1257     1.0  0.54125  0.65351  0.31934  1.0000
  C   C786      1.0  0.49528  0.54095  0.99980  1.0000
  S   S312      1.0  0.54415  0.48811  0.06772  1.0000
  H   H1258     1.0  0.49046  0.51140  0.42946  1.0000
  S   S313      1.0  0.90372  0.65896  0.98956  1.0000
  H   H1259     1.0  0.52511  0.72108  0.31042  1.0000
  H   H1260     1.0  0.56714  0.72400  0.32307  1.0000
  H   H1261     1.0  0.51009  0.49463  0.99035  1.0000
  C   C787      1.0  0.52285  0.72123  0.99015  1.0000
  S   S314      1.0  0.56172  0.65442  0.98975  1.0000
  C   C788      1.0  0.69282  0.73591  0.15237  1.0000
  H   H1262     1.0  0.97792  0.71456  0.97649  1.0000
  H   H1263     1.0  0.62403  0.72005  0.91196  1.0000
  C   C789      1.0  0.69158  0.73436  0.95955  1.0000
  H   H1264     1.0  0.89668  0.62777  0.74146  1.0000
  C   C790      1.0  0.97136  0.53185  0.91494  1.0000
  S   S315      1.0  0.96227  0.65912  0.94438  1.0000
  H   H1265     1.0  0.89712  0.71437  0.92152  1.0000
  Fe  Fe160     1.0  0.92136  0.68552  0.70070  1.0000
  S   S316      1.0  0.94204  0.69687  0.73111  1.0000
  S   S317      1.0  0.92700  0.64525  0.69280  1.0000
  Fe  Fe161     1.0  0.94044  0.73409  0.71014  1.0000
  H   H1266     1.0  0.96600  0.57286  0.65398  1.0000
  H   H1267     1.0  0.70649  0.70030  0.92866  1.0000
  C   C791      1.0  0.88832  0.69798  0.93034  1.0000
  S   S318      1.0  0.88413  0.69635  0.71911  1.0000
  Fe  Fe162     1.0  0.97583  0.61980  0.93936  1.0000
  H   H1268     1.0  0.73264  0.70889  0.94219  1.0000
  C   C792      1.0  0.92908  0.64253  0.78760  1.0000
  Fe  Fe163     1.0  0.53322  0.60682  0.95410  1.0000
  Fe  Fe164     1.0  0.88729  0.73396  0.70023  1.0000
  S   S319      1.0  0.51658  0.57727  0.93611  1.0000
  Fe  Fe165     1.0  0.57986  0.63318  0.95870  1.0000
  C   C793      1.0  0.98182  0.52190  0.89323  1.0000
  S   S320      1.0  0.62028  0.63372  0.94513  1.0000
  C   C794      1.0  0.71596  0.69869  0.94604  1.0000
  Fe  Fe166     1.0  0.52946  0.66004  0.96642  1.0000
  H   H1269     1.0  0.91000  0.59083  0.76839  1.0000
  H   H1270     1.0  0.86018  0.72606  0.89859  1.0000
  S   S321      1.0  0.54840  0.64066  0.93451  1.0000
  H   H1271     1.0  0.80108  0.70915  0.98272  1.0000
  H   H1272     1.0  0.93477  0.66036  0.77859  1.0000
  S   S322      1.0  0.78021  0.69207  0.81694  1.0000
  N   N79       1.0  0.92255  0.62658  0.76919  1.0000
  H   H1273     1.0  0.91318  0.64700  0.80101  1.0000
  Fe  Fe167     1.0  0.90480  0.70917  0.74831  1.0000
  C   C795      1.0  0.78778  0.72492  0.98243  1.0000
  S   S323      1.0  0.97980  0.51996  0.61937  1.0000
  C   C796      1.0  0.90203  0.63902  0.75580  1.0000
  H   H1274     1.0  0.95981  0.61214  0.76072  1.0000
  S   S324      1.0  0.74506  0.69800  0.88507  1.0000
  H   H1275     1.0  0.89891  0.60632  0.79532  1.0000
  H   H1276     1.0  0.86328  0.71032  0.83296  1.0000
  H   H1277     1.0  0.94441  0.63377  0.79825  1.0000
  C   C797      1.0  0.94394  0.62167  0.75141  1.0000
  Fe  Fe168     1.0  0.71386  0.72686  0.87930  1.0000
  C   C798      1.0  0.63435  0.65909  0.92935  1.0000
  C   C799      1.0  0.62178  0.68231  0.92620  1.0000
  C   C800      1.0  0.63388  0.70213  0.91417  1.0000
  C   C801      1.0  0.65861  0.69897  0.90511  1.0000
  C   C802      1.0  0.67112  0.67569  0.90801  1.0000
  C   C803      1.0  0.65906  0.65592  0.92021  1.0000
  H   H1278     1.0  0.60277  0.68499  0.93314  1.0000
  H   H1279     1.0  0.96225  0.52021  0.92928  1.0000
  H   H1280     1.0  0.69004  0.67288  0.90085  1.0000
  H   H1281     1.0  0.66886  0.63797  0.92242  1.0000
  C   C804      1.0  0.91507  0.60320  0.78186  1.0000
  H   H1282     1.0  0.50534  0.53962  0.98126  1.0000
  C   C805      1.0  0.98325  0.57233  0.89941  1.0000
  C   C806      1.0  0.97227  0.55688  0.91814  1.0000
  H   H1283     1.0  0.95000  0.63896  0.74147  1.0000
  H   H1284     1.0  0.89476  0.68221  0.91936  1.0000
  H   H1285     1.0  0.88558  0.64334  0.76855  1.0000
  H   H1286     1.0  0.83009  0.68249  0.94546  1.0000
  S   S325      1.0  0.92226  0.72203  0.67826  1.0000
  S   S326      1.0  0.50499  0.69433  0.95631  1.0000
  S   S327      1.0  0.51209  0.62667  0.98405  1.0000
  C   C807      1.0  0.86235  0.69779  0.79679  1.0000
  H   H1287     1.0  0.90729  0.65657  0.74605  1.0000
  C   C808      1.0  0.97990  0.60579  0.63596  1.0000
  C   C809      1.0  0.81201  0.69370  0.80997  1.0000
  C   C810      1.0  0.82263  0.68683  0.78706  1.0000
  C   C811      1.0  0.84762  0.68910  0.78038  1.0000
  C   C812      1.0  0.85194  0.70389  0.82005  1.0000
  H   H1288     1.0  0.81903  0.70663  0.84455  1.0000
  H   H1289     1.0  0.81141  0.67995  0.77430  1.0000
  H   H1290     1.0  0.85545  0.68374  0.76269  1.0000
  S   S328      1.0  0.56657  0.59710  0.97514  1.0000
  H   H1291     1.0  0.93014  0.59331  0.79218  1.0000
  C   C813      1.0  0.77672  0.73316  0.96057  1.0000
  C   C814      1.0  0.96523  0.59261  0.65370  1.0000
  C   C815      1.0  0.94925  0.60502  0.67095  1.0000
  C   C816      1.0  0.94785  0.63071  0.67082  1.0000
  C   C817      1.0  0.96274  0.64390  0.65328  1.0000
  H   H1292     1.0  0.96385  0.56436  0.93481  1.0000
  H   H1293     1.0  0.98563  0.72822  0.74166  1.0000
  H   H1294     1.0  0.66699  0.69566  0.95503  1.0000
  H   H1295     1.0  0.96180  0.66366  0.65289  1.0000
  H   H1296     1.0  0.93948  0.61009  0.73693  1.0000
  C   C818      1.0  0.67810  0.69405  0.97132  1.0000
  Fe  Fe169     1.0  0.76146  0.71304  0.84807  1.0000
  S   S329      1.0  0.89382  0.70071  0.78887  1.0000
  H   H1297     1.0  0.85832  0.69419  0.89467  1.0000
  C   C819      1.0  0.50639  0.72073  0.97205  1.0000
  H   H1298     1.0  0.49358  0.63073  0.88097  1.0000
  H   H1299     1.0  0.93777  0.59463  0.68437  1.0000
  H   H1300     1.0  0.66578  0.70040  0.98715  1.0000
  H   H1301     1.0  0.83235  0.71195  0.90797  1.0000
  C   C820      1.0  0.82681  0.70203  0.82656  1.0000
  S   S330      1.0  0.78466  0.71749  0.93388  1.0000
  H   H1302     1.0  0.85932  0.71766  0.96723  1.0000
  S   S331      1.0  0.95448  0.60534  0.97362  1.0000
  S   S332      1.0  0.97903  0.49046  0.55420  1.0000
  H   H1303     1.0  0.68351  0.67419  0.97549  1.0000
  H   H1304     1.0  0.72981  0.71723  0.98591  1.0000
  N   N80       1.0  0.86129  0.70223  0.93217  1.0000
  N   N81       1.0  0.69971  0.70846  0.96650  1.0000
  Fe  Fe170     1.0  0.76317  0.72788  0.90023  1.0000
  H   H1305     1.0  0.49900  0.67519  0.87949  1.0000
  C   C821      1.0  0.85363  0.72236  0.94811  1.0000
  H   H1306     1.0  0.85729  0.67358  0.96149  1.0000
  S   S333      1.0  0.67332  0.72494  0.89166  1.0000
  C   C822      1.0  0.97861  0.63149  0.63589  1.0000
  C   C823      1.0  0.85048  0.67965  0.94306  1.0000
  H   H1307     1.0  0.50944  0.67025  0.90997  1.0000
  H   H1308     1.0  0.89542  0.69377  0.94894  1.0000
  Fe  Fe171     1.0  0.94380  0.64496  0.98079  1.0000
  H   H1309     1.0  0.50296  0.62589  0.91184  1.0000
  H   H1310     1.0  0.85528  0.66424  0.93119  1.0000
  H   H1311     1.0  0.83335  0.72640  0.94946  1.0000
  C   C824      1.0  0.85271  0.70890  0.90725  1.0000
  H   H1312     1.0  0.72210  0.67901  0.95019  1.0000
  S   S334      1.0  0.97962  0.49044  0.88972  1.0000
  C   C825      1.0  0.49283  0.67429  0.89950  1.0000
  H   H1313     1.0  0.48826  0.54083  0.92088  1.0000
  H   H1314     1.0  0.79163  0.72444  0.76465  1.0000
  S   S335      1.0  0.98321  0.60427  0.90192  1.0000
  H   H1315     1.0  0.75462  0.77407  0.19145  1.0000
  H   H1316     1.0  0.68076  0.74896  0.14210  1.0000
  H   H1317     1.0  0.49214  0.86898  0.23877  1.0000
  C   C826      1.0  0.56477  0.97303  0.01040  1.0000
  C   C827      1.0  0.50011  0.76359  0.24944  1.0000
  H   H1318     1.0  0.76675  0.82823  0.03577  1.0000
  H   H1319     1.0  0.88269  0.94316  0.43054  1.0000
  S   S336      1.0  0.70577  0.97638  0.00834  1.0000
  H   H1320     1.0  0.51188  0.94742  0.03058  1.0000
  H   H1321     1.0  0.62138  0.95939  0.43885  1.0000
  H   H1322     1.0  0.73515  0.86286  0.02811  1.0000
  C   C828      1.0  0.69891  0.76420  0.22112  1.0000
  H   H1323     1.0  0.98651  0.83433  0.01492  1.0000
  Fe  Fe172     1.0  0.77539  0.89970  0.30008  1.0000
  S   S337      1.0  0.73937  0.91815  0.28854  1.0000
  S   S338      1.0  0.78625  0.90727  0.33805  1.0000
  Fe  Fe173     1.0  0.78246  0.87043  0.25382  1.0000
  S   S339      1.0  0.74727  0.88707  0.23964  1.0000
  S   S340      1.0  0.80531  0.84220  0.23171  1.0000
  Fe  Fe174     1.0  0.75893  0.92218  0.25078  1.0000
  S   S341      1.0  0.75380  0.95524  0.22361  1.0000
  Fe  Fe175     1.0  0.73142  0.88099  0.27868  1.0000
  S   S342      1.0  0.69343  0.86754  0.28506  1.0000
  S   S343      1.0  0.79558  0.90614  0.26265  1.0000
  S   S344      1.0  0.76600  0.86196  0.29268  1.0000
  Fe  Fe176     1.0  0.65616  0.73621  0.27546  1.0000
  H   H1324     1.0  0.87933  0.93733  0.36345  1.0000
  S   S345      1.0  0.63419  0.75765  0.24691  1.0000
  C   C829      1.0  0.91504  0.91091  0.40829  1.0000
  H   H1325     1.0  0.88001  0.90642  0.37713  1.0000
  H   H1326     1.0  0.91172  0.86132  0.02914  1.0000
  Fe  Fe177     1.0  0.54038  0.95550  0.35442  1.0000
  S   S346      1.0  0.57806  0.94414  0.36742  1.0000
  S   S347      1.0  0.52804  0.94626  0.31831  1.0000
  Fe  Fe178     1.0  0.88037  0.98087  0.00787  1.0000
  Fe  Fe179     1.0  0.79450  0.78596  0.10645  1.0000
  S   S348      1.0  0.78730  0.82341  0.12134  1.0000
  H   H1327     1.0  0.93171  0.90599  0.39610  1.0000
  N   N82       1.0  0.53998  0.97248  0.02325  1.0000
  C   C830      1.0  0.87734  0.93665  0.41313  1.0000
  S   S349      1.0  0.81148  0.78004  0.06806  1.0000
  C   C831      1.0  0.89103  0.92255  0.37323  1.0000
  H   H1328     1.0  0.79677  0.95769  0.15021  1.0000
  H   H1329     1.0  0.53789  0.80940  0.27068  1.0000
  C   C832      1.0  0.51839  0.76207  0.26610  1.0000
  C   C833      1.0  0.73263  0.86430  0.04844  1.0000
  H   H1330     1.0  0.86657  0.92051  0.41824  1.0000
  N   N83       1.0  0.89903  0.93066  0.39616  1.0000
  H   H1331     1.0  0.51338  0.76425  0.28544  1.0000
  H   H1332     1.0  0.71348  0.80356  0.23978  1.0000
  H   H1333     1.0  0.97877  0.86646  0.01652  1.0000
  H   H1334     1.0  0.90530  0.89403  0.41313  1.0000
  H   H1335     1.0  0.90115  0.96788  0.38071  1.0000
  H   H1336     1.0  0.86481  0.95135  0.40443  1.0000
  H   H1337     1.0  0.71345  0.87198  0.05281  1.0000
  H   H1338     1.0  0.91867  0.95952  0.40704  1.0000
  C   C834      1.0  0.76643  0.98156  0.23103  1.0000
  C   C835      1.0  0.96640  0.93673  0.02438  1.0000
  C   C836      1.0  0.94179  0.94512  0.02101  1.0000
  H   H1339     1.0  0.78223  0.91211  0.20265  1.0000
  H   H1340     1.0  0.93542  0.88200  0.02596  1.0000
  H   H1341     1.0  0.49538  0.86372  0.28406  1.0000
  C   C837      1.0  0.76420  0.75713  0.00397  1.0000
  H   H1342     1.0  0.93197  0.95763  0.03332  1.0000
  H   H1343     1.0  0.61761  0.95645  0.39419  1.0000
  H   H1344     1.0  0.77673  0.84329  0.06081  1.0000
  C   C838      1.0  0.69190  0.83550  0.28633  1.0000
  C   C839      1.0  0.71204  0.81933  0.29239  1.0000
  C   C840      1.0  0.71019  0.79391  0.29429  1.0000
  C   C841      1.0  0.68841  0.78439  0.28952  1.0000
  C   C842      1.0  0.66833  0.80053  0.28309  1.0000
  C   C843      1.0  0.67000  0.82603  0.28178  1.0000
  H   H1345     1.0  0.72890  0.82638  0.29623  1.0000
  H   H1346     1.0  0.72573  0.78156  0.29949  1.0000
  H   H1347     1.0  0.65139  0.79340  0.27957  1.0000
  H   H1348     1.0  0.65432  0.83841  0.27710  1.0000
  C   C844      1.0  0.79847  0.83619  0.20174  1.0000
  C   C845      1.0  0.80996  0.81530  0.19120  1.0000
  C   C846      1.0  0.80600  0.81066  0.16691  1.0000
  C   C847      1.0  0.79087  0.82718  0.15274  1.0000
  C   C848      1.0  0.77910  0.84789  0.16336  1.0000
  C   C849      1.0  0.78267  0.85225  0.18782  1.0000
  H   H1349     1.0  0.82226  0.80280  0.20179  1.0000
  H   H1350     1.0  0.81530  0.79472  0.15892  1.0000
  H   H1351     1.0  0.76724  0.86067  0.15260  1.0000
  H   H1352     1.0  0.77360  0.86830  0.19568  1.0000
  H   H1353     1.0  0.63902  0.92694  0.36302  1.0000
  H   H1354     1.0  0.79156  0.96215  0.25569  1.0000
  C   C850      1.0  0.83401  0.96594  0.35826  1.0000
  C   C851      1.0  0.81874  0.95388  0.37634  1.0000
  C   C852      1.0  0.80434  0.93590  0.36982  1.0000
  C   C853      1.0  0.80473  0.93006  0.34517  1.0000
  C   C854      1.0  0.81992  0.94222  0.32710  1.0000
  C   C855      1.0  0.83471  0.95982  0.33371  1.0000
  H   H1355     1.0  0.81795  0.95840  0.39531  1.0000
  H   H1356     1.0  0.79263  0.92656  0.38391  1.0000
  H   H1357     1.0  0.82051  0.93779  0.30810  1.0000
  C   C856      1.0  0.97348  0.84805  0.02396  1.0000
  H   H1358     1.0  0.93282  0.86065  0.05273  1.0000
  H   H1359     1.0  0.69932  0.74400  0.22055  1.0000
  S   S350      1.0  0.89792  0.94323  0.99995  1.0000
  H   H1360     1.0  0.53626  0.75489  0.19665  1.0000
  N   N84       1.0  0.73782  0.84023  0.06227  1.0000
  H   H1361     1.0  0.75723  0.76523  0.23712  1.0000
  C   C857      1.0  0.58466  0.94992  0.44993  1.0000
  C   C858      1.0  0.60434  0.95477  0.43267  1.0000
  C   C859      1.0  0.60223  0.95293  0.40737  1.0000
  C   C860      1.0  0.58025  0.94682  0.39914  1.0000
  C   C861      1.0  0.56047  0.94235  0.41637  1.0000
  C   C862      1.0  0.56280  0.94354  0.44170  1.0000
  H   H1362     1.0  0.71166  0.80976  0.20707  1.0000
  H   H1363     1.0  0.52812  0.86303  0.27973  1.0000
  H   H1364     1.0  0.54361  0.93722  0.41029  1.0000
  Fe  Fe180     1.0  0.60213  0.73935  0.26603  1.0000
  H   H1365     1.0  0.74710  0.85555  0.09485  1.0000
  H   H1366     1.0  0.64209  0.88081  0.30365  1.0000
  H   H1367     1.0  0.75104  0.97745  0.43478  1.0000
  H   H1368     1.0  0.66855  0.91534  0.30066  1.0000
  S   S351      1.0  0.49546  0.85798  0.01380  1.0000
  C   C863      1.0  0.66555  0.91568  0.32111  1.0000
  S   S352      1.0  0.63515  0.97783  0.00223  1.0000
  C   C864      1.0  0.53506  0.82292  0.25445  1.0000
  H   H1369     1.0  0.76774  0.81272  0.06596  1.0000
  H   H1370     1.0  0.60329  0.91754  0.32541  1.0000
  H   H1371     1.0  0.72514  0.77656  0.17896  1.0000
  C   C865      1.0  0.93120  0.86292  0.03242  1.0000
  S   S353      1.0  0.81259  0.75084  0.12305  1.0000
  H   H1372     1.0  0.72348  0.81997  0.03560  1.0000
  H   H1373     1.0  0.72450  0.80439  0.06579  1.0000
  C   C866      1.0  0.53041  0.94863  0.02077  1.0000
  C   C867      1.0  0.64005  0.88192  0.32404  1.0000
  N   N85       1.0  0.80784  0.92573  0.17385  1.0000
  H   H1374     1.0  0.48980  0.97192  0.27339  1.0000
  H   H1375     1.0  0.81340  0.89023  0.15968  1.0000
  H   H1376     1.0  0.77371  0.97526  0.33754  1.0000
  H   H1377     1.0  0.71528  0.85013  0.09472  1.0000
  C   C868      1.0  0.50763  0.76338  0.99673  1.0000
  H   H1378     1.0  0.56450  0.97078  0.99034  1.0000
  H   H1379     1.0  0.57770  0.95805  0.01812  1.0000
  C   C869      1.0  0.79274  0.94913  0.16924  1.0000
  H   H1380     1.0  0.81277  0.89758  0.20374  1.0000
  H   H1381     1.0  0.54264  0.93310  0.02854  1.0000
  C   C870      1.0  0.92963  0.93626  0.00257  1.0000
  C   C871      1.0  0.54311  0.75807  0.25771  1.0000
  C   C872      1.0  0.54951  0.75495  0.23276  1.0000
  H   H1382     1.0  0.56083  0.79824  0.99258  1.0000
  S   S354      1.0  0.70198  0.98327  0.45689  1.0000
  H   H1383     1.0  0.75484  0.96690  0.02301  1.0000
  H   H1384     1.0  0.92120  0.91658  0.42573  1.0000
  H   H1385     1.0  0.52491  0.86913  0.23441  1.0000
  H   H1386     1.0  0.54762  0.93950  0.45497  1.0000
  H   H1387     1.0  0.92295  0.81642  0.02605  1.0000
  S   S355      1.0  0.75564  0.77223  0.03089  1.0000
  S   S356      1.0  0.75982  0.76944  0.10091  1.0000
  C   C873      1.0  0.94477  0.84819  0.99272  1.0000
  H   H1388     1.0  0.73783  0.74751  0.19182  1.0000
  H   H1389     1.0  0.97641  0.84608  0.04400  1.0000
  C   C874      1.0  0.96723  0.91203  0.98992  1.0000
  C   C875      1.0  0.49100  0.82353  0.26057  1.0000
  Fe  Fe181     1.0  0.77779  0.76113  0.06374  1.0000
  H   H1390     1.0  0.52883  0.94570  0.00103  1.0000
  C   C876      1.0  0.72247  0.79916  0.22142  1.0000
  H   H1391     1.0  0.72964  0.76243  0.25692  1.0000
  C   C877      1.0  0.97909  0.91973  0.00917  1.0000
  H   H1392     1.0  0.55133  0.83379  0.25172  1.0000
  H   H1393     1.0  0.55331  0.96112  0.05888  1.0000
  H   H1394     1.0  0.53813  0.87814  0.99033  1.0000
  S   S357      1.0  0.91065  0.97148  0.46962  1.0000
  C   C878      1.0  0.94214  0.81965  0.02899  1.0000
  C   C879      1.0  0.76340  0.83083  0.05585  1.0000
  H   H1395     1.0  0.83861  0.94334  0.18347  1.0000
  C   C880      1.0  0.91268  0.95266  0.39008  1.0000
  H   H1396     1.0  0.92567  0.84578  0.98873  1.0000
  H   H1397     1.0  0.73976  0.73911  0.23671  1.0000
  H   H1398     1.0  0.50941  0.84798  0.21924  1.0000
  N   N86       1.0  0.72390  0.77255  0.21870  1.0000
  C   C881      1.0  0.52349  0.74254  0.00241  1.0000
  C   C882      1.0  0.51240  0.85147  0.28083  1.0000
  C   C883      1.0  0.83409  0.93017  0.17051  1.0000
  C   C884      1.0  0.54117  0.97588  0.04972  1.0000
  H   H1399     1.0  0.90692  0.91749  0.36009  1.0000
  H   H1400     1.0  0.48985  0.81411  0.24352  1.0000
  H   H1401     1.0  0.51388  0.83822  0.29746  1.0000
  C   C885      1.0  0.72101  0.82277  0.05568  1.0000
  H   H1402     1.0  0.97544  0.94301  0.03922  1.0000
  H   H1403     1.0  0.53503  0.81225  0.23803  1.0000
  H   H1404     1.0  0.79597  0.96259  0.18247  1.0000
  C   C886      1.0  0.73833  0.75926  0.23817  1.0000
  S   S358      1.0  0.58663  0.95193  0.48180  1.0000
  H   H1405     1.0  0.92930  0.94885  0.37745  1.0000
  H   H1406     1.0  0.56859  0.75184  0.22617  1.0000
  H   H1407     1.0  0.68895  0.76871  0.23898  1.0000
  C   C887      1.0  0.80253  0.90821  0.15641  1.0000
  H   H1408     1.0  0.49234  0.80928  0.27636  1.0000
  H   H1409     1.0  0.84662  0.96891  0.31962  1.0000
  C   C888      1.0  0.78484  0.97985  0.24743  1.0000
  N   N87       1.0  0.51203  0.83875  0.25814  1.0000
  C   C889      1.0  0.73592  0.76750  0.19416  1.0000
  H   H1410     1.0  0.66737  0.93470  0.32569  1.0000
  H   H1411     1.0  0.84596  0.91289  0.17407  1.0000
  H   H1412     1.0  0.74506  0.87787  0.05295  1.0000
  H   H1413     1.0  0.61995  0.90212  0.36517  1.0000
  H   H1414     1.0  0.95446  0.80558  0.01942  1.0000
  C   C890      1.0  0.49508  0.98227  0.21054  1.0000
  H   H1415     1.0  0.53620  0.74275  0.01648  1.0000
  C   C891      1.0  0.50956  0.85703  0.23667  1.0000
  H   H1416     1.0  0.83923  0.93798  0.15139  1.0000
  S   S359      1.0  0.50494  0.94744  0.37548  1.0000
  C   C892      1.0  0.75476  0.98202  0.00883  1.0000
  Fe  Fe182     1.0  0.49120  0.94172  0.33878  1.0000
  H   H1417     1.0  0.73805  0.82501  0.10006  1.0000
  H   H1418     1.0  0.74103  0.80608  0.21987  1.0000
  H   H1419     1.0  0.70149  0.82924  0.06013  1.0000
  Fe  Fe183     1.0  0.82629  0.74296  0.08402  1.0000
  S   S360      1.0  0.68724  0.75228  0.29132  1.0000
  C   C893      1.0  0.49638  0.97937  0.25523  1.0000
  C   C894      1.0  0.80196  0.91541  0.19941  1.0000
  H   H1420     1.0  0.80690  0.91526  0.13689  1.0000
  H   H1421     1.0  0.62185  0.94273  0.32393  1.0000
  H   H1422     1.0  0.49469  0.81701  0.11181  1.0000
  C   C895      1.0  0.50653  0.76152  0.22430  1.0000
  H   H1423     1.0  0.65505  0.86927  0.33179  1.0000
  H   H1424     1.0  0.62379  0.92381  0.29846  1.0000
  N   N88       1.0  0.94788  0.84472  0.01953  1.0000
  H   H1425     1.0  0.80567  0.92826  0.21301  1.0000
  S   S361      1.0  0.50916  0.78980  0.01234  1.0000
  H   H1426     1.0  0.52266  0.97593  0.05986  1.0000
  H   H1427     1.0  0.78283  0.90454  0.15852  1.0000
  H   H1428     1.0  0.77279  0.94643  0.17174  1.0000
  H   H1429     1.0  0.68081  0.90358  0.32909  1.0000
  H   H1430     1.0  0.94452  0.81622  0.04912  1.0000
  H   H1431     1.0  0.68772  0.77279  0.20603  1.0000
  C   C896      1.0  0.73432  0.84291  0.08912  1.0000
  S   S362      1.0  0.56567  0.75851  0.27848  1.0000
  H   H1432     1.0  0.62228  0.87474  0.33116  1.0000
  N   N89       1.0  0.64139  0.90729  0.33043  1.0000
  C   C897      1.0  0.62177  0.92353  0.31898  1.0000
  H   H1433     1.0  0.57960  0.88741  0.99921  1.0000
  C   C898      1.0  0.63816  0.90803  0.35758  1.0000
  H   H1434     1.0  0.65255  0.89591  0.36692  1.0000
  C   C899      1.0  0.53121  0.75675  0.21606  1.0000
  H   H1435     1.0  0.72360  0.73955  0.12546  1.0000
  C   C900      1.0  0.78165  0.73696  0.00405  1.0000
  C   C901      1.0  0.73479  0.94242  0.52650  1.0000
  C   C902      1.0  0.67504  0.85077  0.68535  1.0000
  S   S363      1.0  0.85423  0.75517  0.68409  1.0000
  C   C903      1.0  0.74238  0.96743  0.55886  1.0000
  H   H1436     1.0  0.97700  0.94488  0.94583  1.0000
  N   N90       1.0  0.79812  0.76234  0.76502  1.0000
  H   H1437     1.0  0.79927  0.80143  0.75864  1.0000
  H   H1438     1.0  0.70745  0.74572  0.95567  1.0000
  H   H1439     1.0  0.57332  0.84064  0.98318  1.0000
  H   H1440     1.0  0.94908  0.86678  0.98485  1.0000
  H   H1441     1.0  0.71932  0.93436  0.53793  1.0000
  H   H1442     1.0  0.79449  0.77842  0.79992  1.0000
  Fe  Fe184     1.0  0.78469  0.88336  0.69310  1.0000
  S   S364      1.0  0.75661  0.86185  0.67957  1.0000
  S   S365      1.0  0.82386  0.86771  0.69733  1.0000
  Fe  Fe185     1.0  0.74635  0.92424  0.70839  1.0000
  S   S366      1.0  0.71558  0.90512  0.69628  1.0000
  S   S367      1.0  0.73306  0.95730  0.72912  1.0000
  Fe  Fe186     1.0  0.73431  0.87097  0.71431  1.0000
  S   S368      1.0  0.71276  0.84315  0.73788  1.0000
  Fe  Fe187     1.0  0.74070  0.89824  0.66257  1.0000
  S   S369      1.0  0.72727  0.89919  0.62395  1.0000
  S   S370      1.0  0.76309  0.89059  0.72888  1.0000
  S   S371      1.0  0.77079  0.91944  0.67349  1.0000
  C   C904      1.0  0.91602  0.97651  0.50026  1.0000
  H   H1443     1.0  0.76767  0.74562  0.75334  1.0000
  S   S372      1.0  0.75591  0.80306  0.83948  1.0000
  H   H1444     1.0  0.58414  0.78746  0.96992  1.0000
  H   H1445     1.0  0.67897  0.83092  0.69102  1.0000
  S   S373      1.0  0.50521  0.90004  0.95344  1.0000
  C   C905      1.0  0.75946  0.75347  0.96043  1.0000
  C   C906      1.0  0.77739  0.97781  0.72256  1.0000
  H   H1446     1.0  0.94257  0.97467  0.95870  1.0000
  S   S374      1.0  0.73126  0.75609  0.89648  1.0000
  S   S375      1.0  0.92798  0.98419  0.58156  1.0000
  H   H1447     1.0  0.79198  0.74593  0.80221  1.0000
  C   C907      1.0  0.92393  0.81811  0.63581  1.0000
  H   H1448     1.0  0.68954  0.86044  0.69249  1.0000
  H   H1449     1.0  0.77583  0.96691  0.52030  1.0000
  C   C908      1.0  0.90374  0.83223  0.67361  1.0000
  C   C909      1.0  0.58136  0.91833  0.97203  1.0000
  C   C910      1.0  0.56874  0.93289  0.95401  1.0000
  C   C911      1.0  0.54527  0.92732  0.94873  1.0000
  C   C912      1.0  0.53404  0.90747  0.96169  1.0000
  H   H1450     1.0  0.86179  0.73958  0.94074  1.0000
  H   H1451     1.0  0.90808  0.85144  0.66812  1.0000
  H   H1452     1.0  0.57737  0.94792  0.94358  1.0000
  H   H1453     1.0  0.53590  0.93825  0.93429  1.0000
  C   C913      1.0  0.56586  0.81414  0.93065  1.0000
  H   H1454     1.0  0.69685  0.92871  0.76952  1.0000
  H   H1455     1.0  0.96848  0.75810  0.98518  1.0000
  C   C914      1.0  0.75355  0.97888  0.73383  1.0000
  H   H1456     1.0  0.65822  0.82230  0.65416  1.0000
  H   H1457     1.0  0.63683  0.84865  0.65806  1.0000
  C   C915      1.0  0.72578  0.83004  0.76509  1.0000
  C   C916      1.0  0.74901  0.83546  0.77046  1.0000
  C   C917      1.0  0.75813  0.82689  0.79324  1.0000
  C   C918      1.0  0.74453  0.81198  0.81046  1.0000
  C   C919      1.0  0.72191  0.80531  0.80457  1.0000
  C   C920      1.0  0.71244  0.81455  0.78204  1.0000
  H   H1458     1.0  0.75993  0.84644  0.75720  1.0000
  H   H1459     1.0  0.77579  0.83185  0.79755  1.0000
  H   H1460     1.0  0.71129  0.79377  0.81776  1.0000
  H   H1461     1.0  0.69456  0.81000  0.77795  1.0000
  H   H1462     1.0  0.58522  0.80681  0.92671  1.0000
  H   H1463     1.0  0.93795  0.80483  0.62731  1.0000
  C   C921      1.0  0.94665  0.81777  0.67191  1.0000
  N   N91       1.0  0.67468  0.85553  0.65823  1.0000
  C   C922      1.0  0.67418  0.95924  0.58827  1.0000
  C   C923      1.0  0.68166  0.93786  0.57664  1.0000
  C   C924      1.0  0.69779  0.91958  0.58790  1.0000
  C   C925      1.0  0.70652  0.92243  0.61090  1.0000
  C   C926      1.0  0.69866  0.94356  0.62276  1.0000
  C   C927      1.0  0.68257  0.96185  0.61148  1.0000
  H   H1464     1.0  0.67501  0.93546  0.55898  1.0000
  H   H1465     1.0  0.70359  0.90319  0.57868  1.0000
  H   H1466     1.0  0.70516  0.94597  0.64050  1.0000
  H   H1467     1.0  0.83035  0.74009  0.77563  1.0000
  H   H1468     1.0  0.57393  0.85460  0.95212  1.0000
  H   H1469     1.0  0.77175  0.79007  0.75042  1.0000
  H   H1470     1.0  0.94639  0.81453  0.69242  1.0000
  C   C928      1.0  0.92429  0.98183  0.54994  1.0000
  C   C929      1.0  0.93789  0.96644  0.51015  1.0000
  N   N92       1.0  0.73749  0.96763  0.53259  1.0000
  Fe  Fe188     1.0  0.74814  0.76582  0.85811  1.0000
  H   H1471     1.0  0.65457  0.84563  0.62907  1.0000
  H   H1472     1.0  0.76718  0.76660  0.79178  1.0000
  C   C930      1.0  0.70567  0.91795  0.81738  1.0000
  C   C931      1.0  0.84488  0.78589  0.68978  1.0000
  C   C932      1.0  0.82525  0.79805  0.67752  1.0000
  C   C933      1.0  0.81806  0.82289  0.68045  1.0000
  C   C934      1.0  0.83053  0.83583  0.69562  1.0000
  C   C935      1.0  0.84971  0.82347  0.70849  1.0000
  C   C936      1.0  0.85681  0.79856  0.70567  1.0000
  H   H1473     1.0  0.81590  0.78839  0.66521  1.0000
  H   H1474     1.0  0.80351  0.83224  0.67016  1.0000
  H   H1475     1.0  0.85929  0.83333  0.72044  1.0000
  H   H1476     1.0  0.87172  0.78935  0.71551  1.0000
  H   H1477     1.0  0.65729  0.85708  0.69509  1.0000
  C   C937      1.0  0.78753  0.76340  0.79082  1.0000
  N   N93       1.0  0.92258  0.81436  0.66307  1.0000
  H   H1478     1.0  0.67677  0.97826  0.62068  1.0000
  H   H1479     1.0  0.69234  0.90389  0.82246  1.0000
  H   H1480     1.0  0.69880  0.97658  0.54024  1.0000
  H   H1481     1.0  0.74885  0.88304  0.78485  1.0000
  H   H1482     1.0  0.52210  0.81516  0.95667  1.0000
  S   S376      1.0  0.78188  0.74049  0.86373  1.0000
  H   H1483     1.0  0.71624  0.91899  0.83375  1.0000
  H   H1484     1.0  0.74656  0.88757  0.81713  1.0000
  H   H1485     1.0  0.92887  0.83691  0.62916  1.0000
  S   S377      1.0  0.65312  0.96000  0.50656  1.0000
  C   C938      1.0  0.49067  0.74168  0.96622  1.0000
  H   H1486     1.0  0.88532  0.83015  0.66731  1.0000
  H   H1487     1.0  0.55388  0.80056  0.92525  1.0000
  H   H1488     1.0  0.95222  0.83660  0.66657  1.0000
  H   H1489     1.0  0.95884  0.96109  0.54236  1.0000
  H   H1490     1.0  0.55269  0.78154  0.96833  1.0000
  C   C939      1.0  0.91600  0.78923  0.67099  1.0000
  C   C940      1.0  0.69866  0.84678  0.64633  1.0000
  Fe  Fe189     1.0  0.61642  0.97364  0.49269  1.0000
  H   H1491     1.0  0.96131  0.80456  0.66426  1.0000
  H   H1492     1.0  0.79978  0.78575  0.73111  1.0000
  N   N94       1.0  0.72204  0.91183  0.79546  1.0000
  C   C941      1.0  0.82506  0.75758  0.76471  1.0000
  H   H1493     1.0  0.78366  0.96336  0.71074  1.0000
  C   C942      1.0  0.73951  0.93083  0.78948  1.0000
  H   H1494     1.0  0.72983  0.94923  0.78515  1.0000
  C   C943      1.0  0.98671  0.75191  0.97798  1.0000
  H   H1495     1.0  0.69395  0.89650  0.77795  1.0000
  H   H1496     1.0  0.72325  0.87277  0.80445  1.0000
  H   H1497     1.0  0.90603  0.81555  0.62863  1.0000
  H   H1498     1.0  0.89783  0.78587  0.66491  1.0000
  H   H1499     1.0  0.75102  0.93221  0.80504  1.0000
  H   H1500     1.0  0.75540  0.97710  0.49688  1.0000
  S   S378      1.0  0.97029  0.96384  0.63588  1.0000
  H   H1501     1.0  0.91651  0.97601  0.63908  1.0000
  H   H1502     1.0  0.59655  0.83018  0.96039  1.0000
  H   H1503     1.0  0.83362  0.75625  0.74552  1.0000
  C   C944      1.0  0.73574  0.88778  0.80074  1.0000
  H   H1504     1.0  0.91511  0.78573  0.69144  1.0000
  C   C945      1.0  0.57687  0.83678  0.96343  1.0000
  H   H1505     1.0  0.92986  0.77526  0.66339  1.0000
  S   S379      1.0  0.96946  0.76074  0.69992  1.0000
  H   H1506     1.0  0.75927  0.95557  0.56311  1.0000
  H   H1507     1.0  0.83341  0.77241  0.77278  1.0000
  H   H1508     1.0  0.75167  0.93014  0.52968  1.0000
  H   H1509     1.0  0.70272  0.82668  0.65031  1.0000
  C   C946      1.0  0.94214  0.96930  0.53482  1.0000
  H   H1510     1.0  0.71897  0.90627  0.75736  1.0000
  S   S380      1.0  0.66980  0.96151  0.95321  1.0000
  H   H1511     1.0  0.69500  0.93599  0.81400  1.0000
  H   H1512     1.0  0.95818  0.97442  0.91432  1.0000
  Fe  Fe190     1.0  0.63064  0.95817  0.96881  1.0000
  C   C947      1.0  0.75811  0.97760  0.51680  1.0000
  H   H1513     1.0  0.75210  0.92683  0.77293  1.0000
  C   C948      1.0  0.79195  0.78592  0.75066  1.0000
  H   H1514     1.0  0.56264  0.83130  0.91840  1.0000
  S   S381      1.0  0.90542  0.74763  0.73082  1.0000
  C   C949      1.0  0.66987  0.88214  0.65171  1.0000
  H   H1515     1.0  0.68417  0.89263  0.65810  1.0000
  H   H1516     1.0  0.65187  0.88944  0.66018  1.0000
  H   H1517     1.0  0.66997  0.88650  0.63133  1.0000
  H   H1518     1.0  0.71381  0.85583  0.65302  1.0000
  H   H1519     1.0  0.69952  0.85096  0.62589  1.0000
  C   C950      1.0  0.65520  0.84243  0.64950  1.0000
  H   H1520     1.0  0.93336  0.91328  0.97236  1.0000
  N   N95       1.0  0.56066  0.81870  0.95696  1.0000
  C   C951      1.0  0.53485  0.82841  0.96123  1.0000
  H   H1521     1.0  0.90215  0.82977  0.69418  1.0000
  C   C952      1.0  0.70723  0.91077  0.77422  1.0000
  S   S382      1.0  0.61177  0.92285  0.97788  1.0000
  H   H1522     1.0  0.72703  0.96036  0.57130  1.0000
  C   C953      1.0  0.56487  0.79548  0.97258  1.0000
  H   H1523     1.0  0.70978  0.98278  0.50873  1.0000
  C   C954      1.0  0.56998  0.89872  0.98520  1.0000
  H   H1524     1.0  0.75118  0.76023  0.94360  1.0000
  C   C955      1.0  0.54640  0.89345  0.98023  1.0000
  Fe  Fe191     1.0  0.96558  0.97714  0.59608  1.0000
  H   H1525     1.0  0.95715  0.83484  0.98239  1.0000
  H   H1526     1.0  0.79599  0.74055  0.73457  1.0000
  C   C956      1.0  0.78792  0.74238  0.75383  1.0000
  H   H1527     1.0  0.88812  0.97857  0.65797  1.0000
  H   H1528     1.0  0.53082  0.84609  0.94999  1.0000
  S   S383      1.0  0.65486  0.98332  0.57443  1.0000
  H   H1529     1.0  0.95143  0.95608  0.49880  1.0000
  H   H1530     1.0  0.73971  0.78102  0.98192  1.0000
  C   C957      1.0  0.49126  0.76296  0.97854  1.0000
  C   C958      1.0  0.71461  0.98308  0.52808  1.0000
  H   H1531     1.0  0.97688  0.89969  0.97756  1.0000
  H   H1532     1.0  0.53033  0.83180  0.98095  1.0000
  Fe  Fe192     1.0  0.67314  0.98381  0.98515  1.0000
  H   H1533     1.0  0.73095  0.94211  0.50676  1.0000
  H   H1534     1.0  0.96129  0.98453  0.98063  1.0000
  N   N96       1.0  0.97843  0.98396  0.94362  1.0000
  C   C959      1.0  0.75308  0.76531  0.98214  1.0000
  S   S384      1.0  0.72840  0.73905  0.84051  1.0000
  H   H1535     1.0  0.67923  0.74242  0.97448  1.0000
  C   C960      1.0  0.94257  0.91998  0.98684  1.0000
  H   H1536     1.0  0.68144  0.73621  0.94251  1.0000
