data_image0
_chemical_formula_structural       FeSHFeS2FeSFeS3H5CHS2FeHNH6NH2NHSCHCHC2NSHCFeS2FeSHFeCFeS3NFeS2FeS2FeSFeS3C6H4C4H2FeH4C3H4S2NCHC6HCH4NCH4CHC2HC6HCHC6H4CH4SNHC3FeH2SHCH6CHC6H4C2HC3HSNHFeCH2C2H2SH7CNC6HCH2CH2CH4CH2FeH3SH2C2H4CH3SH3CH3SH4FeH2NCHCH2CS2CH5CH9C2H3CH2SHSHSCHFeH2C3H6CHC3H4FeHCHSFeSFeS2FeS2FeSFeS3FeS2FeS2FeSFeS3FeSHFeS2FeSFeS5HFe2H3CS2FeS2FeSHFeSFeS3C6H3C2HC4HC2HCH2C4HCH4C3H2CH3C6H4C6H4C6H4C6H4FeCH2FeC2SHCHC6H4FeHFeC2SHSCH3CS2H6CH4S2CH3CH5CH4CH2CNC4H12NC3H11C2SC2H4NC4HFeH3CH4CH2CNCH3NHSCH4CH3CH4SC3H3SH2NCHCHC2H2SCHCH4NC4H12CHCHFeC2SCSC2SCSCH2NCHNC2FeCNSHSNCH2CH5CH4CH3SCHCSCSFeHFeH3FeHCHCNHNHSH3CHSH3CSH2FeH4C2H2CH3SCH2CH4SH3C3NH2NCFeH3CNH2CHCHCHCH6CHCHC2H6CHCHCHCSH3CH3C3H4SC2H4SH2FeHSFeS2FeS2FeSFeHS3HCFeS2FeS2FeSFeS3FeS2FeS2FeSFeS3CFeHFeHCHSCFeS2FeSCFeSFeS3HCH2CSC6H6C3FeSH2NC7H3SC6H3C6H4C6H4C6H3C2H2C2HCH2C6H6C2H2C5H3C7H4CSH3SC2H3CFeH3NH2NC4H12NC4H3CH2SH6SHSHNHCHFeHSH3CHSH3C2NC4H12NC4H12NCH2C2H2CH4CH3NH3CH4C2H4CHCHCHC2H2SHNHC2HCFeSH2SCH2NSHC2H3SC2HNHCH2SH5NCH2CSHSHSHCSFe2H3SH2CHCHNCFeHFeC3NCH2CHC3HCHCH2C2H3CFeHCHCH2S2HCHCH4CHCSH2SH3C2SFeSFe2CHCSH8CH3CH6CNHSC2H3CH6NSHCSH5CH2C2H8CH4CH3C2H3CH2CHNHCHCHFeS2FeSHFeHFeS3C2HCHCSH3FeS2FeS2FeSFeS3HCHCHSFeSCFeS2FeSFeHS2H4C2H2FeCH2CHCH3CHCHC2HSNH4SH5C2HC3FeH3NH2C4H3CHC2HC4H3C6H2CHC6H4CH3C2H6SH2NC6H8C2HC2H2CH3FeH2NC2HCH2CH3FeC3H3CNH3C4H3CNCH2CH2SHFeH2SCH2N2SC2H2SCSHCH5CNHCHC2H3NH4CH7CHC2HCH2FeCHCHCHSHCH2FeHSCH3CHSHFeH8FeS2C2HNHC2H2NHCHSH3C2H4SH2CS2HCH3CH2CHC2HSNC2SCH2CFeH2C2HCHCH2C2FeCHCHCHC2HC2FeH4C3H3CHCHCH2C2S2C2HNHFeH4CH2CS2HSH2S4FeS2FeSFeSHNFeS2FeSFeS3HCH3FeCHCSFeSFeS2FeCSFe2S7FeHCSFeS2FeS2FeSFeS3C6H4C6H4C4H2C6H4C4H3FeH7FeHCH3C6H8C2HSC8H4CHC4H3SNHC6H6C2HC3H3C3H2CHFeH2FeCH3NHCHCSHCH2CNH6S2FeH3SH2SFeHS2CFeCHCH2CHNC4HCH11CSCHCHCH2CHFeHCHNH3FeH6C2SNH2NSH6NHC3HCSH2FeHNC4H12C2FeC3SFeCHSHNHFeC2HCHCHCHCHCHC2H2NS2HFeH3CH3C2NC4H14CHC3H4CH2NH2NC5H4C2H2CHFeNC4H12NC4H8SHCHCHCSH5CSH2SHSH2S3HS2HFeC3H2CHFeHSHCSH3C3HC2SC2H3CFe2SHCSFeNCH3CHCHSC3HSCHC2FeSCSH2CSHCH6CHCH2C2SHSHNCH3C4HCH2CHCHSCH7SCH5CH2SH2CHCH3C2H4CSFeS3FeHCSHCH3FeH3FeS2FeSFeS2FeSFeSFeS2FeS2FeSFeSFeS6FeSFeH5SHFeS2FeS2FeSFeS3C6H4C6H6NHC3H2C4H2C6H4C6H5C4H2C6H4CH4SFeNH3CHC3HCFeCH3CNSC6H5NC2H2SC4H4SC6H4CFeHNC4H12SH2CHCHSH2CSHSH2SC2NCNC4H14SH3C3HC2H2SCHNC4H13CFeHCSCFeCS3HCFeSH4CSCH3CHNSH2C2HSCHCS3H2CHCHC3H6CHCH2SHCHCH3SH2CNC4H12CHCHCH2CH2FeH2FeH2NHSCHFeHNC2H3CSHSHCHSCHC2H2FeHFeHSCSCHSHCHCH3C2HS2H2CHCFeH2S2H4CHSH2C2H4C2HCHC2HCNSFeNH7CHNC2H3C3SCH2CH3SCHCSCNSFeCH5CNC2HSFeC2H5FeSFeH3C2H2FeSCFeH3SC4H2CHCH3NCSH3FeH2CH9CHCH5CNH4C2HCH3CH2CH2CH2CHCH5C2FeH2CNHFeNC2HCHSHCHSHC2HCH2CHC3H3S2FeH2NFeS2H2SHC2H3C2FeHSHCH3CSH3CSH6CHCH5C2HCHC2H2SCHSH2FeHCSHC6H4CH3CH3FeHC2H3CHC3HFeCFeS2FeS2FeSFeS5H2SCFeH2CFeCHFeSCH2CSFeS2FeS2FeSFeHS2FeS2FeS2FeSFeS3FeS2FeS2FeSFeS3C6H3NC6H4FeH2C2HCH2C5HFeH3C6H4SC2H6C2H5CSHCHC6H4CH2C6H4C6H8CSC2HCSHC2HSH3Fe2HC2FeNFeH3SHCFeC2H2NH3CH3SH3CH6C2SFeHCHSCH3CHCH2SH3CH4CHFeHCH2SH8NHSH4NHC3H2C4H2SC2N2C4H5CH7C3HCS2H3C2H3C2NFeHCS2FeC2NC4H12CFeSH3FeHC2H4C2H5SHSC3H2CHSCH2SC2H2CH3CHCHSC2H4C3HCH2SCH3CNH5CFeHCH4CH6CHC4H7SNSH3SHC2SNH3CHC2H2CH2C2H6CNCH2SHCHNCH2CH5NHCFeS2FeS2FeSFeS3HCHC2HNHC2HFeS2FeSCFeHFeS3HCH6FeSHFeS2FeSFeHS2HCFeH2SHCH2C3H3CH2C7H5C2HNFeH8C4HSH4C2SC3H4SCHCHCH3C4NH3SCHNHNCHC2HC3H4NCHC6H5C2NH5SH4CH2CH2SH3FeH6C2H5NSFeNCH3SCHSCH3C2HFeCHCH3C3H6SCHCFeCHCHCH4C2HSCH2CHCH4CH2CHCHCH3C2H7CHSHC2H2CSHC2H2FeS2FeS2FeSFeS3H2NHSCHSH2FeS2FeSCFeCFeS3H3SCH3C2HFe2S2FeS2FeSFeS3CH2C3NCH2SC4SH3CH3C6H10CH2CS2HCH6CNH4C6H4C6H3CHCH2NH5CH2CHC5H3C3H8C4H4CH2CH6C2HCH2CH2CH2CHCHCH2CFeSC2HCHC2HNFeH2NCHCNFeHCH2CFeNC2H13CNH2CH2CSHNH4CH4CHCSH4CH2CNCHCHS2FeHSHSFe2S2FeS2FeSFeS3FeS2FeS2FeSFeS3FeSCFeS2FeSFeS3FeS2FeSHFeSFeS3CHNH4CSFeSCHCHC3HC2HNH2CH5CHC3H2C2H2CHC2H2C2HCH4C3HC2H2C7H4C6H4C6H4C6H4CHC5H3CHSHC3H5CH4NC4H15FeHCHCH2FeC5H3CH3CH2CH4FeH5C4H3C2H2Fe2H5NHNH3NH6C2NH2NC3H2SH6C2H2SHSC2HCH2CH3CH3CH3CSCH4NHCHCHC2HCH3CHCHCHCH3FeNH4SHCNSFeHSC4H2CHCH2CH2CH3FeS2CH3C2SC2FeSCNH2FeH2CSCHFeHCS2HSHC3FeS2CSCH2CNHCH2CH3C3H2CHSH4C3HSH5NH7SHSCHFeHCHCH2C2H4C2H2CH5CH2CSHS2NCHSHFeHFeSHFeS2FeS2FeSFeS3CH2CFeH2SH3SFeS3HS3HSH2SFeS2FeCFe2S3FeS2CHFeS2FeSFeSFeS5FeSC5H2C5H4FeC6H5NC4H2CFeCHCSC5SH2CSCHSC2S2CH2C3HNCSHCHC6H4C6H4C2FeNC2H4C6H5C6H4C3H2S2HNCH5CH3SCHFeH2NC4H12NC4H13CH2SC2SCH2CH4CH2CH3CHSH5SNC4H15C2H2CH2FeHSFeH2SH4FeC2HC2FeSH4CH2FeH3CH2SFeSC2H2CHCH2SHCNFeCSNCHC2HC2SCHCH3CH2C3H5FeH3SHCH2SCH5SH3Fe2H2C2HCHCNC2H2CFeHC4H4FeHSH2FeHCFeHSHCH2CNHCH4SHSC2SHCH2SCHC2H2SH4CHCH2S2CFeH3CHC2SCH4FeCHCSCH3CH4CNHCH3CSHC3SH5CSFeHCSCHCFeHSHCHNH4CH2CNH4CH3CH2CH2CHC2HCNH3NHCHCH2SNH3CH5CH2CHCHNFeSFeS2FeSFeHSC3H2CHCHCH2SCFeHNC3HC2H2SHC3H3CSCH5SC2SNHCHSHCHCH4SCHNH2C2HC3NHC2SHCH2C2H3SFeH2C2HCH3SHSCH5CHFeHCH3C2HC2H5C5H2C2H3SH2NHSHCHCHCH5C3H2SHCHCH2C2NHSC4FeHCH3CH4FeS2FeSHCFeS2FeH2CHCSHCH3CHCH9SHSCSCHC2HCH2C6H2CFeCH2CHCHCHCSH4SC2SFeSFeS2FeCFe2S3HS2HSFeSH2SH2SCHFeS2FeHSFe2S6CS2CHFeS2FeS2FeSFeS3HCSCHFeS2C2FeHCHC6H5C2HC3HSH2C6H4CSHC5H3C4H2C6H5CH3CFeCSH4FeCH3C6H5SH5CNC4H2C6H4FeC2H2C6H5CH4C2H6CH7NC4H12NS2H3Fe2HFeH2CFeH2CSH3CH4SHSH6CH2CHCH2C2NSH2NH3CSC4SCHC3H3SHSHCH4C2SCHSHFeCHCHCNCH5CH2CHNC4H12SCH2FeC2H2CHC2HC2H2NHSCHNH2NH4CHC2H2NC4H12NC4H7NSHSHCFeCHC3SCFeSFeC2SCSFeSFe2C2H3SH3C2H2CS2HFeCHSH3C2HSHNHNHC3HCSHSFeS3H2NH3C2H2SH2C2H4CH3C2HFeCH2SH2SCFeCSFeHCSHFeHFeCH5NHC2H6SFeH5CHCH2CH4CH6CHC2H2CSCH2SCH4SC3HCH2NH4C2SH2CHSH3C3H4CHCHC
_chemical_formula_sum              "Fe384 S768 H3072 C1920 N192"
_cell_length_a       67.3553
_cell_length_b       67.0594
_cell_length_c       67.1497
_cell_angle_alpha    75.4303
_cell_angle_beta     75.4693
_cell_angle_gamma    75.5004

_space_group_name_H-M_alt    "P 1"
_space_group_IT_number       1

loop_
  _space_group_symop_operation_xyz
  'x, y, z'

loop_
  _atom_site_type_symbol
  _atom_site_label
  _atom_site_symmetry_multiplicity
  _atom_site_fract_x
  _atom_site_fract_y
  _atom_site_fract_z
  _atom_site_occupancy
  Fe  Fe1       1.0  0.13001  0.46841  0.07478  1.0000
  S   S1        1.0  0.11129  0.45872  0.10702  1.0000
  H   H1        1.0  0.21892  0.46819  0.21415  1.0000
  Fe  Fe2       1.0  0.16967  0.43864  0.08438  1.0000
  S   S2        1.0  0.15455  0.42652  0.11759  1.0000
  S   S3        1.0  0.20388  0.42709  0.07222  1.0000
  Fe  Fe3       1.0  0.12774  0.42584  0.10336  1.0000
  S   S4        1.0  0.11527  0.39594  0.10949  1.0000
  Fe  Fe4       1.0  0.13977  0.46054  0.11819  1.0000
  S   S5        1.0  0.01188  0.46940  0.08192  1.0000
  S   S6        1.0  0.14415  0.43562  0.07023  1.0000
  S   S7        1.0  0.15705  0.47256  0.08602  1.0000
  H   H2        1.0  0.14341  0.01344  0.36551  1.0000
  H   H3        1.0  0.16890  0.05664  0.36535  1.0000
  H   H4        1.0  0.20799  0.37514  0.05093  1.0000
  H   H5        1.0  0.19017  0.03757  0.35483  1.0000
  H   H6        1.0  0.04628  0.39919  0.12514  1.0000
  C   C1        1.0  0.11624  0.42614  0.01036  1.0000
  H   H7        1.0  0.09394  0.16369  0.44316  1.0000
  S   S8        1.0  0.15575  0.35020  0.04053  1.0000
  S   S9        1.0  0.16128  0.08996  0.42830  1.0000
  Fe  Fe5       1.0  0.21200  0.02404  0.41450  1.0000
  H   H8        1.0  0.24293  0.47593  0.25547  1.0000
  N   N1        1.0  0.01270  0.43297  0.99505  1.0000
  H   H9        1.0  0.18010  0.46063  0.04223  1.0000
  H   H10       1.0  0.20590  0.38158  0.08594  1.0000
  H   H11       1.0  0.16046  0.37804  0.06597  1.0000
  H   H12       1.0  0.02267  0.05084  0.26292  1.0000
  H   H13       1.0  0.00910  0.26233  0.02486  1.0000
  H   H14       1.0  0.10895  0.49126  0.00800  1.0000
  N   N2        1.0  0.21568  0.47530  0.24456  1.0000
  H   H15       1.0  0.01406  0.15226  0.38995  1.0000
  H   H16       1.0  0.18962  0.36893  0.10856  1.0000
  N   N3        1.0  0.10949  0.40647  0.02251  1.0000
  H   H17       1.0  0.03374  0.36421  0.11246  1.0000
  S   S10       1.0  0.16017  0.01270  0.28464  1.0000
  C   C2        1.0  0.09816  0.14738  0.45207  1.0000
  H   H18       1.0  0.19245  0.47759  0.22661  1.0000
  C   C3        1.0  0.21443  0.45356  0.25589  1.0000
  H   H19       1.0  0.00263  0.23774  0.26827  1.0000
  C   C4        1.0  0.04209  0.08355  0.25589  1.0000
  C   C5        1.0  0.19964  0.36691  0.09297  1.0000
  N   N4        1.0  0.03711  0.06856  0.27583  1.0000
  S   S11       1.0  0.21831  0.05375  0.41963  1.0000
  H   H20       1.0  0.14299  0.11318  0.46180  1.0000
  C   C6        1.0  0.01838  0.01671  0.38128  1.0000
  Fe  Fe6       1.0  0.03981  0.36384  0.05577  1.0000
  S   S12       1.0  0.03843  0.32990  0.07026  1.0000
  S   S13       1.0  0.04043  0.39041  0.07062  1.0000
  Fe  Fe7       1.0  0.03827  0.35901  0.01241  1.0000
  S   S14       1.0  0.03754  0.32486  0.02253  1.0000
  H   H21       1.0  0.00037  0.40497  0.00070  1.0000
  Fe  Fe8       1.0  0.01437  0.33369  0.05070  1.0000
  C   C7        1.0  0.99572  0.22239  0.23782  1.0000
  Fe  Fe9       1.0  0.06149  0.32376  0.04072  1.0000
  S   S15       1.0  0.09059  0.29901  0.03819  1.0000
  S   S16       1.0  0.01333  0.36836  0.03917  1.0000
  S   S17       1.0  0.06464  0.35735  0.02773  1.0000
  N   N5        1.0  0.18771  0.36280  0.07921  1.0000
  Fe  Fe10      1.0  0.09732  0.10436  0.34857  1.0000
  S   S18       1.0  0.08786  0.07342  0.36410  1.0000
  S   S19       1.0  0.13082  0.10737  0.34299  1.0000
  Fe  Fe11      1.0  0.05392  0.12628  0.34129  1.0000
  S   S20       1.0  0.04102  0.09713  0.35566  1.0000
  S   S21       1.0  0.02967  0.15443  0.33136  1.0000
  Fe  Fe12      1.0  0.05942  0.09299  0.38031  1.0000
  S   S22       1.0  0.04201  0.08372  0.41305  1.0000
  Fe  Fe13      1.0  0.07042  0.08053  0.33808  1.0000
  S   S23       1.0  0.06869  0.05461  0.32371  1.0000
  S   S24       1.0  0.07031  0.12353  0.36740  1.0000
  S   S25       1.0  0.08196  0.11001  0.32101  1.0000
  C   C8        1.0  0.06711  0.09976  0.46279  1.0000
  C   C9        1.0  0.07972  0.09891  0.44286  1.0000
  C   C10       1.0  0.07197  0.09440  0.42727  1.0000
  C   C11       1.0  0.05184  0.09015  0.43185  1.0000
  C   C12       1.0  0.03927  0.09106  0.45171  1.0000
  C   C13       1.0  0.04671  0.09640  0.46694  1.0000
  H   H22       1.0  0.09544  0.10164  0.43946  1.0000
  H   H23       1.0  0.08166  0.09375  0.41189  1.0000
  H   H24       1.0  0.02371  0.08777  0.45527  1.0000
  H   H25       1.0  0.22113  0.47958  0.99584  1.0000
  C   C14       1.0  0.99554  0.27245  0.03223  1.0000
  C   C15       1.0  0.23297  0.41098  0.04095  1.0000
  C   C16       1.0  0.03816  0.36111  0.12804  1.0000
  C   C17       1.0  0.20731  0.47267  0.00496  1.0000
  H   H26       1.0  0.22430  0.00069  0.34524  1.0000
  H   H27       1.0  0.02855  0.09680  0.25354  1.0000
  Fe  Fe14      1.0  0.01848  0.46024  0.05055  1.0000
  H   H28       1.0  0.01376  0.29137  0.03889  1.0000
  H   H29       1.0  0.03652  0.09803  0.48178  1.0000
  H   H30       1.0  0.02027  0.41090  0.13683  1.0000
  H   H31       1.0  0.02964  0.02911  0.33951  1.0000
  C   C18       1.0  0.02522  0.13302  0.28197  1.0000
  C   C19       1.0  0.03308  0.13755  0.29737  1.0000
  C   C20       1.0  0.01981  0.14914  0.31190  1.0000
  H   H32       1.0  0.01795  0.46373  0.99345  1.0000
  H   H33       1.0  0.12049  0.10734  0.45667  1.0000
  H   H34       1.0  0.03570  0.12445  0.27050  1.0000
  H   H35       1.0  0.04953  0.13238  0.29777  1.0000
  S   S26       1.0  0.99435  0.48639  0.03752  1.0000
  S   S27       1.0  0.17583  0.38987  0.99437  1.0000
  N   N6        1.0  0.00827  0.01420  0.36514  1.0000
  C   C21       1.0  0.13090  0.14034  0.42767  1.0000
  H   H36       1.0  0.11073  0.37548  0.01799  1.0000
  C   C22       1.0  0.09399  0.04375  0.31177  1.0000
  C   C23       1.0  0.09830  0.02314  0.30880  1.0000
  C   C24       1.0  0.11861  0.01396  0.29997  1.0000
  C   C25       1.0  0.13458  0.02538  0.29375  1.0000
  C   C26       1.0  0.13020  0.04627  0.29614  1.0000
  C   C27       1.0  0.10991  0.05540  0.30539  1.0000
  H   H37       1.0  0.08608  0.01407  0.31389  1.0000
  C   C28       1.0  0.00029  0.33297  0.98910  1.0000
  H   H38       1.0  0.14255  0.05518  0.29133  1.0000
  H   H39       1.0  0.10666  0.07139  0.30757  1.0000
  H   H40       1.0  0.17518  0.39552  0.06932  1.0000
  H   H41       1.0  0.11509  0.34723  0.06541  1.0000
  N   N7        1.0  0.12108  0.14031  0.45000  1.0000
  C   C29       1.0  0.01404  0.18961  0.25553  1.0000
  H   H42       1.0  0.15902  0.38238  0.09162  1.0000
  H   H43       1.0  0.22112  0.49177  0.02809  1.0000
  H   H44       1.0  0.19291  0.35814  0.04760  1.0000
  H   H45       1.0  0.19287  0.32945  0.09146  1.0000
  C   C30       1.0  0.20150  0.36074  0.05858  1.0000
  H   H46       1.0  0.07851  0.41729  0.01585  1.0000
  C   C31       1.0  0.16981  0.38047  0.07637  1.0000
  C   C32       1.0  0.17983  0.34317  0.08898  1.0000
  H   H47       1.0  0.17079  0.33966  0.07892  1.0000
  C   C33       1.0  0.13884  0.33383  0.04171  1.0000
  C   C34       1.0  0.11919  0.33626  0.05503  1.0000
  C   C35       1.0  0.10452  0.32507  0.05432  1.0000
  C   C36       1.0  0.10982  0.31080  0.04092  1.0000
  C   C37       1.0  0.12991  0.30744  0.02847  1.0000
  C   C38       1.0  0.14435  0.31926  0.02858  1.0000
  H   H48       1.0  0.08902  0.32754  0.06407  1.0000
  C   C39       1.0  0.11933  0.39869  0.04109  1.0000
  H   H49       1.0  0.05248  0.03995  0.29347  1.0000
  C   C40       1.0  0.15371  0.09295  0.40442  1.0000
  C   C41       1.0  0.13402  0.08962  0.40442  1.0000
  C   C42       1.0  0.12704  0.09388  0.38551  1.0000
  C   C43       1.0  0.13978  0.10138  0.36657  1.0000
  C   C44       1.0  0.15976  0.10405  0.36648  1.0000
  C   C45       1.0  0.16672  0.09987  0.38542  1.0000
  H   H50       1.0  0.12418  0.08380  0.41903  1.0000
  H   H51       1.0  0.11177  0.09152  0.38555  1.0000
  H   H52       1.0  0.16970  0.10971  0.35181  1.0000
  H   H53       1.0  0.18199  0.10239  0.38537  1.0000
  C   C46       1.0  0.09746  0.48455  0.02058  1.0000
  H   H54       1.0  0.99504  0.04725  0.35776  1.0000
  H   H55       1.0  0.00485  0.09919  0.39236  1.0000
  H   H56       1.0  0.20989  0.47388  0.14458  1.0000
  H   H57       1.0  0.14677  0.00092  0.44675  1.0000
  S   S28       1.0  0.03485  0.00613  0.28838  1.0000
  N   N8        1.0  0.19451  0.48501  0.02079  1.0000
  H   H58       1.0  0.01869  0.18039  0.27050  1.0000
  C   C47       1.0  0.21175  0.41895  0.04802  1.0000
  C   C48       1.0  0.19734  0.42025  0.03571  1.0000
  C   C49       1.0  0.20411  0.41352  0.01656  1.0000
  Fe  Fe15      1.0  0.22227  0.03571  0.45216  1.0000
  H   H59       1.0  0.18098  0.42652  0.04073  1.0000
  H   H60       1.0  0.19305  0.41561  0.00675  1.0000
  S   S29       1.0  0.13566  0.47974  0.14310  1.0000
  H   H61       1.0  0.18441  0.01613  0.33245  1.0000
  C   C50       1.0  0.17763  0.47683  0.14303  1.0000
  H   H62       1.0  0.00724  0.01686  0.39664  1.0000
  H   H63       1.0  0.13399  0.29623  0.01832  1.0000
  H   H64       1.0  0.07913  0.99925  0.28090  1.0000
  H   H65       1.0  0.21321  0.35384  0.09564  1.0000
  H   H66       1.0  0.18112  0.46503  0.13356  1.0000
  H   H67       1.0  0.08079  0.39600  0.03800  1.0000
  C   C51       1.0  0.00393  0.13954  0.28135  1.0000
  H   H68       1.0  0.09014  0.14691  0.46880  1.0000
  C   C52       1.0  0.09537  0.39494  0.09710  1.0000
  C   C53       1.0  0.09351  0.37544  0.09434  1.0000
  C   C54       1.0  0.07734  0.37396  0.08528  1.0000
  C   C55       1.0  0.06234  0.39184  0.07981  1.0000
  C   C56       1.0  0.06417  0.41130  0.08258  1.0000
  C   C57       1.0  0.08083  0.41297  0.09081  1.0000
  H   H69       1.0  0.10468  0.36142  0.09921  1.0000
  H   H70       1.0  0.07604  0.35886  0.08327  1.0000
  H   H71       1.0  0.05245  0.42511  0.07853  1.0000
  H   H72       1.0  0.08199  0.42807  0.09297  1.0000
  C   C58       1.0  0.06718  0.46797  0.03210  1.0000
  C   C59       1.0  0.08193  0.47692  0.01587  1.0000
  H   H73       1.0  0.14458  0.06561  0.32998  1.0000
  C   C60       1.0  0.09865  0.48264  0.04152  1.0000
  C   C61       1.0  0.08411  0.47337  0.05770  1.0000
  C   C62       1.0  0.06814  0.46648  0.05299  1.0000
  H   H74       1.0  0.00001  0.36131  0.15274  1.0000
  S   S30       1.0  0.11856  0.49137  0.04746  1.0000
  N   N9        1.0  0.00083  0.21036  0.25822  1.0000
  H   H75       1.0  0.05689  0.45955  0.06558  1.0000
  Fe  Fe16      1.0  0.17438  0.35632  0.00788  1.0000
  C   C63       1.0  0.99819  0.28907  0.03997  1.0000
  H   H76       1.0  0.04459  0.43132  0.99666  1.0000
  H   H77       1.0  0.16893  0.00991  0.37087  1.0000
  C   C64       1.0  0.00343  0.37689  0.14396  1.0000
  C   C65       1.0  0.99604  0.42075  0.00492  1.0000
  H   H78       1.0  0.01646  0.01242  0.33244  1.0000
  H   H79       1.0  0.13341  0.42342  0.00397  1.0000
  S   S31       1.0  0.99736  0.43684  0.06153  1.0000
  H   H80       1.0  0.13670  0.39559  0.03645  1.0000
  H   H81       1.0  0.08116  0.42212  0.03997  1.0000
  H   H82       1.0  0.00564  0.18004  0.25038  1.0000
  H   H83       1.0  0.20656  0.48784  0.27281  1.0000
  H   H84       1.0  0.00069  0.12926  0.36275  1.0000
  H   H85       1.0  0.02457  0.40212  0.11282  1.0000
  H   H86       1.0  0.08139  0.47792  0.99968  1.0000
  C   C66       1.0  0.20896  0.47922  0.22434  1.0000
  N   N10       1.0  0.16032  0.03785  0.34838  1.0000
  C   C67       1.0  0.14118  0.05329  0.34427  1.0000
  C   C68       1.0  0.15488  0.02190  0.36740  1.0000
  C   C69       1.0  0.17546  0.04873  0.35169  1.0000
  C   C70       1.0  0.16962  0.02750  0.33022  1.0000
  C   C71       1.0  0.11582  0.39045  0.00927  1.0000
  C   C72       1.0  0.23748  0.47822  0.24055  1.0000
  H   H87       1.0  0.13390  0.06152  0.35758  1.0000
  C   C73       1.0  0.08650  0.41063  0.02938  1.0000
  H   H88       1.0  0.00063  0.45358  0.01669  1.0000
  H   H89       1.0  0.22466  0.44187  0.24658  1.0000
  C   C74       1.0  0.19394  0.48189  0.14932  1.0000
  H   H90       1.0  0.02711  0.22454  0.25486  1.0000
  H   H91       1.0  0.17968  0.06109  0.33773  1.0000
  C   C75       1.0  0.17584  0.47600  0.03178  1.0000
  H   H92       1.0  0.03002  0.35727  0.16998  1.0000
  H   H93       1.0  0.01627  0.21332  0.28143  1.0000
  H   H94       1.0  0.02868  0.19119  0.24362  1.0000
  H   H95       1.0  0.03288  0.30012  0.99229  1.0000
  C   C76       1.0  0.22519  0.40479  0.00988  1.0000
  H   H96       1.0  0.14822  0.13507  0.42549  1.0000
  H   H97       1.0  0.04944  0.37324  0.15814  1.0000
  Fe  Fe17      1.0  0.18401  0.05958  0.43403  1.0000
  H   H98       1.0  0.99889  0.32294  0.00513  1.0000
  H   H99       1.0  0.16729  0.47373  0.02053  1.0000
  H   H100      1.0  0.10906  0.39602  0.99485  1.0000
  S   S32       1.0  0.18823  0.04415  0.46677  1.0000
  H   H101      1.0  0.01463  0.04901  0.29068  1.0000
  H   H102      1.0  0.21942  0.45008  0.27122  1.0000
  C   C77       1.0  0.12585  0.11880  0.46255  1.0000
  C   C78       1.0  0.03252  0.37295  0.16050  1.0000
  H   H103      1.0  0.15879  0.01865  0.32771  1.0000
  H   H104      1.0  0.01004  0.22511  0.22584  1.0000
  H   H105      1.0  0.17323  0.03912  0.31541  1.0000
  H   H106      1.0  0.04617  0.07573  0.24221  1.0000
  C   C79       1.0  0.05545  0.05127  0.27828  1.0000
  H   H107      1.0  0.06951  0.05726  0.27807  1.0000
  H   H108      1.0  0.19815  0.45087  0.25916  1.0000
  H   H109      1.0  0.11481  0.38373  0.05050  1.0000
  S   S33       1.0  0.22306  0.01356  0.38326  1.0000
  H   H110      1.0  0.04488  0.08664  0.29406  1.0000
  H   H111      1.0  0.02353  0.38496  0.16999  1.0000
  H   H112      1.0  0.11252  0.43817  0.02025  1.0000
  C   C80       1.0  0.20717  0.48460  0.03603  1.0000
  H   H113      1.0  0.12185  0.05381  0.48294  1.0000
  H   H114      1.0  0.05522  0.36081  0.12513  1.0000
  H   H115      1.0  0.02417  0.03172  0.37668  1.0000
  S   S34       1.0  0.17745  0.03140  0.42675  1.0000
  H   H116      1.0  0.05561  0.09043  0.25560  1.0000
  H   H117      1.0  0.03554  0.34513  0.13639  1.0000
  H   H118      1.0  0.12515  0.12937  0.42146  1.0000
  H   H119      1.0  0.02602  0.12645  0.38512  1.0000
  Fe  Fe18      1.0  0.18525  0.01519  0.45804  1.0000
  H   H120      1.0  0.12183  0.01648  0.48387  1.0000
  H   H121      1.0  0.15972  0.31707  0.01857  1.0000
  N   N11       1.0  0.02591  0.37728  0.14019  1.0000
  C   C81       1.0  0.03177  0.07952  0.29359  1.0000
  H   H122      1.0  0.12932  0.04564  0.34186  1.0000
  C   C82       1.0  0.03168  0.42253  0.00378  1.0000
  H   H123      1.0  0.23686  0.07820  0.45737  1.0000
  H   H124      1.0  0.02861  0.42149  0.02109  1.0000
  C   C83       1.0  0.20185  0.49024  0.25748  1.0000
  S   S35       1.0  0.04825  0.45780  0.02613  1.0000
  S   S36       1.0  0.21943  0.00528  0.44544  1.0000
  C   C84       1.0  0.01904  0.05994  0.27561  1.0000
  H   H125      1.0  0.21497  0.34729  0.06006  1.0000
  H   H126      1.0  0.01761  0.09225  0.29258  1.0000
  H   H127      1.0  0.99603  0.10299  0.41876  1.0000
  H   H128      1.0  0.99788  0.38056  0.12888  1.0000
  H   H129      1.0  0.00506  0.07262  0.27323  1.0000
  C   C85       1.0  0.02949  0.39825  0.12825  1.0000
  H   H130      1.0  0.02855  0.06849  0.30891  1.0000
  H   H131      1.0  0.05949  0.04209  0.26561  1.0000
  H   H132      1.0  0.14799  0.02916  0.38145  1.0000
  H   H133      1.0  0.09144  0.13706  0.44604  1.0000
  H   H134      1.0  0.16449  0.48653  0.04164  1.0000
  H   H135      1.0  0.16916  0.34433  0.10446  1.0000
  H   H136      1.0  0.03734  0.00110  0.34649  1.0000
  H   H137      1.0  0.11456  0.41022  0.05164  1.0000
  H   H138      1.0  0.12233  0.15495  0.47456  1.0000
  C   C86       1.0  0.12942  0.15469  0.45772  1.0000
  C   C87       1.0  0.01330  0.13533  0.39551  1.0000
  H   H139      1.0  0.01691  0.13009  0.41156  1.0000
  H   H140      1.0  0.09228  0.04547  0.47348  1.0000
  H   H141      1.0  0.11802  0.11796  0.47935  1.0000
  C   C88       1.0  0.99859  0.15620  0.31100  1.0000
  H   H142      1.0  0.08495  0.47167  0.07390  1.0000
  H   H143      1.0  0.12753  0.15623  0.41763  1.0000
  S   S37       1.0  0.20881  0.34486  0.99896  1.0000
  H   H144      1.0  0.13307  0.38652  0.00415  1.0000
  S   S38       1.0  0.07719  0.10425  0.48264  1.0000
  H   H145      1.0  0.19806  0.47208  0.99359  1.0000
  S   S39       1.0  0.99452  0.13276  0.26237  1.0000
  C   C89       1.0  0.15684  0.48656  0.14955  1.0000
  H   H146      1.0  0.21298  0.46818  0.04397  1.0000
  Fe  Fe19      1.0  0.00120  0.00320  0.29614  1.0000
  H   H147      1.0  0.18521  0.48872  0.26070  1.0000
  H   H148      1.0  0.12208  0.99793  0.29804  1.0000
  C   C90       1.0  0.00543  0.45433  0.99955  1.0000
  C   C91       1.0  0.02357  0.01424  0.34501  1.0000
  C   C92       1.0  0.01223  0.22203  0.26602  1.0000
  H   H149      1.0  0.21336  0.45620  0.01242  1.0000
  H   H150      1.0  0.99958  0.29292  0.98956  1.0000
  H   H151      1.0  0.03197  0.00365  0.38386  1.0000
  H   H152      1.0  0.12613  0.17108  0.44863  1.0000
  H   H153      1.0  0.03748  0.40625  0.00092  1.0000
  H   H154      1.0  0.10823  0.43310  0.99688  1.0000
  C   C93       1.0  0.23969  0.40392  0.02192  1.0000
  H   H155      1.0  0.14670  0.14975  0.45636  1.0000
  C   C94       1.0  0.00086  0.99410  0.37189  1.0000
  C   C95       1.0  0.21087  0.99535  0.37837  1.0000
  C   C96       1.0  0.09227  0.42994  0.82397  1.0000
  H   H156      1.0  0.21112  0.18067  0.52455  1.0000
  H   H157      1.0  0.10763  0.14211  0.65855  1.0000
  H   H158      1.0  0.10742  0.24528  0.69766  1.0000
  H   H159      1.0  0.16443  0.31444  0.92157  1.0000
  Fe  Fe20      1.0  0.17142  0.38363  0.96485  1.0000
  H   H160      1.0  0.10346  0.00316  0.50384  1.0000
  C   C97       1.0  0.22835  0.15569  0.62055  1.0000
  H   H161      1.0  0.05580  0.15541  0.60404  1.0000
  S   S40       1.0  0.03034  0.13017  0.52256  1.0000
  Fe  Fe21      1.0  0.19032  0.05671  0.70135  1.0000
  S   S41       1.0  0.16000  0.07901  0.70894  1.0000
  Fe  Fe22      1.0  0.17492  0.17124  0.79663  1.0000
  S   S42       1.0  0.14422  0.16216  0.81301  1.0000
  S   S43       1.0  0.19929  0.17462  0.81193  1.0000
  Fe  Fe23      1.0  0.16609  0.17793  0.75320  1.0000
  S   S44       1.0  0.13419  0.17009  0.76554  1.0000
  S   S45       1.0  0.18140  0.18775  0.71961  1.0000
  Fe  Fe24      1.0  0.13111  0.18940  0.78941  1.0000
  S   S46       1.0  0.10383  0.21583  0.79590  1.0000
  Fe  Fe25      1.0  0.15050  0.14369  0.78758  1.0000
  S   S47       1.0  0.14907  0.10954  0.79353  1.0000
  S   S48       1.0  0.16155  0.19971  0.77495  1.0000
  S   S49       1.0  0.18258  0.15038  0.77347  1.0000
  Fe  Fe26      1.0  0.17437  0.19629  0.58393  1.0000
  S   S50       1.0  0.14927  0.22123  0.57099  1.0000
  S   S51       1.0  0.20882  0.18799  0.57159  1.0000
  Fe  Fe27      1.0  0.14500  0.18277  0.62451  1.0000
  S   S52       1.0  0.11689  0.20599  0.61498  1.0000
  S   S53       1.0  0.14383  0.16046  0.65572  1.0000
  Fe  Fe28      1.0  0.12934  0.19638  0.58349  1.0000
  S   S54       1.0  0.11390  0.18923  0.56022  1.0000
  Fe  Fe29      1.0  0.13921  0.22846  0.60352  1.0000
  S   S55       1.0  0.13437  0.26053  0.61130  1.0000
  S   S56       1.0  0.15549  0.17108  0.59442  1.0000
  S   S57       1.0  0.16623  0.20570  0.61482  1.0000
  Fe  Fe30      1.0  0.05662  0.30175  0.89571  1.0000
  S   S58       1.0  0.06142  0.33437  0.89267  1.0000
  H   H162      1.0  0.21485  0.28879  0.61629  1.0000
  Fe  Fe31      1.0  0.09903  0.28797  0.86945  1.0000
  S   S59       1.0  0.10781  0.31926  0.86392  1.0000
  S   S60       1.0  0.12234  0.25968  0.86033  1.0000
  Fe  Fe32      1.0  0.09375  0.31855  0.89789  1.0000
  S   S61       1.0  0.10967  0.32696  0.91950  1.0000
  Fe  Fe33      1.0  0.07487  0.33254  0.85896  1.0000
  S   S62       1.0  0.07161  0.36102  0.83307  1.0000
  S   S63       1.0  0.08766  0.28602  0.90409  1.0000
  S   S64       1.0  0.06727  0.30115  0.86133  1.0000
  S   S65       1.0  0.16676  0.48613  0.78910  1.0000
  S   S66       1.0  0.06562  0.09192  0.54369  1.0000
  H   H163      1.0  0.14857  0.22901  0.71357  1.0000
  Fe  Fe34      1.0  0.05408  0.10219  0.51337  1.0000
  Fe  Fe35      1.0  0.18109  0.42012  0.84143  1.0000
  H   H164      1.0  0.19716  0.25714  0.82531  1.0000
  H   H165      1.0  0.10208  0.32548  0.96394  1.0000
  H   H166      1.0  0.24008  0.28056  0.93455  1.0000
  C   C98       1.0  0.05777  0.36319  0.96249  1.0000
  S   S67       1.0  0.17070  0.39448  0.83313  1.0000
  S   S68       1.0  0.20580  0.38231  0.78061  1.0000
  Fe  Fe36      1.0  0.18216  0.29184  0.68782  1.0000
  S   S69       1.0  0.16867  0.32525  0.67471  1.0000
  S   S70       1.0  0.16729  0.26419  0.69107  1.0000
  Fe  Fe37      1.0  0.22282  0.30263  0.69050  1.0000
  S   S71       1.0  0.21280  0.33683  0.67683  1.0000
  H   H167      1.0  0.07463  0.22491  0.85380  1.0000
  Fe  Fe38      1.0  0.18199  0.33355  0.69853  1.0000
  S   S72       1.0  0.16456  0.35934  0.71636  1.0000
  Fe  Fe39      1.0  0.20065  0.32516  0.65449  1.0000
  S   S73       1.0  0.20521  0.33574  0.61941  1.0000
  S   S74       1.0  0.19262  0.29988  0.71372  1.0000
  S   S75       1.0  0.21344  0.29116  0.66632  1.0000
  C   C99       1.0  0.19430  0.37601  0.76273  1.0000
  C   C100      1.0  0.20089  0.35600  0.75761  1.0000
  C   C101      1.0  0.19230  0.35086  0.74294  1.0000
  C   C102      1.0  0.17710  0.36573  0.73331  1.0000
  C   C103      1.0  0.17069  0.38576  0.73830  1.0000
  C   C104      1.0  0.17928  0.39091  0.75292  1.0000
  H   H168      1.0  0.21255  0.34438  0.76511  1.0000
  H   H169      1.0  0.19711  0.33527  0.73939  1.0000
  H   H170      1.0  0.10425  0.38463  0.81438  1.0000
  C   C105      1.0  0.09908  0.44467  0.80646  1.0000
  C   C106      1.0  0.08466  0.46009  0.79631  1.0000
  H   H171      1.0  0.11549  0.44446  0.80089  1.0000
  C   C107      1.0  0.01327  0.33455  0.95195  1.0000
  C   C108      1.0  0.04701  0.37449  0.82769  1.0000
  C   C109      1.0  0.02943  0.36517  0.83462  1.0000
  C   C110      1.0  0.16925  0.43467  0.95678  1.0000
  H   H172      1.0  0.12812  0.29655  0.95384  1.0000
  C   C111      1.0  0.02587  0.40652  0.81135  1.0000
  C   C112      1.0  0.04519  0.39510  0.81597  1.0000
  H   H173      1.0  0.03076  0.34920  0.84354  1.0000
  C   C113      1.0  0.00939  0.32733  0.89281  1.0000
  H   H174      1.0  0.02465  0.42246  0.80238  1.0000
  H   H175      1.0  0.05874  0.40237  0.81058  1.0000
  C   C114      1.0  0.09038  0.34172  0.93584  1.0000
  C   C115      1.0  0.07486  0.35739  0.92752  1.0000
  C   C116      1.0  0.05856  0.36817  0.94084  1.0000
  C   C117      1.0  0.06320  0.46064  0.80325  1.0000
  H   H176      1.0  0.23999  0.31901  0.63903  1.0000
  C   C118      1.0  0.09009  0.33745  0.95738  1.0000
  H   H177      1.0  0.07546  0.36125  0.91078  1.0000
  H   H178      1.0  0.04637  0.38002  0.93441  1.0000
  H   H179      1.0  0.17453  0.40654  0.75630  1.0000
  H   H180      1.0  0.08152  0.03422  0.62042  1.0000
  C   C119      1.0  0.09473  0.17360  0.56568  1.0000
  C   C120      1.0  0.09156  0.16609  0.54919  1.0000
  C   C121      1.0  0.07581  0.15452  0.55246  1.0000
  H   H181      1.0  0.22268  0.37694  0.71871  1.0000
  H   H182      1.0  0.12299  0.26184  0.70091  1.0000
  C   C122      1.0  0.08200  0.16934  0.58559  1.0000
  H   H183      1.0  0.10125  0.16942  0.53373  1.0000
  H   H184      1.0  0.07345  0.14902  0.53957  1.0000
  H   H185      1.0  0.08415  0.17522  0.59833  1.0000
  C   C123      1.0  0.14327  0.26134  0.63370  1.0000
  C   C124      1.0  0.14809  0.24313  0.64873  1.0000
  C   C125      1.0  0.15586  0.24407  0.66599  1.0000
  C   C126      1.0  0.15876  0.26323  0.66851  1.0000
  C   C127      1.0  0.15394  0.28144  0.65351  1.0000
  C   C128      1.0  0.14614  0.28051  0.63625  1.0000
  H   H186      1.0  0.14556  0.22833  0.64727  1.0000
  H   H187      1.0  0.15974  0.22982  0.67728  1.0000
  H   H188      1.0  0.15592  0.29635  0.65530  1.0000
  H   H189      1.0  0.14238  0.29470  0.62477  1.0000
  C   C129      1.0  0.10891  0.22851  0.81343  1.0000
  C   C130      1.0  0.09785  0.24882  0.81554  1.0000
  C   C131      1.0  0.10198  0.25877  0.82976  1.0000
  C   C132      1.0  0.11695  0.24825  0.84200  1.0000
  C   C133      1.0  0.12781  0.22796  0.83993  1.0000
  C   C134      1.0  0.12400  0.21822  0.82552  1.0000
  H   H190      1.0  0.08625  0.25690  0.80609  1.0000
  H   H191      1.0  0.09371  0.27456  0.83110  1.0000
  H   H192      1.0  0.13903  0.21959  0.84968  1.0000
  H   H193      1.0  0.13254  0.20256  0.82407  1.0000
  C   C135      1.0  0.17171  0.17907  0.70211  1.0000
  C   C136      1.0  0.15623  0.16695  0.70932  1.0000
  C   C137      1.0  0.14773  0.16133  0.69498  1.0000
  C   C138      1.0  0.15491  0.16750  0.67339  1.0000
  C   C139      1.0  0.17098  0.17892  0.66628  1.0000
  C   C140      1.0  0.17923  0.18485  0.68057  1.0000
  H   H194      1.0  0.15083  0.16180  0.72589  1.0000
  H   H195      1.0  0.13540  0.15242  0.70062  1.0000
  H   H196      1.0  0.17748  0.18288  0.64989  1.0000
  H   H197      1.0  0.19138  0.19402  0.67489  1.0000
  C   C141      1.0  0.15749  0.08729  0.73242  1.0000
  C   C142      1.0  0.14743  0.10791  0.73412  1.0000
  C   C143      1.0  0.14511  0.11485  0.75274  1.0000
  C   C144      1.0  0.15219  0.10098  0.77004  1.0000
  C   C145      1.0  0.16185  0.08016  0.76853  1.0000
  C   C146      1.0  0.16493  0.07344  0.74957  1.0000
  H   H198      1.0  0.14168  0.11859  0.72092  1.0000
  H   H199      1.0  0.13737  0.13080  0.75387  1.0000
  H   H200      1.0  0.16711  0.06927  0.78194  1.0000
  H   H201      1.0  0.17255  0.05741  0.74840  1.0000
  Fe  Fe40      1.0  0.14295  0.41915  0.82535  1.0000
  C   C147      1.0  0.11031  0.25303  0.70923  1.0000
  H   H202      1.0  0.09596  0.26481  0.71363  1.0000
  H   H203      1.0  0.15908  0.39737  0.73074  1.0000
  Fe  Fe41      1.0  0.18639  0.40627  0.79996  1.0000
  C   C148      1.0  0.23051  0.11952  0.61942  1.0000
  C   C149      1.0  0.11824  0.37332  0.80820  1.0000
  S   S76       1.0  0.18916  0.41648  0.87290  1.0000
  H   H204      1.0  0.11672  0.35746  0.81792  1.0000
  C   C150      1.0  0.20615  0.00028  0.50840  1.0000
  H   H205      1.0  0.08638  0.38084  0.78805  1.0000
  C   C151      1.0  0.23132  0.11069  0.84393  1.0000
  C   C152      1.0  0.07136  0.99476  0.60356  1.0000
  C   C153      1.0  0.23200  0.14691  0.82647  1.0000
  C   C154      1.0  0.21116  0.15009  0.82475  1.0000
  C   C155      1.0  0.20017  0.13367  0.83303  1.0000
  C   C156      1.0  0.21017  0.11404  0.84302  1.0000
  H   H206      1.0  0.16849  0.00712  0.67209  1.0000
  H   H207      1.0  0.24385  0.42950  0.89342  1.0000
  H   H208      1.0  0.18397  0.13614  0.83188  1.0000
  H   H209      1.0  0.20173  0.10136  0.84958  1.0000
  Fe  Fe42      1.0  0.22777  0.02889  0.71721  1.0000
  H   H210      1.0  0.22361  0.10522  0.62597  1.0000
  Fe  Fe43      1.0  0.00846  0.10739  0.53436  1.0000
  C   C157      1.0  0.07318  0.02661  0.61299  1.0000
  C   C158      1.0  0.19701  0.23485  0.73196  1.0000
  S   S77       1.0  0.15204  0.44374  0.83637  1.0000
  H   H211      1.0  0.02126  0.34757  0.95087  1.0000
  S   S78       1.0  0.23350  0.39449  0.98688  1.0000
  C   C159      1.0  0.11344  0.05143  0.49966  1.0000
  H   H212      1.0  0.13220  0.37743  0.81097  1.0000
  H   H213      1.0  0.12545  0.04634  0.50964  1.0000
  H   H214      1.0  0.09284  0.48616  0.81900  1.0000
  C   C160      1.0  0.22019  0.21014  0.56054  1.0000
  S   S79       1.0  0.04623  0.03842  0.56902  1.0000
  S   S80       1.0  0.19734  0.02204  0.71474  1.0000
  H   H215      1.0  0.13633  0.39943  0.77558  1.0000
  H   H216      1.0  0.17407  0.48389  0.85568  1.0000
  H   H217      1.0  0.19245  0.23005  0.55067  1.0000
  H   H218      1.0  0.06548  0.41822  0.84393  1.0000
  H   H219      1.0  0.12334  0.39637  0.75651  1.0000
  H   H220      1.0  0.23043  0.12677  0.65669  1.0000
  C   C161      1.0  0.06272  0.15075  0.57220  1.0000
  H   H221      1.0  0.02376  0.32578  0.88120  1.0000
  H   H222      1.0  0.03121  0.48257  0.83709  1.0000
  H   H223      1.0  0.07896  0.04870  0.52990  1.0000
  H   H224      1.0  0.16948  0.21705  0.86363  1.0000
  S   S81       1.0  0.15429  0.48977  0.97639  1.0000
  S   S82       1.0  0.00360  0.46188  0.77375  1.0000
  C   C162      1.0  0.21502  0.13182  0.65175  1.0000
  H   H225      1.0  0.00336  0.44190  0.96519  1.0000
  H   H226      1.0  0.07412  0.03172  0.49327  1.0000
  H   H227      1.0  0.22970  0.08610  0.75909  1.0000
  C   C163      1.0  0.07366  0.34802  0.97073  1.0000
  H   H228      1.0  0.02317  0.41860  0.96803  1.0000
  H   H229      1.0  0.18563  0.45438  0.96484  1.0000
  H   H230      1.0  0.18234  0.25572  0.60677  1.0000
  H   H231      1.0  0.05664  0.02803  0.62168  1.0000
  H   H232      1.0  0.18847  0.29800  0.61255  1.0000
  C   C164      1.0  0.16174  0.31491  0.93851  1.0000
  H   H233      1.0  0.20316  0.08250  0.76777  1.0000
  H   H234      1.0  0.99649  0.36930  0.83485  1.0000
  H   H235      1.0  0.14475  0.28558  0.93231  1.0000
  H   H236      1.0  0.22206  0.44773  0.93136  1.0000
  C   C165      1.0  0.20866  0.22893  0.55100  1.0000
  H   H237      1.0  0.00919  0.29407  0.96195  1.0000
  H   H238      1.0  0.10844  0.40744  0.77891  1.0000
  C   C166      1.0  0.07081  0.42995  0.83066  1.0000
  N   N12       1.0  0.13542  0.38578  0.89920  1.0000
  C   C167      1.0  0.12262  0.38067  0.92047  1.0000
  C   C168      1.0  0.13305  0.40885  0.89237  1.0000
  C   C169      1.0  0.12831  0.37733  0.88444  1.0000
  C   C170      1.0  0.15769  0.37631  0.89956  1.0000
  H   H239      1.0  0.12435  0.36339  0.92620  1.0000
  H   H240      1.0  0.10570  0.38731  0.92071  1.0000
  H   H241      1.0  0.12730  0.38706  0.93198  1.0000
  H   H242      1.0  0.14276  0.41315  0.87650  1.0000
  H   H243      1.0  0.11653  0.41661  0.89157  1.0000
  H   H244      1.0  0.13823  0.41572  0.90325  1.0000
  H   H245      1.0  0.13745  0.38100  0.86818  1.0000
  H   H246      1.0  0.11158  0.38421  0.88374  1.0000
  H   H247      1.0  0.12990  0.35995  0.88908  1.0000
  H   H248      1.0  0.16777  0.37987  0.88372  1.0000
  H   H249      1.0  0.16018  0.35892  0.90472  1.0000
  H   H250      1.0  0.16354  0.38266  0.91035  1.0000
  N   N13       1.0  0.11614  0.23754  0.72786  1.0000
  C   C171      1.0  0.13468  0.22176  0.72115  1.0000
  C   C172      1.0  0.09856  0.22686  0.73901  1.0000
  C   C173      1.0  0.12111  0.24841  0.74206  1.0000
  H   H251      1.0  0.13199  0.21370  0.70973  1.0000
  H   H252      1.0  0.13906  0.20947  0.73472  1.0000
  H   H253      1.0  0.10258  0.21491  0.75303  1.0000
  H   H254      1.0  0.09440  0.21857  0.72867  1.0000
  H   H255      1.0  0.08435  0.23820  0.74469  1.0000
  H   H256      1.0  0.12589  0.23710  0.75612  1.0000
  H   H257      1.0  0.10737  0.26020  0.74780  1.0000
  H   H258      1.0  0.13422  0.25677  0.73399  1.0000
  H   H259      1.0  0.22849  0.29330  0.57737  1.0000
  H   H260      1.0  0.18600  0.08071  0.80542  1.0000
  H   H261      1.0  0.04672  0.23120  0.85595  1.0000
  C   C174      1.0  0.15810  0.29518  0.97415  1.0000
  C   C175      1.0  0.12532  0.48633  0.80507  1.0000
  S   S83       1.0  0.04566  0.48145  0.79108  1.0000
  C   C176      1.0  0.00828  0.39725  0.81811  1.0000
  C   C177      1.0  0.13801  0.35826  0.77837  1.0000
  H   H262      1.0  0.15282  0.36139  0.78028  1.0000
  H   H263      1.0  0.13954  0.35827  0.76145  1.0000
  H   H264      1.0  0.13668  0.34209  0.78730  1.0000
  H   H265      1.0  0.09799  0.35346  0.79207  1.0000
  N   N14       1.0  0.05712  0.23442  0.88260  1.0000
  C   C178      1.0  0.07539  0.23980  0.88693  1.0000
  C   C179      1.0  0.05998  0.23562  0.85980  1.0000
  C   C180      1.0  0.03794  0.24943  0.88964  1.0000
  C   C181      1.0  0.05519  0.21285  0.89403  1.0000
  H   H266      1.0  0.24057  0.05465  0.78599  1.0000
  Fe  Fe44      1.0  0.20977  0.37826  0.98282  1.0000
  H   H267      1.0  0.21601  0.42554  0.92537  1.0000
  H   H268      1.0  0.21712  0.19503  0.73045  1.0000
  H   H269      1.0  0.24057  0.15951  0.81993  1.0000
  C   C182      1.0  0.00084  0.30377  0.97394  1.0000
  H   H270      1.0  0.18624  0.22489  0.73143  1.0000
  H   H271      1.0  0.02381  0.24607  0.88643  1.0000
  H   H272      1.0  0.03898  0.26594  0.88158  1.0000
  H   H273      1.0  0.06938  0.20114  0.88897  1.0000
  C   C183      1.0  0.00657  0.31168  0.91082  1.0000
  H   H274      1.0  0.07358  0.23963  0.90391  1.0000
  H   H275      1.0  0.22028  0.20034  0.82891  1.0000
  C   C184      1.0  0.22064  0.46331  0.86343  1.0000
  N   N15       1.0  0.01191  0.32057  0.97292  1.0000
  C   C185      1.0  0.21830  0.24619  0.54131  1.0000
  H   H276      1.0  0.20942  0.26065  0.53372  1.0000
  H   H277      1.0  0.12487  0.00937  0.51068  1.0000
  H   H278      1.0  0.99495  0.15421  0.60086  1.0000
  N   N16       1.0  0.09997  0.03584  0.50421  1.0000
  H   H279      1.0  0.21398  0.05127  0.79401  1.0000
  S   S84       1.0  0.99582  0.45921  0.82509  1.0000
  C   C186      1.0  0.21858  0.32996  0.89578  1.0000
  H   H280      1.0  0.22801  0.33376  0.57685  1.0000
  H   H281      1.0  0.02232  0.32580  0.93938  1.0000
  H   H282      1.0  0.20918  0.10722  0.76715  1.0000
  H   H283      1.0  0.21242  0.34371  0.88498  1.0000
  C   C187      1.0  0.13218  0.44795  0.95800  1.0000
  H   H284      1.0  0.00390  0.14536  0.55748  1.0000
  H   H285      1.0  0.19865  0.14806  0.60524  1.0000
  H   H286      1.0  0.23522  0.12383  0.52592  1.0000
  C   C188      1.0  0.01713  0.41014  0.86548  1.0000
  H   H287      1.0  0.02980  0.44379  0.96415  1.0000
  H   H288      1.0  0.03876  0.99673  0.57392  1.0000
  H   H289      1.0  0.07823  0.02210  0.53038  1.0000
  H   H290      1.0  0.21871  0.37414  0.81920  1.0000
  S   S85       1.0  0.14780  0.40847  0.94946  1.0000
  C   C189      1.0  0.19843  0.08797  0.80724  1.0000
  C   C190      1.0  0.05626  0.44523  0.82019  1.0000
  C   C191      1.0  0.23170  0.32736  0.60895  1.0000
  H   H291      1.0  0.04147  0.20829  0.89121  1.0000
  H   H292      1.0  0.19682  0.23404  0.74875  1.0000
  H   H293      1.0  0.22916  0.10975  0.79321  1.0000
  S   S86       1.0  0.21384  0.48919  0.94800  1.0000
  H   H294      1.0  0.18300  0.42254  0.95401  1.0000
  H   H295      1.0  0.20186  0.30401  0.57451  1.0000
  N   N17       1.0  0.21839  0.22786  0.72033  1.0000
  C   C192      1.0  0.99650  0.39745  0.89904  1.0000
  H   H296      1.0  0.19117  0.26070  0.57888  1.0000
  C   C193      1.0  0.00355  0.04208  0.57993  1.0000
  H   H297      1.0  0.11957  0.47742  0.96833  1.0000
  C   C194      1.0  0.14339  0.28611  0.94906  1.0000
  C   C195      1.0  0.18085  0.27914  0.94596  1.0000
  H   H298      1.0  0.20907  0.15942  0.54674  1.0000
  H   H299      1.0  0.23797  0.12882  0.55024  1.0000
  S   S87       1.0  0.22561  0.48942  0.88631  1.0000
  C   C196      1.0  0.23872  0.37697  0.72034  1.0000
  H   H300      1.0  0.21828  0.24314  0.61232  1.0000
  C   C197      1.0  0.24209  0.12715  0.83581  1.0000
  H   H301      1.0  0.06850  0.99323  0.64463  1.0000
  H   H302      1.0  0.14051  0.99642  0.66145  1.0000
  H   H303      1.0  0.19243  0.10529  0.80464  1.0000
  H   H304      1.0  0.23821  0.15130  0.49368  1.0000
  N   N18       1.0  0.11568  0.11027  0.67522  1.0000
  C   C198      1.0  0.13845  0.10937  0.66806  1.0000
  C   C199      1.0  0.11142  0.09804  0.69693  1.0000
  C   C200      1.0  0.10820  0.10128  0.66117  1.0000
  C   C201      1.0  0.10470  0.13238  0.67471  1.0000
  H   H305      1.0  0.14226  0.11850  0.65177  1.0000
  H   H306      1.0  0.14730  0.09291  0.66842  1.0000
  H   H307      1.0  0.14464  0.11607  0.67832  1.0000
  H   H308      1.0  0.11701  0.10440  0.70789  1.0000
  H   H309      1.0  0.09443  0.09828  0.70292  1.0000
  H   H310      1.0  0.11972  0.08131  0.69798  1.0000
  H   H311      1.0  0.11121  0.11020  0.64467  1.0000
  H   H312      1.0  0.09107  0.10169  0.66609  1.0000
  H   H313      1.0  0.11627  0.08461  0.66121  1.0000
  H   H314      1.0  0.08750  0.13373  0.68011  1.0000
  H   H315      1.0  0.22758  0.20512  0.74707  1.0000
  H   H316      1.0  0.11025  0.13968  0.68495  1.0000
  C   C202      1.0  0.21496  0.08990  0.77065  1.0000
  H   H317      1.0  0.21928  0.23805  0.81579  1.0000
  C   C203      1.0  0.10491  0.00348  0.60013  1.0000
  H   H318      1.0  0.21864  0.17001  0.62621  1.0000
  Fe  Fe45      1.0  0.20145  0.34194  0.96909  1.0000
  C   C204      1.0  0.23855  0.29433  0.90216  1.0000
  C   C205      1.0  0.06592  0.15816  0.58875  1.0000
  S   S88       1.0  0.03638  0.37518  0.97929  1.0000
  C   C206      1.0  0.01010  0.37651  0.82963  1.0000
  S   S89       1.0  0.15779  0.42908  0.79148  1.0000
  C   C207      1.0  0.22545  0.05932  0.79656  1.0000
  C   C208      1.0  0.21352  0.47071  0.88224  1.0000
  S   S90       1.0  0.20312  0.05341  0.66788  1.0000
  C   C209      1.0  0.20826  0.20417  0.84294  1.0000
  S   S91       1.0  0.11063  0.41203  0.83770  1.0000
  C   C210      1.0  0.23416  0.29441  0.92371  1.0000
  H   H319      1.0  0.07158  0.00217  0.58673  1.0000
  H   H320      1.0  0.10123  0.36939  0.76598  1.0000
  N   N19       1.0  0.20650  0.27393  0.59551  1.0000
  C   C211      1.0  0.23430  0.09234  0.79545  1.0000
  H   H321      1.0  0.19439  0.22126  0.80694  1.0000
  N   N20       1.0  0.11972  0.37401  0.78573  1.0000
  C   C212      1.0  0.10052  0.36921  0.78276  1.0000
  C   C213      1.0  0.12206  0.39526  0.77360  1.0000
  Fe  Fe46      1.0  0.01298  0.47650  0.79559  1.0000
  C   C214      1.0  0.22332  0.25511  0.59835  1.0000
  N   N21       1.0  0.08345  0.00440  0.61282  1.0000
  S   S92       1.0  0.21948  0.06371  0.70594  1.0000
  H   H322      1.0  0.16806  0.24473  0.85361  1.0000
  S   S93       1.0  0.16656  0.35085  0.97943  1.0000
  N   N22       1.0  0.21827  0.08241  0.79246  1.0000
  C   C215      1.0  0.19753  0.43825  0.87590  1.0000
  H   H323      1.0  0.04206  0.32314  0.97616  1.0000
  H   H324      1.0  0.17862  0.43880  0.90695  1.0000
  C   C216      1.0  0.19019  0.44580  0.89467  1.0000
  H   H325      1.0  0.20584  0.14523  0.65925  1.0000
  H   H326      1.0  0.01737  0.42099  0.84995  1.0000
  H   H327      1.0  0.23207  0.12295  0.60207  1.0000
  H   H328      1.0  0.05466  0.99645  0.61176  1.0000
  H   H329      1.0  0.03978  0.44528  0.82545  1.0000
  C   C217      1.0  0.14997  0.43220  0.95448  1.0000
  H   H330      1.0  0.99748  0.34172  0.94828  1.0000
  H   H331      1.0  0.22793  0.24754  0.58447  1.0000
  H   H332      1.0  0.11450  0.01066  0.60661  1.0000
  H   H333      1.0  0.00067  0.43697  0.89279  1.0000
  C   C218      1.0  0.21244  0.44737  0.86011  1.0000
  H   H334      1.0  0.22592  0.25856  0.71300  1.0000
  H   H335      1.0  0.20719  0.21820  0.69762  1.0000
  H   H336      1.0  0.99573  0.35695  0.87553  1.0000
  S   S94       1.0  0.04160  0.13781  0.57647  1.0000
  C   C219      1.0  0.23191  0.24208  0.72054  1.0000
  H   H337      1.0  0.21143  0.24458  0.69027  1.0000
  C   C220      1.0  0.21528  0.16325  0.52952  1.0000
  S   S95       1.0  0.19958  0.42979  0.80902  1.0000
  C   C221      1.0  0.19706  0.14335  0.62261  1.0000
  S   S96       1.0  0.03148  0.08033  0.52277  1.0000
  Fe  Fe47      1.0  0.04007  0.11825  0.55393  1.0000
  H   H338      1.0  0.09017  0.22868  0.88207  1.0000
  Fe  Fe48      1.0  0.04069  0.07259  0.55386  1.0000
  H   H339      1.0  0.23482  0.33814  0.71831  1.0000
  H   H340      1.0  0.18405  0.27840  0.92904  1.0000
  H   H341      1.0  0.22171  0.42367  0.95054  1.0000
  Fe  Fe49      1.0  0.21246  0.01905  0.68120  1.0000
  H   H342      1.0  0.17459  0.32135  0.94071  1.0000
  C   C222      1.0  0.22694  0.20617  0.73042  1.0000
  H   H343      1.0  0.09990  0.02767  0.53736  1.0000
  C   C223      1.0  0.17904  0.22940  0.85697  1.0000
  N   N23       1.0  0.19439  0.22486  0.83783  1.0000
  H   H344      1.0  0.23283  0.24221  0.73683  1.0000
  N   N24       1.0  0.23814  0.15544  0.52445  1.0000
  H   H345      1.0  0.20516  0.34398  0.92301  1.0000
  S   S97       1.0  0.21549  0.31134  0.95844  1.0000
  H   H346      1.0  0.21825  0.44160  0.84564  1.0000
  H   H347      1.0  0.07761  0.25577  0.87817  1.0000
  H   H348      1.0  0.20040  0.08251  0.82382  1.0000
  C   C224      1.0  0.21449  0.33017  0.91726  1.0000
  H   H349      1.0  0.21057  0.01157  0.51534  1.0000
  S   S98       1.0  0.20578  0.37449  0.95180  1.0000
  H   H350      1.0  0.19568  0.27267  0.62871  1.0000
  H   H351      1.0  0.19439  0.28405  0.94865  1.0000
  H   H352      1.0  0.20812  0.00663  0.49124  1.0000
  C   C225      1.0  0.02382  0.00722  0.57727  1.0000
  S   S99       1.0  0.01597  0.09785  0.56658  1.0000
  H   H353      1.0  0.14677  0.32620  0.94228  1.0000
  H   H354      1.0  0.06100  0.25184  0.85076  1.0000
  Fe  Fe50      1.0  0.16941  0.45171  0.80326  1.0000
  H   H355      1.0  0.18697  0.23012  0.86937  1.0000
  H   H356      1.0  0.10483  0.01162  0.58351  1.0000
  H   H357      1.0  0.23763  0.08652  0.81157  1.0000
  H   H358      1.0  0.18857  0.13010  0.62832  1.0000
  C   C226      1.0  0.15275  0.46793  0.96740  1.0000
  C   C227      1.0  0.19787  0.46230  0.89768  1.0000
  H   H359      1.0  0.23343  0.22294  0.68916  1.0000
  H   H360      1.0  0.00774  0.39941  0.90768  1.0000
  C   C228      1.0  0.02298  0.02863  0.57579  1.0000
  H   H361      1.0  0.00271  0.05856  0.57891  1.0000
  H   H362      1.0  0.05313  0.21139  0.91129  1.0000
  H   H363      1.0  0.24170  0.39310  0.71333  1.0000
  S   S100      1.0  0.02767  0.29110  0.91589  1.0000
  C   C229      1.0  0.13347  0.46559  0.96494  1.0000
  H   H364      1.0  0.19029  0.25133  0.72506  1.0000
  H   H365      1.0  0.11726  0.44611  0.95621  1.0000
  C   C230      1.0  0.18321  0.22450  0.82163  1.0000
  H   H366      1.0  0.21703  0.28267  0.56209  1.0000
  H   H367      1.0  0.09027  0.47179  0.78327  1.0000
  H   H368      1.0  0.02916  0.41282  0.87269  1.0000
  H   H369      1.0  0.23759  0.25921  0.60045  1.0000
  S   S101      1.0  0.23465  0.31230  0.86134  1.0000
  H   H370      1.0  0.21533  0.24239  0.84181  1.0000
  H   H371      1.0  0.18064  0.26294  0.95536  1.0000
  H   H372      1.0  0.17393  0.21186  0.82698  1.0000
  C   C231      1.0  0.17260  0.99667  0.66112  1.0000
  C   C232      1.0  0.23165  0.36803  0.82798  1.0000
  C   C233      1.0  0.23062  0.31206  0.88821  1.0000
  N   N25       1.0  0.99611  0.41307  0.87914  1.0000
  H   H373      1.0  0.07425  0.05847  0.49306  1.0000
  H   H374      1.0  0.14341  0.30638  0.97910  1.0000
  N   N26       1.0  0.16102  0.29383  0.95192  1.0000
  C   C234      1.0  0.17072  0.45267  0.96290  1.0000
  Fe  Fe51      1.0  0.23322  0.05663  0.67394  1.0000
  H   H375      1.0  0.14257  0.27006  0.95862  1.0000
  H   H376      1.0  0.23797  0.36436  0.68553  1.0000
  H   H377      1.0  0.22678  0.35524  0.84114  1.0000
  C   C235      1.0  0.23934  0.24483  0.54154  1.0000
  N   N27       1.0  0.21772  0.13761  0.62861  1.0000
  H   H378      1.0  0.17222  0.23967  0.81769  1.0000
  H   H379      1.0  0.24356  0.39492  0.91855  1.0000
  C   C236      1.0  0.21375  0.28916  0.57656  1.0000
  H   H380      1.0  0.21681  0.20375  0.85527  1.0000
  C   C237      1.0  0.18785  0.26769  0.59303  1.0000
  H   H381      1.0  0.20679  0.15615  0.52175  1.0000
  C   C238      1.0  0.20115  0.28372  0.61410  1.0000
  H   H382      1.0  0.03518  0.24888  0.90682  1.0000
  C   C239      1.0  0.01750  0.43441  0.97208  1.0000
  H   H383      1.0  0.19934  0.19123  0.84863  1.0000
  H   H384      1.0  0.18693  0.15687  0.62933  1.0000
  H   H385      1.0  0.20664  0.11850  0.65837  1.0000
  H   H386      1.0  0.19216  0.46799  0.91221  1.0000
  H   H387      1.0  0.23171  0.15967  0.60305  1.0000
  H   H388      1.0  0.23651  0.34895  0.79570  1.0000
  C   C240      1.0  0.08883  0.03351  0.52639  1.0000
  H   H389      1.0  0.12943  0.46967  0.80566  1.0000
  C   C241      1.0  0.20702  0.24139  0.82981  1.0000
  H   H390      1.0  0.99676  0.12929  0.59488  1.0000
  C   C242      1.0  0.22215  0.31231  0.93127  1.0000
  C   C243      1.0  0.22609  0.43028  0.93347  1.0000
  H   H391      1.0  0.10407  0.06703  0.50257  1.0000
  H   H392      1.0  0.23297  0.38092  0.83498  1.0000
  H   H393      1.0  0.07287  0.03586  0.59675  1.0000
  H   H394      1.0  0.23967  0.03329  0.63996  1.0000
  H   H395      1.0  0.02217  0.39390  0.86236  1.0000
  H   H396      1.0  0.17455  0.28135  0.59147  1.0000
  C   C244      1.0  0.21764  0.22840  0.69837  1.0000
  H   H397      1.0  0.18922  0.00009  0.51462  1.0000
  C   C245      1.0  0.24123  0.20875  0.56073  1.0000
  H   H398      1.0  0.00115  0.38115  0.89615  1.0000
  C   C246      1.0  0.24294  0.13258  0.53283  1.0000
  H   H399      1.0  0.23476  0.02887  0.61667  1.0000
  C   C247      1.0  0.03326  0.31095  0.97668  1.0000
  S   S102      1.0  0.21444  0.99554  0.66089  1.0000
  H   H400      1.0  0.24307  0.20036  0.72208  1.0000
  H   H401      1.0  0.22789  0.05311  0.81298  1.0000
  H   H402      1.0  0.04242  0.30167  0.96455  1.0000
  C   C248      1.0  0.11307  0.01535  0.50043  1.0000
  H   H403      1.0  0.23275  0.46975  0.85143  1.0000
  H   H404      1.0  0.03536  0.48148  0.86283  1.0000
  H   H405      1.0  0.00152  0.17046  0.56321  1.0000
  C   C249      1.0  0.08450  0.04313  0.49038  1.0000
  C   C250      1.0  0.23886  0.32770  0.58743  1.0000
  C   C251      1.0  0.00526  0.99936  0.58275  1.0000
  H   H406      1.0  0.15725  0.27962  0.98482  1.0000
  H   H407      1.0  0.23866  0.37399  0.73745  1.0000
  H   H408      1.0  0.09375  0.99945  0.64187  1.0000
  H   H409      1.0  0.17132  0.30073  0.97686  1.0000
  S   S103      1.0  0.24305  0.01573  0.74560  1.0000
  C   C252      1.0  0.08440  0.99283  0.63454  1.0000
  C   C253      1.0  0.03384  0.49197  0.84735  1.0000
  H   H410      1.0  0.07317  0.34408  0.98744  1.0000
  H   H411      1.0  0.99951  0.11574  0.48986  1.0000
  H   H412      1.0  0.24361  0.15223  0.62552  1.0000
  H   H413      1.0  0.24215  0.17669  0.49452  1.0000
  S   S104      1.0  0.24375  0.02218  0.68528  1.0000
  H   H414      1.0  0.19545  0.49233  0.83592  1.0000
  H   H415      1.0  0.00823  0.34573  0.98886  1.0000
  Fe  Fe52      1.0  0.06155  0.59368  0.02712  1.0000
  H   H416      1.0  0.11002  0.52648  0.11890  1.0000
  S   S105      1.0  0.16859  0.60058  0.19602  1.0000
  Fe  Fe53      1.0  0.05400  0.86142  0.32784  1.0000
  S   S106      1.0  0.05119  0.82803  0.33244  1.0000
  S   S107      1.0  0.05068  0.88052  0.29591  1.0000
  Fe  Fe54      1.0  0.06243  0.85533  0.37121  1.0000
  S   S108      1.0  0.05990  0.82143  0.37956  1.0000
  S   S109      1.0  0.07313  0.86821  0.39366  1.0000
  Fe  Fe55      1.0  0.07909  0.81985  0.34732  1.0000
  S   S110      1.0  0.10606  0.79232  0.34410  1.0000
  Fe  Fe56      1.0  0.03233  0.83262  0.36394  1.0000
  H   H417      1.0  0.20158  0.77551  0.26299  1.0000
  S   S111      1.0  0.08380  0.85300  0.33996  1.0000
  S   S112      1.0  0.03276  0.86694  0.35841  1.0000
  S   S113      1.0  0.08638  0.61195  0.00914  1.0000
  H   H418      1.0  0.15103  0.79081  0.39510  1.0000
  C   C254      1.0  0.07415  0.98732  0.29417  1.0000
  Fe  Fe57      1.0  0.12482  0.70251  0.09971  1.0000
  S   S114      1.0  0.15863  0.69238  0.08526  1.0000
  S   S115      1.0  0.10299  0.68031  0.10308  1.0000
  Fe  Fe58      1.0  0.13353  0.74063  0.11159  1.0000
  S   S116      1.0  0.16777  0.73282  0.09829  1.0000
  S   S117      1.0  0.12353  0.77120  0.12311  1.0000
  Fe  Fe59      1.0  0.15766  0.72654  0.07161  1.0000
  S   S118      1.0  0.17142  0.73881  0.03810  1.0000
  Fe  Fe60      1.0  0.16503  0.69970  0.11360  1.0000
  S   S119      1.0  0.18951  0.67868  0.13081  1.0000
  S   S120      1.0  0.12326  0.73651  0.08366  1.0000
  S   S121      1.0  0.13141  0.70771  0.12924  1.0000
  Fe  Fe61      1.0  0.15524  0.67140  0.27107  1.0000
  S   S122      1.0  0.18719  0.67894  0.26113  1.0000
  S   S123      1.0  0.15304  0.63740  0.27768  1.0000
  Fe  Fe62      1.0  0.13393  0.71652  0.27170  1.0000
  S   S124      1.0  0.16402  0.72815  0.26109  1.0000
  S   S125      1.0  0.10401  0.74004  0.27846  1.0000
  Fe  Fe63      1.0  0.17304  0.70617  0.23866  1.0000
  S   S126      1.0  0.19493  0.71381  0.20776  1.0000
  Fe  Fe64      1.0  0.17575  0.70008  0.28425  1.0000
  S   S127      1.0  0.19829  0.70171  0.30293  1.0000
  S   S128      1.0  0.14155  0.69722  0.24670  1.0000
  S   S129      1.0  0.14500  0.68992  0.29676  1.0000
  C   C255      1.0  0.17156  0.95367  0.47085  1.0000
  Fe  Fe65      1.0  0.02645  0.62619  0.01084  1.0000
  H   H419      1.0  0.22914  0.75710  0.05766  1.0000
  Fe  Fe66      1.0  0.18180  0.86422  0.47022  1.0000
  H   H420      1.0  0.14435  0.92031  0.38711  1.0000
  C   C256      1.0  0.03563  0.77883  0.33591  1.0000
  H   H421      1.0  0.21571  0.69723  0.34181  1.0000
  S   S130      1.0  0.10203  0.93938  0.33442  1.0000
  C   C257      1.0  0.08907  0.97275  0.30440  1.0000
  Fe  Fe67      1.0  0.17137  0.81057  0.19388  1.0000
  S   S131      1.0  0.15609  0.84271  0.17907  1.0000
  S   S132      1.0  0.16247  0.77985  0.19631  1.0000
  Fe  Fe68      1.0  0.20999  0.82526  0.19591  1.0000
  S   S133      1.0  0.19831  0.85852  0.18046  1.0000
  C   C258      1.0  0.16899  0.50710  0.16797  1.0000
  Fe  Fe69      1.0  0.16781  0.85396  0.20224  1.0000
  S   S134      1.0  0.14955  0.88018  0.21912  1.0000
  Fe  Fe70      1.0  0.18796  0.84404  0.15899  1.0000
  S   S135      1.0  0.19430  0.85041  0.12367  1.0000
  S   S136      1.0  0.18014  0.82139  0.21906  1.0000
  S   S137      1.0  0.20242  0.81124  0.17269  1.0000
  H   H422      1.0  0.02931  0.66997  0.02949  1.0000
  C   C259      1.0  0.02839  0.52967  0.99957  1.0000
  H   H423      1.0  0.16184  0.81151  0.45849  1.0000
  H   H424      1.0  0.08584  0.55836  0.10410  1.0000
  C   C260      1.0  0.21818  0.76146  0.04724  1.0000
  S   S138      1.0  0.16191  0.92173  0.32936  1.0000
  C   C261      1.0  0.16228  0.88730  0.23545  1.0000
  C   C262      1.0  0.15626  0.90770  0.23954  1.0000
  C   C263      1.0  0.16601  0.91379  0.25263  1.0000
  C   C264      1.0  0.18161  0.89940  0.26205  1.0000
  C   C265      1.0  0.18754  0.87892  0.25811  1.0000
  C   C266      1.0  0.17805  0.87293  0.24469  1.0000
  H   H425      1.0  0.14432  0.91896  0.23215  1.0000
  H   H426      1.0  0.19957  0.86767  0.26534  1.0000
  H   H427      1.0  0.18271  0.85712  0.24173  1.0000
  H   H428      1.0  0.04266  0.78614  0.37106  1.0000
  H   H429      1.0  0.12649  0.93132  0.36938  1.0000
  H   H430      1.0  0.11264  0.50218  0.11119  1.0000
  C   C267      1.0  0.22023  0.83775  0.11601  1.0000
  C   C268      1.0  0.22727  0.83150  0.09664  1.0000
  C   C269      1.0  0.00622  0.55774  0.06238  1.0000
  Fe  Fe71      1.0  0.21127  0.52928  0.18436  1.0000
  S   S139      1.0  0.14849  0.95588  0.28760  1.0000
  H   H431      1.0  0.21709  0.83579  0.08544  1.0000
  H   H432      1.0  0.14162  0.63999  0.17916  1.0000
  N   N28       1.0  0.04260  0.76310  0.35389  1.0000
  C   C270      1.0  0.21266  0.75121  0.16455  1.0000
  C   C271      1.0  0.23037  0.73614  0.35536  1.0000
  C   C272      1.0  0.20883  0.67568  0.31337  1.0000
  C   C273      1.0  0.19600  0.66083  0.32116  1.0000
  C   C274      1.0  0.20455  0.63996  0.32937  1.0000
  C   C275      1.0  0.22603  0.63380  0.32912  1.0000
  C   C276      1.0  0.10945  0.53338  0.07768  1.0000
  H   H433      1.0  0.23227  0.74781  0.31440  1.0000
  H   H434      1.0  0.17943  0.66547  0.32110  1.0000
  H   H435      1.0  0.19457  0.62851  0.33554  1.0000
  S   S140      1.0  0.17705  0.88025  0.41167  1.0000
  C   C277      1.0  0.20557  0.97683  0.35365  1.0000
  C   C278      1.0  0.18955  0.75436  0.03588  1.0000
  C   C279      1.0  0.19009  0.77237  0.02000  1.0000
  C   C280      1.0  0.20420  0.78523  0.01809  1.0000
  C   C281      1.0  0.21831  0.77977  0.03162  1.0000
  C   C282      1.0  0.20357  0.74890  0.04957  1.0000
  H   H436      1.0  0.02487  0.50702  0.05670  1.0000
  H   H437      1.0  0.19830  0.66923  0.01612  1.0000
  H   H438      1.0  0.20344  0.73483  0.06172  1.0000
  C   C283      1.0  0.19302  0.70218  0.18779  1.0000
  C   C284      1.0  0.17355  0.70104  0.18475  1.0000
  C   C285      1.0  0.17228  0.69424  0.16701  1.0000
  C   C286      1.0  0.19057  0.68752  0.15295  1.0000
  C   C287      1.0  0.21005  0.68788  0.15651  1.0000
  C   C288      1.0  0.21124  0.69562  0.17363  1.0000
  H   H439      1.0  0.15941  0.70618  0.19559  1.0000
  H   H440      1.0  0.15717  0.69408  0.16434  1.0000
  H   H441      1.0  0.22421  0.68262  0.14573  1.0000
  H   H442      1.0  0.22632  0.69638  0.17597  1.0000
  C   C289      1.0  0.13627  0.77339  0.14213  1.0000
  C   C290      1.0  0.14638  0.75556  0.15446  1.0000
  C   C291      1.0  0.15481  0.75774  0.17076  1.0000
  C   C292      1.0  0.15401  0.77769  0.17425  1.0000
  C   C293      1.0  0.14485  0.79554  0.16121  1.0000
  C   C294      1.0  0.13559  0.79336  0.14552  1.0000
  H   H443      1.0  0.14691  0.74005  0.15205  1.0000
  H   H444      1.0  0.16161  0.74394  0.18101  1.0000
  H   H445      1.0  0.14390  0.81101  0.16388  1.0000
  H   H446      1.0  0.12761  0.80721  0.13618  1.0000
  C   C295      1.0  0.09603  0.67613  0.08088  1.0000
  C   C296      1.0  0.10012  0.68923  0.06116  1.0000
  C   C297      1.0  0.09366  0.68604  0.04401  1.0000
  C   C298      1.0  0.08342  0.66950  0.04625  1.0000
  C   C299      1.0  0.07953  0.65619  0.06591  1.0000
  C   C300      1.0  0.08569  0.65962  0.08317  1.0000
  H   H447      1.0  0.10800  0.70203  0.05918  1.0000
  H   H448      1.0  0.07156  0.64349  0.06788  1.0000
  H   H449      1.0  0.08241  0.64945  0.09839  1.0000
  C   C301      1.0  0.02682  0.89854  0.29607  1.0000
  C   C302      1.0  0.01601  0.90139  0.27999  1.0000
  H   H450      1.0  0.21281  0.77839  0.11453  1.0000
  H   H451      1.0  0.99592  0.57651  0.00514  1.0000
  C   C303      1.0  0.20784  0.88029  0.32428  1.0000
  C   C304      1.0  0.01880  0.91044  0.31175  1.0000
  H   H452      1.0  0.02223  0.89226  0.26781  1.0000
  C   C305      1.0  0.15263  0.50176  0.16200  1.0000
  H   H453      1.0  0.23632  0.83078  0.32402  1.0000
  H   H454      1.0  0.02725  0.90845  0.32408  1.0000
  C   C306      1.0  0.10658  0.77865  0.32467  1.0000
  C   C307      1.0  0.09265  0.78636  0.31089  1.0000
  C   C308      1.0  0.09192  0.77445  0.29674  1.0000
  C   C309      1.0  0.10561  0.75505  0.29581  1.0000
  C   C310      1.0  0.12014  0.74768  0.30899  1.0000
  C   C311      1.0  0.12049  0.75937  0.32353  1.0000
  H   H455      1.0  0.08251  0.80155  0.31100  1.0000
  H   H456      1.0  0.08084  0.78040  0.28641  1.0000
  H   H457      1.0  0.13085  0.73275  0.30831  1.0000
  H   H458      1.0  0.13143  0.75334  0.33402  1.0000
  H   H459      1.0  0.19927  0.63404  0.25566  1.0000
  H   H460      1.0  0.12088  0.51894  0.07410  1.0000
  C   C312      1.0  0.02207  0.67467  0.04488  1.0000
  C   C313      1.0  0.21443  0.99187  0.35787  1.0000
  H   H461      1.0  0.15239  0.64145  0.11336  1.0000
  H   H462      1.0  0.00200  0.90797  0.47571  1.0000
  C   C314      1.0  0.05534  0.85883  0.45699  1.0000
  C   C315      1.0  0.06639  0.86408  0.43629  1.0000
  C   C316      1.0  0.05861  0.86256  0.41936  1.0000
  C   C317      1.0  0.03950  0.85625  0.42310  1.0000
  C   C318      1.0  0.02811  0.85170  0.44372  1.0000
  H   H463      1.0  0.06157  0.85974  0.47003  1.0000
  H   H464      1.0  0.08119  0.86887  0.43345  1.0000
  H   H465      1.0  0.03332  0.85517  0.41010  1.0000
  C   C319      1.0  0.23334  0.92933  0.42075  1.0000
  C   C320      1.0  0.16512  0.61066  0.21865  1.0000
  C   C321      1.0  0.16355  0.59731  0.23844  1.0000
  C   C322      1.0  0.15946  0.60568  0.25657  1.0000
  C   C323      1.0  0.15753  0.62730  0.25489  1.0000
  C   C324      1.0  0.15987  0.64051  0.23506  1.0000
  C   C325      1.0  0.16339  0.63225  0.21698  1.0000
  H   H466      1.0  0.16491  0.58063  0.23980  1.0000
  H   H467      1.0  0.15782  0.59540  0.27189  1.0000
  H   H468      1.0  0.15886  0.65712  0.23359  1.0000
  H   H469      1.0  0.16510  0.64260  0.20172  1.0000
  C   C326      1.0  0.23559  0.86259  0.21767  1.0000
  S   S141      1.0  0.06778  0.55991  0.04338  1.0000
  H   H470      1.0  0.21080  0.89658  0.31840  1.0000
  H   H471      1.0  0.12483  0.83460  0.37812  1.0000
  H   H472      1.0  0.16548  0.51868  0.17770  1.0000
  S   S142      1.0  0.16824  0.99153  0.48096  1.0000
  C   C327      1.0  0.20088  0.61041  0.29386  1.0000
  C   C328      1.0  0.05292  0.98668  0.30113  1.0000
  H   H473      1.0  0.08751  0.54500  0.99278  1.0000
  H   H474      1.0  0.09152  0.49989  0.08674  1.0000
  H   H475      1.0  0.21030  0.89464  0.19849  1.0000
  C   C329      1.0  0.12340  0.89099  0.38731  1.0000
  Fe  Fe72      1.0  0.16200  0.85706  0.43731  1.0000
  H   H476      1.0  0.02880  0.74441  0.38265  1.0000
  H   H477      1.0  0.04536  0.70290  0.04214  1.0000
  H   H478      1.0  0.09881  0.93786  0.48691  1.0000
  N   N29       1.0  0.01395  0.54943  0.99268  1.0000
  H   H479      1.0  0.20537  0.80740  0.38643  1.0000
  H   H480      1.0  0.24122  0.70686  0.01547  1.0000
  N   N30       1.0  0.17017  0.80922  0.08050  1.0000
  C   C330      1.0  0.17481  0.81700  0.09725  1.0000
  C   C331      1.0  0.18224  0.81808  0.05994  1.0000
  C   C332      1.0  0.14753  0.81572  0.08038  1.0000
  C   C333      1.0  0.17607  0.78602  0.08439  1.0000
  H   H481      1.0  0.16601  0.81065  0.11300  1.0000
  H   H482      1.0  0.17056  0.83448  0.09482  1.0000
  H   H483      1.0  0.19174  0.81245  0.09774  1.0000
  H   H484      1.0  0.17813  0.83557  0.05634  1.0000
  H   H485      1.0  0.19940  0.81353  0.05952  1.0000
  H   H486      1.0  0.17933  0.81235  0.04693  1.0000
  H   H487      1.0  0.14350  0.81005  0.06793  1.0000
  H   H488      1.0  0.14241  0.83313  0.07757  1.0000
  H   H489      1.0  0.13800  0.80909  0.09562  1.0000
  H   H490      1.0  0.17234  0.77968  0.07221  1.0000
  H   H491      1.0  0.16742  0.77879  0.09989  1.0000
  H   H492      1.0  0.19314  0.78045  0.08402  1.0000
  N   N31       1.0  0.11846  0.80584  0.39902  1.0000
  C   C334      1.0  0.11216  0.78651  0.39823  1.0000
  C   C335      1.0  0.12031  0.81975  0.37801  1.0000
  C   C336      1.0  0.13888  0.80021  0.40557  1.0000
  C   C337      1.0  0.10249  0.81693  0.41424  1.0000
  H   H493      1.0  0.12362  0.77802  0.38650  1.0000
  H   H494      1.0  0.09675  0.79018  0.39349  1.0000
  H   H495      1.0  0.11086  0.77556  0.41379  1.0000
  C   C338      1.0  0.22759  0.73857  0.13231  1.0000
  H   H496      1.0  0.13212  0.81192  0.36601  1.0000
  H   H497      1.0  0.02506  0.91622  0.47693  1.0000
  S   S143      1.0  0.23567  0.78927  0.35433  1.0000
  H   H498      1.0  0.13774  0.79097  0.42197  1.0000
  H   H499      1.0  0.14471  0.81448  0.40506  1.0000
  H   H500      1.0  0.08684  0.82129  0.40992  1.0000
  H   H501      1.0  0.10656  0.83181  0.41492  1.0000
  H   H502      1.0  0.10080  0.80709  0.43037  1.0000
  H   H503      1.0  0.22169  0.66941  0.99597  1.0000
  S   S144      1.0  0.04785  0.64782  0.99118  1.0000
  H   H504      1.0  0.12619  0.93224  0.47551  1.0000
  S   S145      1.0  0.24233  0.52724  0.19244  1.0000
  H   H505      1.0  0.21004  0.70625  0.04269  1.0000
  N   N32       1.0  0.23038  0.72240  0.34125  1.0000
  H   H506      1.0  0.20146  0.60724  0.25428  1.0000
  C   C339      1.0  0.07776  0.54775  0.10010  1.0000
  H   H507      1.0  0.07072  0.55661  0.08628  1.0000
  Fe  Fe73      1.0  0.23995  0.56069  0.17538  1.0000
  H   H508      1.0  0.20763  0.76491  0.17244  1.0000
  S   S146      1.0  0.24096  0.81266  0.20588  1.0000
  H   H509      1.0  0.21367  0.73177  0.13374  1.0000
  H   H510      1.0  0.20879  0.97397  0.33788  1.0000
  H   H511      1.0  0.99659  0.55212  0.02375  1.0000
  C   C340      1.0  0.00564  0.70330  0.06295  1.0000
  H   H512      1.0  0.20259  0.50679  0.24953  1.0000
  S   S147      1.0  0.23693  0.60728  0.33709  1.0000
  H   H513      1.0  0.06264  0.73257  0.35936  1.0000
  H   H514      1.0  0.10520  0.82423  0.37266  1.0000
  H   H515      1.0  0.20001  0.71591  0.35716  1.0000
  C   C341      1.0  0.20631  0.77348  0.13155  1.0000
  C   C342      1.0  0.23695  0.80716  0.36893  1.0000
  N   N33       1.0  0.09672  0.91423  0.28155  1.0000
  C   C343      1.0  0.10303  0.89877  0.26769  1.0000
  C   C344      1.0  0.09314  0.90315  0.30375  1.0000
  C   C345      1.0  0.07726  0.92899  0.27707  1.0000
  C   C346      1.0  0.11354  0.92605  0.27780  1.0000
  H   H516      1.0  0.11766  0.88737  0.27066  1.0000
  H   H517      1.0  0.10600  0.90656  0.25080  1.0000
  H   H518      1.0  0.09066  0.88957  0.27010  1.0000
  H   H519      1.0  0.08084  0.89377  0.30712  1.0000
  H   H520      1.0  0.10760  0.89225  0.30787  1.0000
  H   H521      1.0  0.08780  0.91437  0.31459  1.0000
  H   H522      1.0  0.07207  0.94088  0.28726  1.0000
  H   H523      1.0  0.06419  0.92057  0.27988  1.0000
  H   H524      1.0  0.07936  0.93764  0.26046  1.0000
  H   H525      1.0  0.10932  0.93776  0.28803  1.0000
  H   H526      1.0  0.11676  0.93468  0.26124  1.0000
  H   H527      1.0  0.12834  0.91538  0.28133  1.0000
  N   N34       1.0  0.09993  0.77123  0.21886  1.0000
  C   C347      1.0  0.09589  0.76612  0.20024  1.0000
  C   C348      1.0  0.11829  0.75605  0.22556  1.0000
  C   C349      1.0  0.08144  0.76994  0.23615  1.0000
  C   C350      1.0  0.10403  0.79279  0.21357  1.0000
  H   H528      1.0  0.08202  0.77707  0.19482  1.0000
  H   H529      1.0  0.09312  0.74981  0.20363  1.0000
  H   H530      1.0  0.10945  0.76728  0.18681  1.0000
  H   H531      1.0  0.13203  0.75497  0.21243  1.0000
  H   H532      1.0  0.12318  0.76059  0.23818  1.0000
  H   H533      1.0  0.11499  0.73994  0.23168  1.0000
  H   H534      1.0  0.07832  0.75368  0.24120  1.0000
  H   H535      1.0  0.06714  0.78073  0.23152  1.0000
  H   H536      1.0  0.08389  0.77423  0.25020  1.0000
  H   H537      1.0  0.11773  0.79444  0.20050  1.0000
  H   H538      1.0  0.10757  0.79696  0.22718  1.0000
  H   H539      1.0  0.09043  0.80467  0.20867  1.0000
  N   N35       1.0  0.21846  0.61144  0.27556  1.0000
  C   C351      1.0  0.02486  0.52305  0.05698  1.0000
  H   H540      1.0  0.19530  0.98634  0.41049  1.0000
  H   H541      1.0  0.01314  0.84721  0.44650  1.0000
  C   C352      1.0  0.15266  0.98414  0.45029  1.0000
  C   C353      1.0  0.10927  0.82470  0.46111  1.0000
  H   H542      1.0  0.17380  0.92398  0.46277  1.0000
  H   H543      1.0  0.22472  0.86665  0.28780  1.0000
  C   C354      1.0  0.22206  0.84325  0.32657  1.0000
  H   H544      1.0  0.20135  0.87843  0.34147  1.0000
  H   H545      1.0  0.02045  0.51956  0.01359  1.0000
  H   H546      1.0  0.22674  0.86115  0.23415  1.0000
  H   H547      1.0  0.11817  0.54387  0.08094  1.0000
  C   C355      1.0  0.23889  0.64863  0.32120  1.0000
  H   H548      1.0  0.20680  0.72407  0.00545  1.0000
  H   H549      1.0  0.02357  0.88895  0.48434  1.0000
  H   H550      1.0  0.21976  0.94281  0.41978  1.0000
  N   N36       1.0  0.21838  0.75580  0.24089  1.0000
  H   H551      1.0  0.08618  0.93216  0.40194  1.0000
  H   H552      1.0  0.22321  0.57864  0.27501  1.0000
  H   H553      1.0  0.19543  0.87897  0.31670  1.0000
  C   C356      1.0  0.00602  0.56106  0.00999  1.0000
  H   H554      1.0  0.20066  0.73849  0.26795  1.0000
  H   H555      1.0  0.06695  0.77857  0.35382  1.0000
  H   H556      1.0  0.14465  0.53258  0.99044  1.0000
  H   H557      1.0  0.09776  0.83494  0.45258  1.0000
  C   C357      1.0  0.20185  0.76209  0.22832  1.0000
  C   C358      1.0  0.23021  0.66960  0.31355  1.0000
  H   H558      1.0  0.01288  0.76968  0.37474  1.0000
  H   H559      1.0  0.17854  0.51690  0.02183  1.0000
  H   H560      1.0  0.24289  0.56698  0.09573  1.0000
  H   H561      1.0  0.22644  0.85806  0.20848  1.0000
  C   C359      1.0  0.14536  0.81165  0.46457  1.0000
  H   H562      1.0  0.99646  0.97726  0.43260  1.0000
  C   C360      1.0  0.00008  0.92545  0.31109  1.0000
  H   H563      1.0  0.10330  0.54141  0.06315  1.0000
  C   C361      1.0  0.06173  0.95650  0.32858  1.0000
  H   H564      1.0  0.05691  0.94450  0.34185  1.0000
  C   C362      1.0  0.08298  0.95752  0.32177  1.0000
  C   C363      1.0  0.04667  0.97107  0.31823  1.0000
  H   H565      1.0  0.03033  0.97032  0.32360  1.0000
  H   H566      1.0  0.21886  0.78772  0.24096  1.0000
  S   S148      1.0  0.15082  0.93338  0.42937  1.0000
  H   H567      1.0  0.02738  0.77222  0.32745  1.0000
  N   N37       1.0  0.22184  0.75728  0.14202  1.0000
  H   H568      1.0  0.24012  0.68099  0.30727  1.0000
  C   C364      1.0  0.12749  0.92605  0.38626  1.0000
  C   C365      1.0  0.00600  0.53683  0.06276  1.0000
  H   H569      1.0  0.16175  0.92977  0.25506  1.0000
  C   C366      1.0  0.03318  0.70800  0.03231  1.0000
  Fe  Fe74      1.0  0.06327  0.63993  0.01926  1.0000
  S   S149      1.0  0.07446  0.66724  0.02438  1.0000
  H   H570      1.0  0.05838  0.51933  0.04678  1.0000
  H   H571      1.0  0.09260  0.56821  0.99744  1.0000
  S   S150      1.0  0.04692  0.59778  0.99970  1.0000
  C   C367      1.0  0.01439  0.90511  0.48499  1.0000
  H   H572      1.0  0.20115  0.51420  0.00116  1.0000
  H   H573      1.0  0.08907  0.51221  0.12805  1.0000
  N   N38       1.0  0.11505  0.90966  0.39703  1.0000
  S   S151      1.0  0.19115  0.84039  0.44951  1.0000
  H   H574      1.0  0.22949  0.67260  0.08579  1.0000
  C   C368      1.0  0.04387  0.53006  0.05127  1.0000
  C   C369      1.0  0.21698  0.77262  0.25211  1.0000
  H   H575      1.0  0.10537  0.97324  0.29875  1.0000
  H   H576      1.0  0.02466  0.79286  0.34114  1.0000
  H   H577      1.0  0.01394  0.98042  0.37434  1.0000
  S   S152      1.0  0.22411  0.57427  0.20387  1.0000
  C   C370      1.0  0.04405  0.55097  0.05095  1.0000
  C   C371      1.0  0.23077  0.62637  0.27673  1.0000
  H   H578      1.0  0.14736  0.66318  0.16030  1.0000
  N   N39       1.0  0.09238  0.52819  0.09559  1.0000
  H   H579      1.0  0.19789  0.49335  0.04850  1.0000
  C   C372      1.0  0.10277  0.81204  0.48052  1.0000
  H   H580      1.0  0.09666  0.69647  0.02889  1.0000
  H   H581      1.0  0.16744  0.64009  0.16336  1.0000
  S   S153      1.0  0.23325  0.52936  0.25230  1.0000
  H   H582      1.0  0.20998  0.90017  0.22331  1.0000
  H   H583      1.0  0.22387  0.73906  0.17310  1.0000
  H   H584      1.0  0.22344  0.65711  0.02266  1.0000
  H   H585      1.0  0.24130  0.74713  0.34777  1.0000
  H   H586      1.0  0.23761  0.62104  0.29108  1.0000
  N   N40       1.0  0.21682  0.69092  0.01654  1.0000
  C   C373      1.0  0.15043  0.64572  0.16318  1.0000
  H   H587      1.0  0.04196  0.53283  0.00411  1.0000
  H   H588      1.0  0.18049  0.95921  0.40312  1.0000
  C   C374      1.0  0.19343  0.96484  0.37001  1.0000
  S   S154      1.0  0.23518  0.79664  0.02934  1.0000
  H   H589      1.0  0.08313  0.90589  0.40322  1.0000
  S   S155      1.0  0.19502  0.90703  0.27743  1.0000
  H   H590      1.0  0.01718  0.69805  0.07350  1.0000
  S   S156      1.0  0.15104  0.87818  0.46051  1.0000
  H   H591      1.0  0.03410  0.66867  0.05488  1.0000
  C   C375      1.0  0.18974  0.49699  0.16185  1.0000
  S   S157      1.0  0.18504  0.94347  0.36596  1.0000
  Fe  Fe75      1.0  0.13430  0.94674  0.32180  1.0000
  Fe  Fe76      1.0  0.19465  0.57242  0.19542  1.0000
  H   H592      1.0  0.08627  0.81236  0.48662  1.0000
  H   H593      1.0  0.20625  0.74337  0.32597  1.0000
  H   H594      1.0  0.11216  0.64086  0.16253  1.0000
  S   S158      1.0  0.14468  0.97124  0.33176  1.0000
  H   H595      1.0  0.23483  0.95280  0.38183  1.0000
  H   H596      1.0  0.13279  0.89774  0.42141  1.0000
  C   C376      1.0  0.23913  0.75234  0.22684  1.0000
  H   H597      1.0  0.11819  0.66395  0.14376  1.0000
  C   C377      1.0  0.03612  0.85275  0.46071  1.0000
  H   H598      1.0  0.19058  0.60014  0.29299  1.0000
  N   N41       1.0  0.01506  0.69773  0.04219  1.0000
  C   C378      1.0  0.20534  0.70869  0.00305  1.0000
  Fe  Fe77      1.0  0.17375  0.94734  0.33613  1.0000
  H   H599      1.0  0.13984  0.60867  0.16710  1.0000
  Fe  Fe78      1.0  0.17697  0.93242  0.29570  1.0000
  C   C379      1.0  0.12195  0.64644  0.14707  1.0000
  C   C380      1.0  0.21634  0.70752  0.35220  1.0000
  C   C381      1.0  0.99940  0.70488  0.02859  1.0000
  N   N42       1.0  0.14449  0.63828  0.14698  1.0000
  C   C382      1.0  0.11632  0.90369  0.41947  1.0000
  H   H600      1.0  0.10756  0.89098  0.42802  1.0000
  H   H601      1.0  0.18829  0.70855  0.00674  1.0000
  C   C383      1.0  0.99702  0.91589  0.27970  1.0000
  H   H602      1.0  0.13661  0.50932  0.16721  1.0000
  C   C384      1.0  0.18760  0.50694  0.01031  1.0000
  C   C385      1.0  0.12766  0.53856  0.99563  1.0000
  C   C386      1.0  0.19820  0.98382  0.39462  1.0000
  H   H603      1.0  0.04092  0.70388  0.01673  1.0000
  C   C387      1.0  0.23202  0.59037  0.27574  1.0000
  H   H604      1.0  0.01904  0.56428  0.01537  1.0000
  C   C388      1.0  0.05723  0.74488  0.34621  1.0000
  H   H605      1.0  0.15435  0.66340  0.12291  1.0000
  H   H606      1.0  0.16568  0.60847  0.15160  1.0000
  C   C389      1.0  0.14879  0.61506  0.15141  1.0000
  C   C390      1.0  0.08097  0.51471  0.09027  1.0000
  H   H607      1.0  0.14000  0.88426  0.38861  1.0000
  H   H608      1.0  0.20523  0.83483  0.40517  1.0000
  H   H609      1.0  0.13987  0.97794  0.42659  1.0000
  C   C391      1.0  0.05334  0.77261  0.36469  1.0000
  Fe  Fe79      1.0  0.20564  0.86535  0.42533  1.0000
  H   H610      1.0  0.22302  0.62013  0.24183  1.0000
  C   C392      1.0  0.21974  0.89919  0.20746  1.0000
  H   H611      1.0  0.24314  0.69790  0.09733  1.0000
  C   C393      1.0  0.13048  0.82499  0.45342  1.0000
  H   H612      1.0  0.21522  0.67816  0.04957  1.0000
  H   H613      1.0  0.11283  0.91106  0.48844  1.0000
  S   S159      1.0  0.19876  0.88792  0.44713  1.0000
  S   S160      1.0  0.03963  0.62091  0.03985  1.0000
  H   H614      1.0  0.01566  0.74887  0.36120  1.0000
  C   C394      1.0  0.21024  0.61855  0.25595  1.0000
  H   H615      1.0  0.22166  0.69711  0.36642  1.0000
  C   C395      1.0  0.15685  0.64602  0.12621  1.0000
  H   H616      1.0  0.17396  0.64002  0.12551  1.0000
  H   H617      1.0  0.00886  0.66633  0.05225  1.0000
  H   H618      1.0  0.20661  0.60422  0.30887  1.0000
  H   H619      1.0  0.22786  0.91217  0.37927  1.0000
  C   C396      1.0  0.09295  0.91785  0.39511  1.0000
  H   H620      1.0  0.23864  0.58455  0.29027  1.0000
  C   C397      1.0  0.23365  0.83263  0.13013  1.0000
  S   S161      1.0  0.23655  0.85823  0.40319  1.0000
  H   H621      1.0  0.22717  0.53473  0.11052  1.0000
  H   H622      1.0  0.19084  0.62625  0.29477  1.0000
  S   S162      1.0  0.19300  0.53988  0.21430  1.0000
  H   H623      1.0  0.11695  0.64145  0.13478  1.0000
  H   H624      1.0  0.14456  0.60895  0.13942  1.0000
  H   H625      1.0  0.23535  0.72689  0.37016  1.0000
  C   C398      1.0  0.14871  0.97114  0.43894  1.0000
  C   C399      1.0  0.15642  0.94944  0.44333  1.0000
  S   S163      1.0  0.13813  0.84310  0.43068  1.0000
  Fe  Fe80      1.0  0.16847  0.90020  0.43590  1.0000
  S   S164      1.0  0.21046  0.56195  0.16505  1.0000
  Fe  Fe81      1.0  0.22419  0.54086  0.22045  1.0000
  Fe  Fe82      1.0  0.16150  0.97834  0.29827  1.0000
  C   C400      1.0  0.21923  0.81390  0.38359  1.0000
  H   H626      1.0  0.09136  0.92211  0.37838  1.0000
  C   C401      1.0  0.18972  0.96851  0.39043  1.0000
  S   S165      1.0  0.19153  0.95580  0.30326  1.0000
  H   H627      1.0  0.21459  0.74598  0.35966  1.0000
  H   H628      1.0  0.02514  0.58100  0.05608  1.0000
  H   H629      1.0  0.22813  0.91672  0.43391  1.0000
  H   H630      1.0  0.12256  0.89499  0.37036  1.0000
  H   H631      1.0  0.02852  0.72542  0.02990  1.0000
  H   H632      1.0  0.05925  0.76108  0.37805  1.0000
  H   H633      1.0  0.04908  0.78448  0.32437  1.0000
  H   H634      1.0  0.04984  0.73750  0.33761  1.0000
  C   C402      1.0  0.16798  0.94073  0.45918  1.0000
  H   H635      1.0  0.12045  0.52456  0.00327  1.0000
  H   H636      1.0  0.07145  0.74962  0.33523  1.0000
  H   H637      1.0  0.06466  0.54435  0.11348  1.0000
  C   C403      1.0  0.02518  0.56482  0.05635  1.0000
  H   H638      1.0  0.22838  0.83791  0.14477  1.0000
  H   H639      1.0  0.20386  0.77651  0.21612  1.0000
  H   H640      1.0  0.11433  0.87834  0.39513  1.0000
  H   H641      1.0  0.07435  0.52262  0.07604  1.0000
  H   H642      1.0  0.20159  0.78780  0.13855  1.0000
  H   H643      1.0  0.11006  0.91737  0.42735  1.0000
  C   C404      1.0  0.10135  0.51684  0.11425  1.0000
  N   N43       1.0  0.23975  0.88401  0.20874  1.0000
  H   H644      1.0  0.20198  0.74954  0.22011  1.0000
  S   S166      1.0  0.02130  0.84740  0.48632  1.0000
  C   C405      1.0  0.21915  0.82944  0.39423  1.0000
  C   C406      1.0  0.22295  0.73543  0.32224  1.0000
  H   H645      1.0  0.12201  0.94017  0.39355  1.0000
  H   H646      1.0  0.22013  0.90054  0.40620  1.0000
  H   H647      1.0  0.21482  0.84015  0.34358  1.0000
  C   C407      1.0  0.20784  0.69188  0.03883  1.0000
  H   H648      1.0  0.00017  0.84920  0.39748  1.0000
  H   H649      1.0  0.19182  0.76755  0.13315  1.0000
  H   H650      1.0  0.00019  0.72060  0.06153  1.0000
  H   H651      1.0  0.22234  0.91532  0.19973  1.0000
  H   H652      1.0  0.17933  0.77658  0.00935  1.0000
  H   H653      1.0  0.12567  0.54779  0.00789  1.0000
  N   N44       1.0  0.22711  0.86444  0.31966  1.0000
  S   S167      1.0  0.21085  0.50183  0.17023  1.0000
  H   H654      1.0  0.21428  0.97025  0.48592  1.0000
  C   C408      1.0  0.02419  0.75616  0.36877  1.0000
  S   S168      1.0  0.00483  0.81697  0.37370  1.0000
  H   H655      1.0  0.18597  0.76538  0.23829  1.0000
  H   H656      1.0  0.19073  0.69211  0.04268  1.0000
  H   H657      1.0  0.21541  0.72334  0.24856  1.0000
  H   H658      1.0  0.17736  0.50759  0.99942  1.0000
  H   H659      1.0  0.20433  0.79935  0.00597  1.0000
  C   C409      1.0  0.21559  0.73614  0.25632  1.0000
  H   H660      1.0  0.22836  0.73034  0.26539  1.0000
  H   H661      1.0  0.22942  0.76851  0.26150  1.0000
  C   C410      1.0  0.16391  0.97537  0.46637  1.0000
  C   C411      1.0  0.21495  0.67081  0.01260  1.0000
  H   H662      1.0  0.19858  0.74446  0.16683  1.0000
  H   H663      1.0  0.22433  0.72574  0.31051  1.0000
  H   H664      1.0  0.21087  0.84131  0.31784  1.0000
  H   H665      1.0  0.24144  0.88881  0.23871  1.0000
  H   H666      1.0  0.23293  0.53273  0.13570  1.0000
  H   H667      1.0  0.18025  0.94688  0.48331  1.0000
  H   H668      1.0  0.24090  0.84571  0.16925  1.0000
  H   H669      1.0  0.23688  0.77996  0.14692  1.0000
  C   C412      1.0  0.23694  0.83802  0.39062  1.0000
  H   H670      1.0  0.23473  0.74239  0.11531  1.0000
  H   H671      1.0  0.23896  0.49442  0.23184  1.0000
  H   H672      1.0  0.20913  0.92717  0.39690  1.0000
  H   H673      1.0  0.06785  0.51052  0.10329  1.0000
  C   C413      1.0  0.23914  0.69235  0.01169  1.0000
  H   H674      1.0  0.22087  0.64230  0.27738  1.0000
  H   H675      1.0  0.00760  0.80595  0.48002  1.0000
  H   H676      1.0  0.20139  0.89179  0.48687  1.0000
  C   C414      1.0  0.22384  0.91520  0.39550  1.0000
  C   C415      1.0  0.13888  0.79863  0.48385  1.0000
  H   H677      1.0  0.00614  0.70084  0.01281  1.0000
  H   H678      1.0  0.21005  0.49534  0.21522  1.0000
  H   H679      1.0  0.24249  0.51091  0.12282  1.0000
  C   C416      1.0  0.23951  0.52839  0.12007  1.0000
  H   H680      1.0  0.24181  0.76692  0.21508  1.0000
  H   H681      1.0  0.24068  0.73970  0.21820  1.0000
  C   C417      1.0  0.23585  0.86817  0.29683  1.0000
  H   H682      1.0  0.23922  0.88429  0.29086  1.0000
  N   N45       1.0  0.24094  0.92183  0.40073  1.0000
  H   H683      1.0  0.23915  0.72592  0.13996  1.0000
  C   C418      1.0  0.24069  0.76584  0.13973  1.0000
  H   H684      1.0  0.23628  0.86388  0.34824  1.0000
  C   C419      1.0  0.24264  0.86601  0.33102  1.0000
  H   H685      1.0  0.99396  0.93469  0.32314  1.0000
  Fe  Fe83      1.0  0.07643  0.80461  0.52867  1.0000
  S   S169      1.0  0.06873  0.83951  0.51687  1.0000
  S   S170      1.0  0.10910  0.78749  0.51833  1.0000
  Fe  Fe84      1.0  0.03292  0.80231  0.55412  1.0000
  S   S171      1.0  0.02185  0.83722  0.54501  1.0000
  H   H686      1.0  0.10553  0.92125  0.54210  1.0000
  Fe  Fe85      1.0  0.03900  0.83346  0.51258  1.0000
  H   H687      1.0  0.02098  0.51265  0.87956  1.0000
  Fe  Fe86      1.0  0.05263  0.84009  0.55027  1.0000
  S   S172      1.0  0.05469  0.86793  0.56228  1.0000
  S   S173      1.0  0.04822  0.79843  0.52121  1.0000
  S   S174      1.0  0.06225  0.80551  0.56257  1.0000
  C   C420      1.0  0.21656  0.97117  0.53568  1.0000
  C   C421      1.0  0.00983  0.60981  0.78288  1.0000
  H   H688      1.0  0.12644  0.85342  0.55957  1.0000
  C   C422      1.0  0.00436  0.85969  0.63484  1.0000
  H   H689      1.0  0.00495  0.62719  0.93842  1.0000
  C   C423      1.0  0.00716  0.61247  0.88489  1.0000
  S   S175      1.0  0.03269  0.93216  0.54970  1.0000
  H   H690      1.0  0.00761  0.80862  0.50590  1.0000
  H   H691      1.0  0.07791  0.97776  0.60413  1.0000
  H   H692      1.0  0.17020  0.54894  0.82664  1.0000
  Fe  Fe87      1.0  0.10070  0.58295  0.83919  1.0000
  S   S176      1.0  0.09040  0.55336  0.85801  1.0000
  S   S177      1.0  0.13405  0.58650  0.83315  1.0000
  Fe  Fe88      1.0  0.05767  0.60403  0.82964  1.0000
  S   S178      1.0  0.04354  0.57620  0.84747  1.0000
  S   S179      1.0  0.03840  0.63414  0.81510  1.0000
  Fe  Fe89      1.0  0.06187  0.57492  0.87144  1.0000
  S   S180      1.0  0.04625  0.57030  0.90525  1.0000
  Fe  Fe90      1.0  0.07328  0.55744  0.83228  1.0000
  S   S181      1.0  0.07336  0.52869  0.82146  1.0000
  S   S182      1.0  0.07364  0.60447  0.85510  1.0000
  S   S183      1.0  0.08589  0.58534  0.81201  1.0000
  H   H693      1.0  0.00141  0.59752  0.89180  1.0000
  C   C424      1.0  0.21272  0.96472  0.50321  1.0000
  H   H694      1.0  0.02336  0.60837  0.87584  1.0000
  C   C425      1.0  0.08900  0.63852  0.88937  1.0000
  H   H695      1.0  0.14356  0.91237  0.52659  1.0000
  S   S184      1.0  0.16831  0.57719  0.91460  1.0000
  Fe  Fe91      1.0  0.14369  0.94943  0.61006  1.0000
  S   S185      1.0  0.15088  0.96496  0.57598  1.0000
  C   C426      1.0  0.99937  0.62773  0.97125  1.0000
  Fe  Fe92      1.0  0.13084  0.91236  0.59958  1.0000
  S   S186      1.0  0.13671  0.92607  0.56524  1.0000
  S   S187      1.0  0.12009  0.88106  0.60914  1.0000
  Fe  Fe93      1.0  0.16577  0.93249  0.57044  1.0000
  S   S188      1.0  0.19385  0.92695  0.54474  1.0000
  Fe  Fe94      1.0  0.12124  0.95696  0.57405  1.0000
  H   H696      1.0  0.01339  0.88971  0.64933  1.0000
  S   S189      1.0  0.16122  0.91702  0.60467  1.0000
  S   S190      1.0  0.11278  0.94302  0.60831  1.0000
  H   H697      1.0  0.04821  0.87978  0.61216  1.0000
  H   H698      1.0  0.06028  0.51389  0.74124  1.0000
  H   H699      1.0  0.01585  0.86974  0.59297  1.0000
  H   H700      1.0  0.08770  0.56835  0.97237  1.0000
  C   C427      1.0  0.03887  0.86766  0.62120  1.0000
  C   C428      1.0  0.18283  0.96921  0.63299  1.0000
  H   H701      1.0  0.11319  0.98699  0.60000  1.0000
  H   H702      1.0  0.14166  0.51066  0.86547  1.0000
  Fe  Fe95      1.0  0.18700  0.54554  0.92571  1.0000
  C   C429      1.0  0.00397  0.74963  0.53443  1.0000
  H   H703      1.0  0.00914  0.66450  0.79278  1.0000
  H   H704      1.0  0.12111  0.79983  0.55633  1.0000
  C   C430      1.0  0.00042  0.80147  0.49693  1.0000
  H   H705      1.0  0.17449  0.50940  0.87638  1.0000
  C   C431      1.0  0.00930  0.64919  0.79013  1.0000
  H   H706      1.0  0.18694  0.95850  0.62228  1.0000
  H   H707      1.0  0.14041  0.53776  0.85239  1.0000
  H   H708      1.0  0.03037  0.88494  0.51923  1.0000
  C   C432      1.0  0.12805  0.56981  0.96821  1.0000
  H   H709      1.0  0.20684  0.91915  0.50260  1.0000
  C   C433      1.0  0.18511  0.87569  0.51590  1.0000
  H   H710      1.0  0.07828  0.65019  0.87987  1.0000
  C   C434      1.0  0.15380  0.81892  0.55116  1.0000
  C   C435      1.0  0.11752  0.79955  0.49224  1.0000
  H   H711      1.0  0.00800  0.53655  0.86530  1.0000
  S   S191      1.0  0.00913  0.78326  0.57480  1.0000
  N   N46       1.0  0.17011  0.51739  0.84443  1.0000
  H   H712      1.0  0.00737  0.85413  0.65108  1.0000
  H   H713      1.0  0.15038  0.78864  0.49267  1.0000
  H   H714      1.0  0.00859  0.84583  0.62722  1.0000
  H   H715      1.0  0.08690  0.93026  0.52537  1.0000
  S   S192      1.0  0.18590  0.53400  0.96004  1.0000
  H   H716      1.0  0.10588  0.50333  0.76682  1.0000
  H   H717      1.0  0.14918  0.83288  0.51078  1.0000
  H   H718      1.0  0.11501  0.51694  0.74072  1.0000
  H   H719      1.0  0.13227  0.95516  0.49621  1.0000
  H   H720      1.0  0.15220  0.82130  0.56736  1.0000
  C   C436      1.0  0.04790  0.94832  0.55305  1.0000
  C   C437      1.0  0.05324  0.96493  0.53675  1.0000
  H   H721      1.0  0.10213  0.82369  0.55227  1.0000
  C   C438      1.0  0.07867  0.96904  0.55465  1.0000
  C   C439      1.0  0.07287  0.95286  0.57121  1.0000
  C   C440      1.0  0.05721  0.94279  0.57060  1.0000
  Fe  Fe96      1.0  0.21995  0.51982  0.95113  1.0000
  H   H722      1.0  0.08648  0.62265  0.88969  1.0000
  H   H723      1.0  0.08067  0.94779  0.58437  1.0000
  H   H724      1.0  0.05311  0.92995  0.58324  1.0000
  N   N47       1.0  0.11912  0.92742  0.50920  1.0000
  H   H725      1.0  0.01293  0.74519  0.51985  1.0000
  H   H726      1.0  0.12008  0.62708  0.91060  1.0000
  C   C441      1.0  0.19875  0.90697  0.51234  1.0000
  C   C442      1.0  0.19121  0.90681  0.53379  1.0000
  C   C443      1.0  0.18086  0.89092  0.54632  1.0000
  C   C444      1.0  0.17801  0.87527  0.53744  1.0000
  H   H727      1.0  0.22583  0.95493  0.53953  1.0000
  H   H728      1.0  0.17527  0.89051  0.56298  1.0000
  H   H729      1.0  0.17018  0.86295  0.54733  1.0000
  C   C445      1.0  0.19868  0.97519  0.63919  1.0000
  H   H730      1.0  0.00805  0.61364  0.84466  1.0000
  C   C446      1.0  0.09928  0.51728  0.81195  1.0000
  C   C447      1.0  0.01159  0.88306  0.60132  1.0000
  H   H731      1.0  0.01198  0.63577  0.96940  1.0000
  C   C448      1.0  0.17887  0.52043  0.86132  1.0000
  C   C449      1.0  0.13530  0.52017  0.79588  1.0000
  C   C450      1.0  0.11463  0.52955  0.80369  1.0000
  C   C451      1.0  0.12461  0.62484  0.89404  1.0000
  H   H732      1.0  0.01548  0.90275  0.53593  1.0000
  H   H733      1.0  0.14710  0.52969  0.78932  1.0000
  H   H734      1.0  0.11060  0.54627  0.80308  1.0000
  C   C452      1.0  0.05828  0.58199  0.91823  1.0000
  C   C453      1.0  0.08003  0.57971  0.91395  1.0000
  C   C454      1.0  0.08937  0.58936  0.92444  1.0000
  C   C455      1.0  0.07692  0.60172  0.93872  1.0000
  C   C456      1.0  0.05519  0.60386  0.94305  1.0000
  C   C457      1.0  0.04592  0.59395  0.93278  1.0000
  H   H735      1.0  0.08962  0.57029  0.90278  1.0000
  H   H736      1.0  0.10619  0.58716  0.92158  1.0000
  C   C458      1.0  0.01569  0.52414  0.82861  1.0000
  H   H737      1.0  0.02913  0.59586  0.93563  1.0000
  C   C459      1.0  0.14446  0.58194  0.85567  1.0000
  C   C460      1.0  0.13526  0.57074  0.87489  1.0000
  C   C461      1.0  0.14351  0.56798  0.89287  1.0000
  C   C462      1.0  0.16039  0.57718  0.89172  1.0000
  C   C463      1.0  0.16966  0.58818  0.87246  1.0000
  C   C464      1.0  0.16192  0.59025  0.85439  1.0000
  H   H738      1.0  0.12177  0.56431  0.87595  1.0000
  H   H739      1.0  0.13627  0.55953  0.90779  1.0000
  H   H740      1.0  0.18270  0.59530  0.87156  1.0000
  H   H741      1.0  0.16909  0.59887  0.83952  1.0000
  C   C465      1.0  0.13946  0.91315  0.51135  1.0000
  H   H742      1.0  0.24307  0.55906  0.94865  1.0000
  H   H743      1.0  0.01469  0.57771  0.96911  1.0000
  H   H744      1.0  0.06979  0.51292  0.78471  1.0000
  C   C466      1.0  0.02269  0.61163  0.79564  1.0000
  C   C467      1.0  0.02252  0.63138  0.79917  1.0000
  H   H745      1.0  0.99713  0.87700  0.51599  1.0000
  H   H746      1.0  0.01362  0.51536  0.81748  1.0000
  H   H747      1.0  0.13997  0.51860  0.83823  1.0000
  H   H748      1.0  0.03290  0.59782  0.80252  1.0000
  H   H749      1.0  0.19601  0.96364  0.50978  1.0000
  H   H750      1.0  0.10782  0.53027  0.76237  1.0000
  S   S193      1.0  0.14103  0.96927  0.63420  1.0000
  H   H751      1.0  0.16677  0.82653  0.54095  1.0000
  H   H752      1.0  0.01013  0.59456  0.78004  1.0000
  N   N48       1.0  0.01621  0.87617  0.62267  1.0000
  C   C468      1.0  0.07477  0.87015  0.57372  1.0000
  C   C469      1.0  0.08485  0.85327  0.58710  1.0000
  C   C470      1.0  0.09882  0.85665  0.59792  1.0000
  C   C471      1.0  0.10301  0.87682  0.59513  1.0000
  C   C472      1.0  0.09314  0.89348  0.58152  1.0000
  C   C473      1.0  0.07903  0.89014  0.57102  1.0000
  H   H753      1.0  0.08116  0.83788  0.58986  1.0000
  H   H754      1.0  0.10622  0.84369  0.60865  1.0000
  H   H755      1.0  0.09588  0.90909  0.57967  1.0000
  H   H756      1.0  0.07098  0.90322  0.56100  1.0000
  H   H757      1.0  0.14230  0.80767  0.52114  1.0000
  H   H758      1.0  0.09006  0.54475  0.72191  1.0000
  H   H759      1.0  0.03035  0.53026  0.82159  1.0000
  H   H760      1.0  0.13967  0.85917  0.53279  1.0000
  C   C474      1.0  0.10358  0.51871  0.75564  1.0000
  C   C475      1.0  0.99467  0.92969  0.50701  1.0000
  H   H761      1.0  0.02700  0.76516  0.53762  1.0000
  C   C476      1.0  0.00024  0.76735  0.56296  1.0000
  C   C477      1.0  0.17641  0.53231  0.82481  1.0000
  H   H762      1.0  0.12351  0.60857  0.89433  1.0000
  H   H763      1.0  0.10366  0.67374  0.86991  1.0000
  C   C478      1.0  0.99645  0.64737  0.77740  1.0000
  H   H764      1.0  0.99680  0.49309  0.87437  1.0000
  H   H765      1.0  0.11251  0.85738  0.53884  1.0000
  H   H766      1.0  0.19375  0.53013  0.81997  1.0000
  Fe  Fe97      1.0  0.21234  0.50472  0.91448  1.0000
  H   H767      1.0  0.03881  0.56640  0.97798  1.0000
  H   H768      1.0  0.13944  0.89684  0.51039  1.0000
  N   N49       1.0  0.08179  0.52538  0.75232  1.0000
  C   C479      1.0  0.07670  0.50946  0.74369  1.0000
  C   C480      1.0  0.07948  0.54583  0.73744  1.0000
  H   H769      1.0  0.07811  0.49390  0.75460  1.0000
  C   C481      1.0  0.06736  0.52759  0.77258  1.0000
  H   H770      1.0  0.04605  0.96924  0.52315  1.0000
  H   H771      1.0  0.02046  0.89532  0.59147  1.0000
  C   C482      1.0  0.02516  0.56253  0.97433  1.0000
  H   H772      1.0  0.00159  0.53611  0.97356  1.0000
  H   H773      1.0  0.08334  0.55816  0.74345  1.0000
  H   H774      1.0  0.04302  0.86212  0.63698  1.0000
  Fe  Fe98      1.0  0.99963  0.93934  0.56693  1.0000
  C   C483      1.0  0.19371  0.98890  0.65334  1.0000
  C   C484      1.0  0.99674  0.62769  0.77366  1.0000
  C   C485      1.0  0.17812  0.49561  0.84106  1.0000
  H   H775      1.0  0.21129  0.70826  0.98611  1.0000
  H   H776      1.0  0.05069  0.53098  0.77115  1.0000
  H   H777      1.0  0.12465  0.94976  0.52425  1.0000
  C   C486      1.0  0.13708  0.82462  0.52180  1.0000
  N   N50       1.0  0.11110  0.64023  0.88059  1.0000
  H   H778      1.0  0.12232  0.83043  0.51567  1.0000
  H   H779      1.0  0.13396  0.63610  0.85228  1.0000
  H   H780      1.0  0.04550  0.61359  0.95388  1.0000
  C   C487      1.0  0.10262  0.92033  0.52681  1.0000
  C   C488      1.0  0.00171  0.64700  0.86281  1.0000
  C   C489      1.0  0.19551  0.89156  0.50337  1.0000
  C   C490      1.0  0.06836  0.97554  0.53772  1.0000
  H   H781      1.0  0.00822  0.61894  0.89823  1.0000
  H   H782      1.0  0.09217  0.97602  0.63494  1.0000
  H   H783      1.0  0.01853  0.90711  0.62425  1.0000
  C   C491      1.0  0.11714  0.63580  0.85914  1.0000
  N   N51       1.0  0.21923  0.97904  0.51274  1.0000
  C   C492      1.0  0.11746  0.81681  0.55712  1.0000
  H   H784      1.0  0.14140  0.62587  0.88828  1.0000
  H   H785      1.0  0.06979  0.54050  0.77881  1.0000
  C   C493      1.0  0.01186  0.76119  0.54434  1.0000
  H   H786      1.0  0.11480  0.61995  0.85912  1.0000
  H   H787      1.0  0.10169  0.90379  0.52765  1.0000
  S   S194      1.0  0.18024  0.85651  0.50507  1.0000
  H   H788      1.0  0.22215  0.94849  0.50630  1.0000
  Fe  Fe99      1.0  0.18005  0.50463  0.95468  1.0000
  H   H789      1.0  0.13019  0.66342  0.87333  1.0000
  H   H790      1.0  0.03578  0.52766  0.85729  1.0000
  S   S195      1.0  0.17790  0.51748  0.92108  1.0000
  C   C494      1.0  0.12784  0.85045  0.54366  1.0000
  H   H791      1.0  0.08407  0.64108  0.90582  1.0000
  H   H792      1.0  0.11544  0.81784  0.57381  1.0000
  N   N52       1.0  0.00519  0.90753  0.50688  1.0000
  N   N53       1.0  0.11810  0.55137  0.97775  1.0000
  S   S196      1.0  0.08869  0.61460  0.95084  1.0000
  C   C495      1.0  0.10462  0.49571  0.81246  1.0000
  C   C496      1.0  0.14072  0.49844  0.79695  1.0000
  H   H793      1.0  0.10930  0.66533  0.89590  1.0000
  H   H794      1.0  0.22152  0.98142  0.54342  1.0000
  S   S197      1.0  0.22171  0.53407  0.91663  1.0000
  C   C497      1.0  0.14702  0.52125  0.85044  1.0000
  S   S198      1.0  0.09989  0.97997  0.55418  1.0000
  H   H795      1.0  0.00244  0.53788  0.82950  1.0000
  C   C498      1.0  0.02058  0.52237  0.86350  1.0000
  H   H796      1.0  0.15880  0.80175  0.55139  1.0000
  H   H797      1.0  0.03100  0.55458  0.96065  1.0000
  H   H798      1.0  0.11357  0.54756  0.94843  1.0000
  H   H799      1.0  0.07260  0.98816  0.52497  1.0000
  H   H800      1.0  0.10765  0.64739  0.84835  1.0000
  C   C499      1.0  0.11398  0.92713  0.48914  1.0000
  N   N54       1.0  0.13404  0.82773  0.54345  1.0000
  H   H801      1.0  0.06314  0.55142  0.73482  1.0000
  C   C500      1.0  0.11366  0.66166  0.87988  1.0000
  H   H802      1.0  0.21492  0.96897  0.63314  1.0000
  C   C501      1.0  0.12034  0.94904  0.50952  1.0000
  C   C502      1.0  0.16172  0.97674  0.64100  1.0000
  H   H803      1.0  0.17044  0.53014  0.81163  1.0000
  H   H804      1.0  0.01813  0.64358  0.85403  1.0000
  H   H805      1.0  0.11478  0.52401  0.96862  1.0000
  N   N55       1.0  0.01669  0.51049  0.84952  1.0000
  H   H806      1.0  0.08728  0.50730  0.72842  1.0000
  H   H807      1.0  0.03361  0.91181  0.51297  1.0000
  H   H808      1.0  0.10509  0.96006  0.50851  1.0000
  H   H809      1.0  0.13816  0.53359  0.95519  1.0000
  C   C503      1.0  0.99662  0.50346  0.85861  1.0000
  H   H810      1.0  0.19630  0.51755  0.85732  1.0000
  H   H811      1.0  0.00500  0.78414  0.50175  1.0000
  H   H812      1.0  0.12204  0.57918  0.95398  1.0000
  H   H813      1.0  0.04406  0.85416  0.61301  1.0000
  H   H814      1.0  0.00602  0.98288  0.58361  1.0000
  H   H815      1.0  0.17321  0.53673  0.86424  1.0000
  H   H816      1.0  0.19990  0.97038  0.54301  1.0000
  C   C504      1.0  0.12122  0.53858  0.96180  1.0000
  H   H817      1.0  0.14529  0.56507  0.96305  1.0000
  C   C505      1.0  0.02190  0.90149  0.51922  1.0000
  C   C506      1.0  0.01003  0.89430  0.63322  1.0000
  H   H818      1.0  0.15243  0.91848  0.49887  1.0000
  C   C507      1.0  0.99541  0.62276  0.95374  1.0000
  H   H819      1.0  0.00174  0.65502  0.87543  1.0000
  H   H820      1.0  0.00574  0.94057  0.49988  1.0000
  Fe  Fe100     1.0  0.06956  0.61861  0.98266  1.0000
  C   C508      1.0  0.24143  0.98007  0.50359  1.0000
  H   H821      1.0  0.03468  0.52039  0.98696  1.0000
  C   C509      1.0  0.99617  0.54461  0.98683  1.0000
  H   H822      1.0  0.04918  0.49670  0.84007  1.0000
  C   C510      1.0  0.15674  0.99056  0.65504  1.0000
  H   H823      1.0  0.12508  0.58055  0.97932  1.0000
  S   S199      1.0  0.24016  0.51726  0.97465  1.0000
  H   H824      1.0  0.99464  0.88961  0.60192  1.0000
  C   C511      1.0  0.09546  0.55853  0.98537  1.0000
  H   H825      1.0  0.17149  0.49264  0.82871  1.0000
  H   H826      1.0  0.45992  0.09020  0.02510  1.0000
  Fe  Fe101     1.0  0.47626  0.46944  0.32548  1.0000
  H   H827      1.0  0.35608  0.49051  0.22517  1.0000
  S   S200      1.0  0.46392  0.46272  0.30028  1.0000
  C   C512      1.0  0.44694  0.45125  0.37013  1.0000
  H   H828      1.0  0.47089  0.17562  0.04138  1.0000
  H   H829      1.0  0.47585  0.04142  0.00334  1.0000
  H   H830      1.0  0.44591  0.30948  0.46861  1.0000
  C   C513      1.0  0.47017  0.37740  0.38593  1.0000
  H   H831      1.0  0.46377  0.21140  0.04949  1.0000
  S   S201      1.0  0.48312  0.13471  0.01248  1.0000
  H   H832      1.0  0.46855  0.36294  0.39818  1.0000
  Fe  Fe102     1.0  0.42008  0.40824  0.47134  1.0000
  H   H833      1.0  0.47956  0.41078  0.24054  1.0000
  H   H834      1.0  0.39660  0.47759  0.38881  1.0000
  H   H835      1.0  0.47401  0.46223  0.25444  1.0000
  H   H836      1.0  0.42083  0.30210  0.47814  1.0000
  H   H837      1.0  0.43013  0.06076  0.04354  1.0000
  H   H838      1.0  0.44632  0.13508  0.99791  1.0000
  H   H839      1.0  0.44004  0.48711  0.26538  1.0000
  H   H840      1.0  0.38035  0.29812  0.47131  1.0000
  Fe  Fe103     1.0  0.41681  0.38861  0.43688  1.0000
  S   S202      1.0  0.41540  0.39564  0.40274  1.0000
  S   S203      1.0  0.44407  0.39589  0.44520  1.0000
  C   C514      1.0  0.48313  0.05195  0.03653  1.0000
  C   C515      1.0  0.40868  0.03430  0.01860  1.0000
  H   H841      1.0  0.35838  0.24522  0.46877  1.0000
  N   N56       1.0  0.48148  0.44344  0.23105  1.0000
  H   H842      1.0  0.45916  0.33599  0.43789  1.0000
  C   C516      1.0  0.37780  0.32377  0.48649  1.0000
  C   C517      1.0  0.48001  0.39912  0.48240  1.0000
  H   H843      1.0  0.48170  0.38172  0.48509  1.0000
  H   H844      1.0  0.48391  0.06381  0.04517  1.0000
  N   N57       1.0  0.46295  0.05675  0.02965  1.0000
  H   H845      1.0  0.48545  0.03634  0.04730  1.0000
  C   C518      1.0  0.41742  0.02107  0.00427  1.0000
  H   H846      1.0  0.48458  0.22573  0.04296  1.0000
  S   S204      1.0  0.42009  0.35582  0.45628  1.0000
  H   H847      1.0  0.34226  0.22848  0.46646  1.0000
  H   H848      1.0  0.45265  0.45165  0.25258  1.0000
  H   H849      1.0  0.41344  0.48402  0.24697  1.0000
  C   C519      1.0  0.42472  0.00792  0.04506  1.0000
  C   C520      1.0  0.44565  0.05584  0.04822  1.0000
  H   H850      1.0  0.45169  0.43591  0.44457  1.0000
  H   H851      1.0  0.48768  0.43439  0.48804  1.0000
  H   H852      1.0  0.46740  0.40654  0.47332  1.0000
  H   H853      1.0  0.48011  0.47608  0.21630  1.0000
  S   S205      1.0  0.47647  0.34377  0.46985  1.0000
  H   H854      1.0  0.45903  0.46544  0.21420  1.0000
  H   H855      1.0  0.48525  0.18171  0.06977  1.0000
  C   C521      1.0  0.44729  0.45185  0.44700  1.0000
  S   S206      1.0  0.39617  0.06010  0.00973  1.0000
  S   S207      1.0  0.39251  0.40313  0.46161  1.0000
  H   H856      1.0  0.38737  0.33217  0.47327  1.0000
  C   C522      1.0  0.48195  0.06066  0.08867  1.0000
  H   H857      1.0  0.37419  0.20212  0.45595  1.0000
  H   H858      1.0  0.42304  0.42865  0.41848  1.0000
  H   H859      1.0  0.46470  0.02500  0.02700  1.0000
  C   C523      1.0  0.42614  0.41789  0.39001  1.0000
  H   H860      1.0  0.47541  0.31853  0.40781  1.0000
  H   H861      1.0  0.48904  0.35995  0.35170  1.0000
  C   C524      1.0  0.35057  0.23179  0.47726  1.0000
  H   H862      1.0  0.43111  0.41148  0.35908  1.0000
  C   C525      1.0  0.24713  0.07454  0.46842  1.0000
  C   C526      1.0  0.48801  0.33186  0.44812  1.0000
  H   H863      1.0  0.39331  0.19229  0.47238  1.0000
  S   S208      1.0  0.46027  0.02891  0.09763  1.0000
  N   N58       1.0  0.36576  0.21309  0.48497  1.0000
  C   C527      1.0  0.43384  0.99493  0.03041  1.0000
  C   C528      1.0  0.48518  0.17968  0.03005  1.0000
  S   S209      1.0  0.45908  0.47273  0.35791  1.0000
  C   C529      1.0  0.42907  0.43105  0.40175  1.0000
  H   H864      1.0  0.24426  0.41007  0.05030  1.0000
  H   H865      1.0  0.45915  0.37903  0.37547  1.0000
  C   C530      1.0  0.37375  0.30452  0.48535  1.0000
  Fe  Fe104     1.0  0.44527  0.36454  0.46672  1.0000
  H   H866      1.0  0.48465  0.45870  0.19843  1.0000
  H   H867      1.0  0.47398  0.22185  0.02249  1.0000
  C   C531      1.0  0.49325  0.39608  0.35799  1.0000
  C   C532      1.0  0.47611  0.46166  0.21422  1.0000
  H   H868      1.0  0.48098  0.18618  0.01434  1.0000
  C   C533      1.0  0.25413  0.09079  0.47291  1.0000
  H   H869      1.0  0.46682  0.07106  0.09118  1.0000
  C   C534      1.0  0.48319  0.03904  0.09115  1.0000
  H   H870      1.0  0.41317  0.48236  0.47933  1.0000
  H   H871      1.0  0.47290  0.07925  0.00229  1.0000
  C   C535      1.0  0.43334  0.42163  0.36822  1.0000
  C   C536      1.0  0.43979  0.44742  0.39188  1.0000
  Fe  Fe105     1.0  0.48243  0.48597  0.27844  1.0000
  C   C537      1.0  0.47569  0.42473  0.22798  1.0000
  H   H872      1.0  0.44279  0.45687  0.40120  1.0000
  C   C538      1.0  0.43111  0.45723  0.46364  1.0000
  H   H873      1.0  0.44932  0.44103  0.34152  1.0000
  C   C539      1.0  0.46292  0.04127  0.01740  1.0000
  H   H874      1.0  0.42761  0.00304  0.06080  1.0000
  C   C540      1.0  0.42988  0.00139  0.01015  1.0000
  C   C541      1.0  0.47837  0.21426  0.03797  1.0000
  H   H875      1.0  0.47340  0.43490  0.26471  1.0000
  C   C542      1.0  0.41180  0.02748  0.03925  1.0000
  C   C543      1.0  0.46006  0.07804  0.01638  1.0000
  Fe  Fe106     1.0  0.39835  0.37090  0.48203  1.0000
  H   H876      1.0  0.48838  0.41022  0.36526  1.0000
  H   H877      1.0  0.40489  0.03762  0.05049  1.0000
  H   H878      1.0  0.24915  0.10689  0.46523  1.0000
  H   H879      1.0  0.47056  0.46298  0.42066  1.0000
  C   C544      1.0  0.26767  0.08632  0.48706  1.0000
  C   C545      1.0  0.44380  0.43827  0.35830  1.0000
  C   C546      1.0  0.47577  0.33000  0.43493  1.0000
  H   H880      1.0  0.41536  0.48384  0.41300  1.0000
  H   H881      1.0  0.48290  0.39823  0.34669  1.0000
  H   H882      1.0  0.25607  0.39742  0.01674  1.0000
  C   C547      1.0  0.47979  0.12403  0.99215  1.0000
  H   H883      1.0  0.44801  0.04474  0.01172  1.0000
  C   C548      1.0  0.42572  0.47796  0.46665  1.0000
  H   H884      1.0  0.44604  0.06627  0.05861  1.0000
  C   C549      1.0  0.48500  0.32013  0.41784  1.0000
  H   H885      1.0  0.39021  0.21903  0.45805  1.0000
  H   H886      1.0  0.44657  0.03963  0.05792  1.0000
  C   C550      1.0  0.45809  0.46716  0.43354  1.0000
  C   C551      1.0  0.25375  0.05359  0.47795  1.0000
  S   S210      1.0  0.24590  0.03241  0.47248  1.0000
  S   S211      1.0  0.41824  0.43825  0.48179  1.0000
  C   C552      1.0  0.46986  0.44827  0.25159  1.0000
  C   C553      1.0  0.38157  0.20634  0.46700  1.0000
  H   H887      1.0  0.41441  0.48821  0.36628  1.0000
  N   N59       1.0  0.49195  0.37655  0.37407  1.0000
  H   H888      1.0  0.44503  0.08220  0.01074  1.0000
  Fe  Fe107     1.0  0.46811  0.99566  0.09305  1.0000
  H   H889      1.0  0.46473  0.39093  0.39406  1.0000
  H   H890      1.0  0.48415  0.42057  0.21260  1.0000
  H   H891      1.0  0.24844  0.46711  0.23101  1.0000
  H   H892      1.0  0.34599  0.19180  0.48642  1.0000
  C   C554      1.0  0.45253  0.48793  0.43653  1.0000
  H   H893      1.0  0.45860  0.42743  0.22841  1.0000
  H   H894      1.0  0.44434  0.28219  0.47613  1.0000
  C   C555      1.0  0.43734  0.29790  0.48022  1.0000
  S   S212      1.0  0.37390  0.35611  0.50694  1.0000
  S   S213      1.0  0.24656  0.27794  0.82193  1.0000
  H   H895      1.0  0.30282  0.19550  0.55543  1.0000
  S   S214      1.0  0.32163  0.03550  0.56424  1.0000
  H   H896      1.0  0.37498  0.29141  0.73034  1.0000
  H   H897      1.0  0.24906  0.39174  0.94407  1.0000
  S   S215      1.0  0.44624  0.01178  0.93208  1.0000
  S   S216      1.0  0.47017  0.09848  0.93840  1.0000
  S   S217      1.0  0.37475  0.10011  0.91137  1.0000
  S   S218      1.0  0.43424  0.07353  0.91608  1.0000
  Fe  Fe108     1.0  0.32509  0.06881  0.83397  1.0000
  S   S219      1.0  0.33230  0.08297  0.79954  1.0000
  S   S220      1.0  0.35342  0.05428  0.84928  1.0000
  Fe  Fe109     1.0  0.30499  0.07130  0.79629  1.0000
  S   S221      1.0  0.30563  0.06005  0.76687  1.0000
  Fe  Fe110     1.0  0.30911  0.11113  0.80849  1.0000
  S   S222      1.0  0.31926  0.14221  0.79644  1.0000
  H   H898      1.0  0.45528  0.39591  0.62303  1.0000
  N   N60       1.0  0.47535  0.40640  0.50243  1.0000
  Fe  Fe111     1.0  0.30306  0.26461  0.83134  1.0000
  S   S223      1.0  0.29478  0.25500  0.80539  1.0000
  S   S224      1.0  0.33697  0.25528  0.83363  1.0000
  Fe  Fe112     1.0  0.27521  0.28729  0.80001  1.0000
  S   S225      1.0  0.27398  0.30643  0.76754  1.0000
  Fe  Fe113     1.0  0.26732  0.24649  0.83011  1.0000
  S   S226      1.0  0.28602  0.29796  0.82373  1.0000
  S   S227      1.0  0.27640  0.25467  0.85661  1.0000
  S   S228      1.0  0.46411  0.01309  0.82144  1.0000
  H   H899      1.0  0.36484  0.22343  0.51309  1.0000
  C   C556      1.0  0.40950  0.04269  0.72528  1.0000
  H   H900      1.0  0.48651  0.23480  0.73557  1.0000
  H   H901      1.0  0.25831  0.12446  0.83663  1.0000
  H   H902      1.0  0.37692  0.08418  0.55587  1.0000
  Fe  Fe114     1.0  0.37168  0.03101  0.65131  1.0000
  C   C557      1.0  0.26008  0.31988  0.57970  1.0000
  H   H903      1.0  0.48611  0.20095  0.78852  1.0000
  C   C558      1.0  0.27385  0.19572  0.82478  1.0000
  S   S229      1.0  0.36144  0.06370  0.63442  1.0000
  Fe  Fe115     1.0  0.39483  0.06607  0.62744  1.0000
  S   S230      1.0  0.40680  0.08147  0.59458  1.0000
  Fe  Fe116     1.0  0.40672  0.17258  0.77833  1.0000
  S   S231      1.0  0.43399  0.18135  0.78498  1.0000
  S   S232      1.0  0.37740  0.16965  0.80266  1.0000
  Fe  Fe117     1.0  0.42771  0.17005  0.73317  1.0000
  C   C559      1.0  0.40006  0.01633  0.91252  1.0000
  S   S233      1.0  0.42787  0.16013  0.70361  1.0000
  Fe  Fe118     1.0  0.45356  0.15673  0.76709  1.0000
  Fe  Fe119     1.0  0.43444  0.20260  0.75329  1.0000
  S   S234      1.0  0.43878  0.23569  0.74804  1.0000
  S   S235      1.0  0.42616  0.14592  0.76313  1.0000
  S   S236      1.0  0.40550  0.19581  0.74792  1.0000
  S   S237      1.0  0.37704  0.19639  0.55107  1.0000
  S   S238      1.0  0.39719  0.22903  0.62825  1.0000
  S   S239      1.0  0.40530  0.18493  0.59654  1.0000
  S   S240      1.0  0.25494  0.07355  0.64799  1.0000
  Fe  Fe120     1.0  0.40036  0.08438  0.93007  1.0000
  H   H904      1.0  0.24461  0.16238  0.55152  1.0000
  C   C560      1.0  0.29499  0.16898  0.60611  1.0000
  S   S241      1.0  0.47498  0.47570  0.53216  1.0000
  Fe  Fe121     1.0  0.35424  0.33340  0.65459  1.0000
  S   S242      1.0  0.35200  0.36083  0.66888  1.0000
  S   S243      1.0  0.32737  0.33141  0.64144  1.0000
  Fe  Fe122     1.0  0.39850  0.31477  0.66044  1.0000
  S   S244      1.0  0.40045  0.34061  0.67511  1.0000
  S   S245      1.0  0.42274  0.28517  0.65836  1.0000
  Fe  Fe123     1.0  0.36814  0.33721  0.69270  1.0000
  S   S246      1.0  0.35880  0.33737  0.72706  1.0000
  Fe  Fe124     1.0  0.38440  0.36223  0.64979  1.0000
  S   S247      1.0  0.38979  0.39538  0.63654  1.0000
  S   S248      1.0  0.36746  0.30949  0.68026  1.0000
  S   S249      1.0  0.38535  0.33659  0.63327  1.0000
  C   C561      1.0  0.27439  0.30090  0.68493  1.0000
  C   C562      1.0  0.29414  0.29572  0.69031  1.0000
  C   C563      1.0  0.31050  0.30544  0.67743  1.0000
  C   C564      1.0  0.30720  0.31996  0.65893  1.0000
  C   C565      1.0  0.28749  0.32504  0.65367  1.0000
  C   C566      1.0  0.27112  0.31580  0.66682  1.0000
  H   H905      1.0  0.29674  0.28433  0.70448  1.0000
  H   H906      1.0  0.32570  0.30136  0.68160  1.0000
  H   H907      1.0  0.28478  0.33626  0.63943  1.0000
  H   H908      1.0  0.39954  0.43845  0.53497  1.0000
  C   C567      1.0  0.44204  0.41463  0.58197  1.0000
  C   C568      1.0  0.43682  0.39494  0.58491  1.0000
  C   C569      1.0  0.42105  0.38854  0.60184  1.0000
  C   C570      1.0  0.41004  0.40213  0.61545  1.0000
  C   C571      1.0  0.41492  0.42200  0.61211  1.0000
  C   C572      1.0  0.43099  0.42814  0.59558  1.0000
  H   H909      1.0  0.44525  0.38440  0.57437  1.0000
  H   H910      1.0  0.41725  0.37324  0.60425  1.0000
  H   H911      1.0  0.40636  0.43259  0.62257  1.0000
  H   H912      1.0  0.43471  0.44335  0.59345  1.0000
  C   C573      1.0  0.42001  0.18019  0.68299  1.0000
  C   C574      1.0  0.40846  0.19999  0.68632  1.0000
  C   C575      1.0  0.40141  0.21515  0.66951  1.0000
  C   C576      1.0  0.40609  0.21052  0.64941  1.0000
  H   H913      1.0  0.40458  0.20348  0.70186  1.0000
  H   H914      1.0  0.39230  0.23038  0.67209  1.0000
  C   C577      1.0  0.43416  0.24945  0.72320  1.0000
  C   C578      1.0  0.43224  0.23866  0.70867  1.0000
  C   C579      1.0  0.42826  0.24976  0.68894  1.0000
  C   C580      1.0  0.42620  0.27165  0.68365  1.0000
  C   C581      1.0  0.42766  0.28247  0.69835  1.0000
  C   C582      1.0  0.43185  0.27135  0.71805  1.0000
  H   H915      1.0  0.43382  0.22176  0.71258  1.0000
  H   H916      1.0  0.42667  0.24139  0.67780  1.0000
  H   H917      1.0  0.42610  0.29937  0.69436  1.0000
  H   H918      1.0  0.43318  0.27977  0.72929  1.0000
  C   C583      1.0  0.42290  0.09809  0.59474  1.0000
  C   C584      1.0  0.42373  0.11641  0.57929  1.0000
  C   C585      1.0  0.43449  0.13115  0.58079  1.0000
  C   C586      1.0  0.43377  0.09387  0.61103  1.0000
  H   H919      1.0  0.41546  0.11959  0.56658  1.0000
  H   H920      1.0  0.43451  0.14564  0.56925  1.0000
  H   H921      1.0  0.43343  0.07949  0.62274  1.0000
  Fe  Fe125     1.0  0.47480  0.45040  0.56140  1.0000
  H   H922      1.0  0.44967  0.21763  0.65449  1.0000
  H   H923      1.0  0.31959  0.15644  0.90168  1.0000
  H   H924      1.0  0.35185  0.16024  0.84757  1.0000
  H   H925      1.0  0.41553  0.11240  0.66010  1.0000
  H   H926      1.0  0.28336  0.34593  0.81680  1.0000
  H   H927      1.0  0.46249  0.29337  0.51951  1.0000
  H   H928      1.0  0.47974  0.07656  0.90169  1.0000
  Fe  Fe126     1.0  0.31530  0.07036  0.55153  1.0000
  H   H929      1.0  0.33637  0.10047  0.90026  1.0000
  C   C587      1.0  0.35191  0.30247  0.52009  1.0000
  H   H930      1.0  0.47390  0.23012  0.59708  1.0000
  H   H931      1.0  0.33379  0.15235  0.83689  1.0000
  H   H932      1.0  0.33489  0.25780  0.75259  1.0000
  C   C588      1.0  0.29724  0.31560  0.75618  1.0000
  C   C589      1.0  0.30490  0.31769  0.73454  1.0000
  C   C590      1.0  0.32360  0.32491  0.72534  1.0000
  C   C591      1.0  0.33476  0.32975  0.73789  1.0000
  C   C592      1.0  0.32701  0.32780  0.75948  1.0000
  C   C593      1.0  0.30826  0.32078  0.76860  1.0000
  H   H933      1.0  0.29656  0.31342  0.72495  1.0000
  H   H934      1.0  0.32946  0.32651  0.70861  1.0000
  H   H935      1.0  0.33563  0.33157  0.76919  1.0000
  H   H936      1.0  0.30240  0.31951  0.78520  1.0000
  H   H937      1.0  0.48748  0.14224  0.93328  1.0000
  H   H938      1.0  0.34183  0.29448  0.53314  1.0000
  H   H939      1.0  0.31208  0.01881  0.66797  1.0000
  H   H940      1.0  0.24781  0.28049  0.89638  1.0000
  C   C594      1.0  0.32818  0.00195  0.70213  1.0000
  C   C595      1.0  0.36925  0.13849  0.53136  1.0000
  H   H941      1.0  0.43092  0.25047  0.63729  1.0000
  S   S250      1.0  0.27635  0.10723  0.49208  1.0000
  C   C596      1.0  0.25076  0.22613  0.55141  1.0000
  C   C597      1.0  0.40456  0.47800  0.55553  1.0000
  C   C598      1.0  0.34831  0.23105  0.82596  1.0000
  C   C599      1.0  0.33567  0.21793  0.82469  1.0000
  C   C600      1.0  0.34474  0.19916  0.81747  1.0000
  C   C601      1.0  0.36645  0.19337  0.81146  1.0000
  C   C602      1.0  0.37916  0.20639  0.81287  1.0000
  C   C603      1.0  0.37010  0.22509  0.82034  1.0000
  H   H942      1.0  0.31888  0.22205  0.82954  1.0000
  H   H943      1.0  0.33489  0.18922  0.81629  1.0000
  H   H944      1.0  0.39596  0.20196  0.80854  1.0000
  H   H945      1.0  0.37997  0.23513  0.82140  1.0000
  C   C604      1.0  0.28487  0.04994  0.76404  1.0000
  H   H946      1.0  0.32331  0.18880  0.86097  1.0000
  C   C605      1.0  0.28151  0.03011  0.77545  1.0000
  C   C606      1.0  0.30151  0.16280  0.80702  1.0000
  C   C607      1.0  0.29032  0.20000  0.80794  1.0000
  C   C608      1.0  0.30412  0.18356  0.79907  1.0000
  H   H947      1.0  0.29236  0.21591  0.80151  1.0000
  H   H948      1.0  0.31688  0.18694  0.78609  1.0000
  H   H949      1.0  0.32793  0.99403  0.71885  1.0000
  S   S251      1.0  0.35478  0.27025  0.50062  1.0000
  N   N61       1.0  0.43863  0.29782  0.50189  1.0000
  H   H950      1.0  0.41331  0.00286  0.91000  1.0000
  C   C609      1.0  0.36924  0.08685  0.89431  1.0000
  C   C610      1.0  0.38493  0.07326  0.88329  1.0000
  C   C611      1.0  0.37997  0.06353  0.86932  1.0000
  C   C612      1.0  0.35934  0.06734  0.86626  1.0000
  C   C613      1.0  0.34373  0.08095  0.87728  1.0000
  C   C614      1.0  0.34867  0.09057  0.89127  1.0000
  H   H951      1.0  0.40088  0.07037  0.88541  1.0000
  H   H952      1.0  0.39216  0.05294  0.86093  1.0000
  H   H953      1.0  0.32771  0.08352  0.87555  1.0000
  H   H954      1.0  0.44233  0.40763  0.50754  1.0000
  H   H955      1.0  0.26564  0.31990  0.56310  1.0000
  H   H956      1.0  0.25589  0.32024  0.66296  1.0000
  C   C615      1.0  0.33043  0.02740  0.58797  1.0000
  C   C616      1.0  0.34024  0.00643  0.59386  1.0000
  H   H957      1.0  0.26694  0.22501  0.55184  1.0000
  C   C617      1.0  0.34581  0.01389  0.62535  1.0000
  C   C618      1.0  0.33489  0.03457  0.62002  1.0000
  C   C619      1.0  0.32754  0.04145  0.60117  1.0000
  H   H958      1.0  0.39590  0.05184  0.75521  1.0000
  H   H959      1.0  0.33164  0.04520  0.63060  1.0000
  H   H960      1.0  0.31923  0.05746  0.59713  1.0000
  C   C620      1.0  0.35183  0.15227  0.54006  1.0000
  C   C621      1.0  0.35459  0.16955  0.54666  1.0000
  C   C622      1.0  0.37469  0.17297  0.54512  1.0000
  H   H961      1.0  0.33620  0.15006  0.54106  1.0000
  H   H962      1.0  0.34109  0.18062  0.55263  1.0000
  C   C623      1.0  0.30942  0.08882  0.64720  1.0000
  H   H963      1.0  0.29415  0.08360  0.62488  1.0000
  Fe  Fe127     1.0  0.40439  0.19996  0.56293  1.0000
  H   H964      1.0  0.45922  0.09207  0.70112  1.0000
  H   H965      1.0  0.28194  0.14097  0.61725  1.0000
  Fe  Fe128     1.0  0.44132  0.08523  0.94181  1.0000
  C   C624      1.0  0.47336  0.10729  0.95998  1.0000
  H   H966      1.0  0.47475  0.22573  0.77369  1.0000
  H   H967      1.0  0.36749  0.29278  0.75759  1.0000
  H   H968      1.0  0.28320  0.14257  0.83000  1.0000
  N   N62       1.0  0.31044  0.01997  0.70008  1.0000
  H   H969      1.0  0.42671  0.45705  0.51211  1.0000
  C   C625      1.0  0.41777  0.99439  0.96475  1.0000
  H   H970      1.0  0.25999  0.12628  0.52896  1.0000
  C   C626      1.0  0.48359  0.28764  0.56428  1.0000
  S   S252      1.0  0.35727  0.00570  0.64762  1.0000
  H   H971      1.0  0.27250  0.03302  0.49960  1.0000
  C   C627      1.0  0.27406  0.06540  0.49680  1.0000
  H   H972      1.0  0.44071  0.12028  0.96980  1.0000
  H   H973      1.0  0.40221  0.02897  0.89831  1.0000
  C   C628      1.0  0.44507  0.02273  0.72198  1.0000
  N   N63       1.0  0.24853  0.42287  0.92516  1.0000
  H   H974      1.0  0.40298  0.13100  0.52360  1.0000
  H   H975      1.0  0.38790  0.20464  0.50540  1.0000
  H   H976      1.0  0.45888  0.01603  0.74919  1.0000
  H   H977      1.0  0.24667  0.11553  0.62259  1.0000
  H   H978      1.0  0.37328  0.48311  0.53542  1.0000
  H   H979      1.0  0.41297  0.99275  0.78035  1.0000
  S   S253      1.0  0.29982  0.28853  0.53103  1.0000
  S   S254      1.0  0.33193  0.25552  0.56060  1.0000
  Fe  Fe129     1.0  0.31038  0.23309  0.56665  1.0000
  H   H980      1.0  0.32578  0.03717  0.67121  1.0000
  H   H981      1.0  0.40424  0.07506  0.55612  1.0000
  H   H982      1.0  0.34822  0.13358  0.85519  1.0000
  S   S255      1.0  0.43897  0.18992  0.55110  1.0000
  H   H983      1.0  0.48396  0.04890  0.93317  1.0000
  H   H984      1.0  0.41088  0.43643  0.55712  1.0000
  S   S256      1.0  0.30392  0.12912  0.52466  1.0000
  Fe  Fe130     1.0  0.35935  0.07264  0.66469  1.0000
  H   H985      1.0  0.26612  0.00454  0.77857  1.0000
  S   S257      1.0  0.40570  0.03236  0.64127  1.0000
  S   S258      1.0  0.32401  0.09489  0.56320  1.0000
  C   C629      1.0  0.45574  0.40041  0.51552  1.0000
  Fe  Fe131     1.0  0.32803  0.26260  0.52718  1.0000
  C   C630      1.0  0.25295  0.39977  0.92735  1.0000
  H   H986      1.0  0.39215  0.27695  0.74793  1.0000
  C   C631      1.0  0.26720  0.04915  0.49219  1.0000
  H   H987      1.0  0.44401  0.11835  0.69868  1.0000
  H   H988      1.0  0.34923  0.32783  0.53527  1.0000
  C   C632      1.0  0.44531  0.10820  0.61197  1.0000
  H   H989      1.0  0.27575  0.02713  0.64532  1.0000
  N   N64       1.0  0.33342  0.25678  0.62613  1.0000
  C   C633      1.0  0.35007  0.26180  0.60770  1.0000
  C   C634      1.0  0.34273  0.24051  0.64244  1.0000
  C   C635      1.0  0.31786  0.24882  0.61973  1.0000
  C   C636      1.0  0.32308  0.27596  0.63465  1.0000
  H   H990      1.0  0.34359  0.27415  0.59512  1.0000
  C   C637      1.0  0.42741  0.03393  0.75467  1.0000
  H   H991      1.0  0.36228  0.26751  0.61203  1.0000
  H   H992      1.0  0.35438  0.24611  0.64779  1.0000
  H   H993      1.0  0.33061  0.23608  0.65647  1.0000
  H   H994      1.0  0.35114  0.22599  0.63638  1.0000
  H   H995      1.0  0.32520  0.23447  0.61298  1.0000
  H   H996      1.0  0.31043  0.26075  0.60752  1.0000
  H   H997      1.0  0.30510  0.24476  0.63321  1.0000
  H   H998      1.0  0.31036  0.27286  0.64856  1.0000
  H   H999      1.0  0.31592  0.28861  0.62277  1.0000
  H   H1000     1.0  0.33441  0.28241  0.63956  1.0000
  H   H1001     1.0  0.25663  0.38115  0.67945  1.0000
  C   C638      1.0  0.42735  0.03238  0.71323  1.0000
  S   S259      1.0  0.25668  0.21581  0.83674  1.0000
  C   C639      1.0  0.27409  0.31241  0.59345  1.0000
  H   H1002     1.0  0.25773  0.42129  0.95405  1.0000
  C   C640      1.0  0.33195  0.15277  0.88787  1.0000
  H   H1003     1.0  0.39572  0.05009  0.71864  1.0000
  C   C641      1.0  0.25796  0.02986  0.75316  1.0000
  H   H1004     1.0  0.24522  0.38435  0.78734  1.0000
  H   H1005     1.0  0.29734  0.01652  0.62651  1.0000
  C   C642      1.0  0.27465  0.08085  0.65585  1.0000
  H   H1006     1.0  0.41297  0.32416  0.50474  1.0000
  Fe  Fe132     1.0  0.40118  0.04433  0.67089  1.0000
  H   H1007     1.0  0.38904  0.47312  0.51279  1.0000
  C   C643      1.0  0.36898  0.33229  0.50452  1.0000
  H   H1008     1.0  0.47193  0.04173  0.90401  1.0000
  N   N65       1.0  0.46384  0.23831  0.62759  1.0000
  H   H1009     1.0  0.24464  0.18362  0.52908  1.0000
  H   H1010     1.0  0.47996  0.15629  0.90904  1.0000
  H   H1011     1.0  0.26357  0.33714  0.79477  1.0000
  Fe  Fe133     1.0  0.44166  0.22045  0.55775  1.0000
  H   H1012     1.0  0.35815  0.24768  0.60081  1.0000
  H   H1013     1.0  0.43311  0.26632  0.51349  1.0000
  H   H1014     1.0  0.36283  0.04174  0.90764  1.0000
  H   H1015     1.0  0.37589  0.05222  0.52991  1.0000
  H   H1016     1.0  0.26284  0.15380  0.49711  1.0000
  H   H1017     1.0  0.41320  0.03958  0.53354  1.0000
  C   C644      1.0  0.28641  0.15291  0.60375  1.0000
  C   C645      1.0  0.27117  0.17495  0.83258  1.0000
  S   S260      1.0  0.39217  0.07853  0.65622  1.0000
  N   N66       1.0  0.26704  0.01984  0.61967  1.0000
  H   H1018     1.0  0.27060  0.36441  0.83365  1.0000
  H   H1019     1.0  0.48038  0.41589  0.59761  1.0000
  N   N67       1.0  0.48873  0.38559  0.61714  1.0000
  S   S261      1.0  0.25365  0.28922  0.70104  1.0000
  H   H1020     1.0  0.29835  0.04918  0.71053  1.0000
  H   H1021     1.0  0.34341  0.16311  0.88503  1.0000
  H   H1022     1.0  0.40997  0.28663  0.51602  1.0000
  H   H1023     1.0  0.38896  0.47987  0.56625  1.0000
  H   H1024     1.0  0.47651  0.20746  0.64376  1.0000
  H   H1025     1.0  0.47017  0.43528  0.51298  1.0000
  N   N68       1.0  0.40481  0.46763  0.53843  1.0000
  H   H1026     1.0  0.47034  0.30262  0.49194  1.0000
  C   C646      1.0  0.35612  0.32149  0.52130  1.0000
  C   C647      1.0  0.49210  0.26267  0.54118  1.0000
  C   C648      1.0  0.28396  0.15205  0.58392  1.0000
  H   H1027     1.0  0.40955  0.01022  0.96542  1.0000
  C   C649      1.0  0.47318  0.42947  0.49816  1.0000
  S   S262      1.0  0.28133  0.25707  0.57385  1.0000
  H   H1028     1.0  0.34050  0.13632  0.89229  1.0000
  H   H1029     1.0  0.30059  0.14404  0.85969  1.0000
  Fe  Fe134     1.0  0.29270  0.11391  0.55794  1.0000
  H   H1030     1.0  0.39487  0.07746  0.53276  1.0000
  N   N69       1.0  0.38469  0.10340  0.80349  1.0000
  C   C650      1.0  0.38041  0.11419  0.78246  1.0000
  C   C651      1.0  0.38868  0.08036  0.80532  1.0000
  C   C652      1.0  0.36643  0.10996  0.81963  1.0000
  C   C653      1.0  0.40328  0.10925  0.80661  1.0000
  H   H1031     1.0  0.37746  0.13163  0.78061  1.0000
  H   H1032     1.0  0.36617  0.11044  0.77983  1.0000
  H   H1033     1.0  0.39374  0.10960  0.76977  1.0000
  H   H1034     1.0  0.40244  0.07487  0.79342  1.0000
  H   H1035     1.0  0.39170  0.07175  0.82110  1.0000
  H   H1036     1.0  0.37508  0.07521  0.80309  1.0000
  H   H1037     1.0  0.36254  0.12738  0.81779  1.0000
  H   H1038     1.0  0.36935  0.10291  0.83573  1.0000
  H   H1039     1.0  0.35226  0.10509  0.81835  1.0000
  H   H1040     1.0  0.40692  0.10133  0.82233  1.0000
  H   H1041     1.0  0.40074  0.12651  0.80557  1.0000
  H   H1042     1.0  0.41735  0.10476  0.79457  1.0000
  C   C654      1.0  0.44519  0.12708  0.59720  1.0000
  C   C655      1.0  0.41811  0.19094  0.64613  1.0000
  Fe  Fe135     1.0  0.43125  0.04366  0.93996  1.0000
  C   C656      1.0  0.27421  0.05996  0.74758  1.0000
  C   C657      1.0  0.25359  0.36526  0.68762  1.0000
  C   C658      1.0  0.42505  0.17587  0.66281  1.0000
  S   S263      1.0  0.42392  0.37732  0.49398  1.0000
  Fe  Fe136     1.0  0.41089  0.21555  0.59922  1.0000
  C   C659      1.0  0.46354  0.28283  0.57146  1.0000
  H   H1043     1.0  0.32320  0.09169  0.63556  1.0000
  S   S264      1.0  0.30060  0.30285  0.58429  1.0000
  H   H1044     1.0  0.25012  0.19429  0.56827  1.0000
  N   N70       1.0  0.37961  0.01020  0.91637  1.0000
  H   H1045     1.0  0.44396  0.26702  0.61536  1.0000
  Fe  Fe137     1.0  0.44871  0.00816  0.79749  1.0000
  C   C660      1.0  0.26123  0.42866  0.93705  1.0000
  C   C661      1.0  0.36256  0.02817  0.92106  1.0000
  H   H1046     1.0  0.28919  0.00452  0.72528  1.0000
  C   C662      1.0  0.38941  0.14163  0.53023  1.0000
  H   H1047     1.0  0.31020  0.02834  0.72913  1.0000
  C   C663      1.0  0.27562  0.36200  0.71204  1.0000
  H   H1048     1.0  0.43840  0.33080  0.49600  1.0000
  C   C664      1.0  0.49357  0.10486  0.96360  1.0000
  H   H1049     1.0  0.36393  0.03368  0.93489  1.0000
  C   C665      1.0  0.48179  0.20892  0.77309  1.0000
  H   H1050     1.0  0.28454  0.06169  0.50766  1.0000
  C   C666      1.0  0.37758  0.00395  0.89747  1.0000
  H   H1051     1.0  0.34692  0.02400  0.92431  1.0000
  C   C667      1.0  0.46081  0.29207  0.50386  1.0000
  C   C668      1.0  0.24890  0.34337  0.80521  1.0000
  H   H1052     1.0  0.28788  0.08869  0.69871  1.0000
  H   H1053     1.0  0.29704  0.16946  0.62144  1.0000
  N   N71       1.0  0.32297  0.15574  0.86911  1.0000
  S   S265      1.0  0.28262  0.08793  0.54998  1.0000
  S   S266      1.0  0.25087  0.26684  0.53020  1.0000
  H   H1054     1.0  0.47718  0.38213  0.59138  1.0000
  Fe  Fe138     1.0  0.33486  0.10832  0.52920  1.0000
  H   H1055     1.0  0.27683  0.02572  0.70746  1.0000
  H   H1056     1.0  0.42603  0.07932  0.71174  1.0000
  H   H1057     1.0  0.34317  0.20019  0.51057  1.0000
  C   C669      1.0  0.48869  0.37360  0.60144  1.0000
  H   H1058     1.0  0.45180  0.40553  0.53081  1.0000
  H   H1059     1.0  0.45702  0.38305  0.51900  1.0000
  H   H1060     1.0  0.27235  0.37238  0.78632  1.0000
  C   C670      1.0  0.47111  0.24926  0.64013  1.0000
  C   C671      1.0  0.33994  0.15022  0.85142  1.0000
  N   N72       1.0  0.32732  0.35422  0.57840  1.0000
  C   C672      1.0  0.31059  0.35461  0.56756  1.0000
  C   C673      1.0  0.31863  0.36666  0.59505  1.0000
  C   C674      1.0  0.34439  0.36331  0.56318  1.0000
  C   C675      1.0  0.33564  0.33226  0.58795  1.0000
  H   H1061     1.0  0.31636  0.34472  0.55541  1.0000
  H   H1062     1.0  0.30432  0.37083  0.55963  1.0000
  H   H1063     1.0  0.29726  0.34834  0.57877  1.0000
  H   H1064     1.0  0.33080  0.36651  0.60372  1.0000
  H   H1065     1.0  0.31218  0.38332  0.58849  1.0000
  H   H1066     1.0  0.30582  0.36009  0.60690  1.0000
  H   H1067     1.0  0.33864  0.37975  0.55537  1.0000
  H   H1068     1.0  0.35152  0.35418  0.55055  1.0000
  H   H1069     1.0  0.35715  0.36342  0.57093  1.0000
  H   H1070     1.0  0.34853  0.33129  0.59600  1.0000
  H   H1071     1.0  0.34169  0.32219  0.57598  1.0000
  H   H1072     1.0  0.32324  0.32521  0.59997  1.0000
  H   H1073     1.0  0.37842  0.01712  0.88352  1.0000
  H   H1074     1.0  0.41076  0.10558  0.70777  1.0000
  C   C676      1.0  0.42953  0.31896  0.50662  1.0000
  H   H1075     1.0  0.46008  0.25038  0.65532  1.0000
  C   C677      1.0  0.42688  0.28243  0.51682  1.0000
  C   C678      1.0  0.40965  0.04372  0.74592  1.0000
  C   C679      1.0  0.26817  0.35206  0.82664  1.0000
  H   H1076     1.0  0.25130  0.45022  0.90057  1.0000
  H   H1077     1.0  0.37771  0.03001  0.58607  1.0000
  H   H1078     1.0  0.43035  0.48060  0.51746  1.0000
  H   H1079     1.0  0.27926  0.37789  0.70503  1.0000
  C   C680      1.0  0.49233  0.15321  0.91837  1.0000
  H   H1080     1.0  0.45616  0.20835  0.63047  1.0000
  H   H1081     1.0  0.26977  0.39358  0.92137  1.0000
  N   N73       1.0  0.25452  0.36102  0.71009  1.0000
  H   H1082     1.0  0.40186  0.02203  0.92600  1.0000
  H   H1083     1.0  0.43804  0.24346  0.61211  1.0000
  N   N74       1.0  0.43611  0.09890  0.68203  1.0000
  C   C681      1.0  0.41943  0.09234  0.69976  1.0000
  C   C682      1.0  0.44663  0.08109  0.67142  1.0000
  C   C683      1.0  0.45156  0.10533  0.69007  1.0000
  C   C684      1.0  0.39112  0.07281  0.55020  1.0000
  C   C685      1.0  0.39215  0.15868  0.53730  1.0000
  H   H1084     1.0  0.25954  0.39086  0.80320  1.0000
  H   H1085     1.0  0.47219  0.26571  0.63179  1.0000
  H   H1086     1.0  0.38367  0.44788  0.55791  1.0000
  H   H1087     1.0  0.46922  0.20188  0.77131  1.0000
  C   C686      1.0  0.46151  0.21700  0.63961  1.0000
  C   C687      1.0  0.31156  0.03019  0.67771  1.0000
  H   H1088     1.0  0.40955  0.99914  0.75370  1.0000
  H   H1089     1.0  0.43559  0.07614  0.66463  1.0000
  C   C688      1.0  0.24883  0.16622  0.53405  1.0000
  H   H1090     1.0  0.42025  0.03793  0.55810  1.0000
  Fe  Fe139     1.0  0.25816  0.28718  0.84617  1.0000
  N   N75       1.0  0.36005  0.13863  0.60915  1.0000
  C   C689      1.0  0.36394  0.12766  0.59159  1.0000
  C   C690      1.0  0.34273  0.13146  0.62567  1.0000
  C   C691      1.0  0.35437  0.16152  0.60137  1.0000
  C   C692      1.0  0.37916  0.13388  0.61790  1.0000
  H   H1091     1.0  0.36779  0.11032  0.59693  1.0000
  H   H1092     1.0  0.37722  0.13233  0.57903  1.0000
  H   H1093     1.0  0.34997  0.13136  0.58428  1.0000
  H   H1094     1.0  0.34687  0.11436  0.63232  1.0000
  H   H1095     1.0  0.33885  0.13977  0.63899  1.0000
  H   H1096     1.0  0.32823  0.13425  0.61943  1.0000
  H   H1097     1.0  0.34963  0.17040  0.61430  1.0000
  H   H1098     1.0  0.34117  0.16547  0.59305  1.0000
  H   H1099     1.0  0.36761  0.16769  0.58999  1.0000
  H   H1100     1.0  0.38450  0.11665  0.62295  1.0000
  H   H1101     1.0  0.37651  0.14132  0.63164  1.0000
  H   H1102     1.0  0.39228  0.13981  0.60602  1.0000
  N   N76       1.0  0.36529  0.26374  0.75088  1.0000
  C   C693      1.0  0.37598  0.25032  0.73538  1.0000
  C   C694      1.0  0.36679  0.25148  0.77226  1.0000
  C   C695      1.0  0.34303  0.27116  0.74940  1.0000
  C   C696      1.0  0.37542  0.28199  0.74652  1.0000
  H   H1103     1.0  0.37577  0.25926  0.71899  1.0000
  H   H1104     1.0  0.36851  0.23660  0.73789  1.0000
  H   H1105     1.0  0.39264  0.24405  0.73657  1.0000
  H   H1106     1.0  0.35888  0.26115  0.78439  1.0000
  H   H1107     1.0  0.35930  0.23755  0.77614  1.0000
  H   H1108     1.0  0.38340  0.24558  0.77398  1.0000
  H   H1109     1.0  0.34131  0.28063  0.73351  1.0000
  H   H1110     1.0  0.33452  0.28120  0.76102  1.0000
  S   S267      1.0  0.40689  0.23185  0.56655  1.0000
  H   H1111     1.0  0.42207  0.18721  0.63073  1.0000
  C   C697      1.0  0.28503  0.15856  0.82373  1.0000
  H   H1112     1.0  0.45402  0.10490  0.62429  1.0000
  C   C698      1.0  0.26813  0.02014  0.77002  1.0000
  H   H1113     1.0  0.27044  0.42715  0.89571  1.0000
  C   C699      1.0  0.42681  0.11683  0.66699  1.0000
  S   S268      1.0  0.27215  0.13251  0.58141  1.0000
  H   H1114     1.0  0.28349  0.04326  0.62031  1.0000
  H   H1115     1.0  0.29083  0.01033  0.59385  1.0000
  H   H1116     1.0  0.28844  0.16664  0.55107  1.0000
  H   H1117     1.0  0.25314  0.05766  0.72909  1.0000
  H   H1118     1.0  0.41825  0.13028  0.67476  1.0000
  C   C700      1.0  0.30763  0.14203  0.87355  1.0000
  S   S269      1.0  0.28246  0.10103  0.80204  1.0000
  H   H1119     1.0  0.26448  0.01549  0.58980  1.0000
  H   H1120     1.0  0.35641  0.05895  0.55207  1.0000
  S   S270      1.0  0.46254  0.42191  0.56135  1.0000
  H   H1121     1.0  0.46453  0.37208  0.64016  1.0000
  S   S271      1.0  0.32933  0.09388  0.67625  1.0000
  H   H1122     1.0  0.36580  0.18134  0.50192  1.0000
  H   H1123     1.0  0.29461  0.14562  0.88688  1.0000
  S   S272      1.0  0.39695  0.05371  0.95227  1.0000
  S   S273      1.0  0.40762  0.09873  0.95396  1.0000
  S   S274      1.0  0.44148  0.05431  0.96405  1.0000
  H   H1124     1.0  0.32607  0.04146  0.70639  1.0000
  S   S275      1.0  0.29998  0.05395  0.82993  1.0000
  S   S276      1.0  0.30288  0.09760  0.84297  1.0000
  H   H1125     1.0  0.31505  0.12515  0.87748  1.0000
  Fe  Fe140     1.0  0.30266  0.27991  0.56464  1.0000
  C   C701      1.0  0.30793  0.08992  0.66808  1.0000
  C   C702      1.0  0.27280  0.08253  0.67663  1.0000
  C   C703      1.0  0.28931  0.08740  0.68264  1.0000
  H   H1126     1.0  0.25872  0.08007  0.68809  1.0000
  H   H1127     1.0  0.27713  0.35812  0.72879  1.0000
  C   C704      1.0  0.26074  0.05001  0.74218  1.0000
  H   H1128     1.0  0.27677  0.03687  0.58835  1.0000
  Fe  Fe141     1.0  0.43999  0.17728  0.58523  1.0000
  H   H1129     1.0  0.26610  0.16150  0.52969  1.0000
  S   S277      1.0  0.36808  0.03957  0.68238  1.0000
  H   H1130     1.0  0.30640  0.18100  0.84881  1.0000
  C   C705      1.0  0.37630  0.21835  0.49925  1.0000
  S   S278      1.0  0.45703  0.14621  0.60019  1.0000
  H   H1131     1.0  0.40572  0.01970  0.55595  1.0000
  H   H1132     1.0  0.36873  0.03202  0.55212  1.0000
  H   H1133     1.0  0.44246  0.26403  0.56963  1.0000
  C   C706      1.0  0.36061  0.29394  0.50212  1.0000
  C   C707      1.0  0.40765  0.03635  0.55089  1.0000
  C   C708      1.0  0.46813  0.38771  0.63164  1.0000
  H   H1134     1.0  0.27709  0.07508  0.73837  1.0000
  C   C709      1.0  0.29279  0.08446  0.64107  1.0000
  C   C710      1.0  0.28158  0.02695  0.62833  1.0000
  S   S279      1.0  0.32862  0.08209  0.51759  1.0000
  C   C711      1.0  0.37157  0.04838  0.54737  1.0000
  C   C712      1.0  0.31135  0.03532  0.71207  1.0000
  H   H1135     1.0  0.47170  0.16416  0.80089  1.0000
  H   H1136     1.0  0.43443  0.16085  0.65998  1.0000
  H   H1137     1.0  0.46403  0.11105  0.67707  1.0000
  C   C713      1.0  0.38109  0.04613  0.58031  1.0000
  Fe  Fe142     1.0  0.27846  0.08438  0.83583  1.0000
  Fe  Fe143     1.0  0.29619  0.10146  0.51669  1.0000
  S   S280      1.0  0.45670  0.17887  0.73588  1.0000
  H   H1138     1.0  0.36663  0.05737  0.58569  1.0000
  C   C714      1.0  0.48863  0.03645  0.89686  1.0000
  S   S281      1.0  0.44572  0.20661  0.59071  1.0000
  Fe  Fe144     1.0  0.40735  0.06679  0.97472  1.0000
  N   N77       1.0  0.38786  0.05092  0.55720  1.0000
  C   C715      1.0  0.27508  0.02065  0.59693  1.0000
  H   H1139     1.0  0.39332  0.04714  0.58828  1.0000
  H   H1140     1.0  0.43900  0.12273  0.65373  1.0000
  H   H1141     1.0  0.45234  0.29089  0.58295  1.0000
  C   C716      1.0  0.49283  0.40672  0.60636  1.0000
  H   H1142     1.0  0.24696  0.05043  0.61539  1.0000
  C   C717      1.0  0.44505  0.02334  0.74269  1.0000
  H   H1143     1.0  0.29000  0.02203  0.78786  1.0000
  S   S282      1.0  0.46119  0.47242  0.58378  1.0000
  C   C718      1.0  0.38938  0.48064  0.52571  1.0000
  C   C719      1.0  0.25745  0.37776  0.79702  1.0000
  C   C720      1.0  0.29022  0.16724  0.56644  1.0000
  H   H1144     1.0  0.26547  0.35363  0.67941  1.0000
  S   S283      1.0  0.36630  0.11809  0.52064  1.0000
  C   C721      1.0  0.34798  0.99969  0.61249  1.0000
  H   H1145     1.0  0.34343  0.00700  0.69562  1.0000
  C   C722      1.0  0.45958  0.12658  0.98842  1.0000
  C   C723      1.0  0.42591  0.46513  0.52494  1.0000
  Fe  Fe145     1.0  0.28155  0.26282  0.53957  1.0000
  S   S284      1.0  0.42870  0.03173  0.68697  1.0000
  C   C724      1.0  0.30075  0.18452  0.58875  1.0000
  S   S285      1.0  0.42731  0.03500  0.78055  1.0000
  H   H1146     1.0  0.29780  0.04307  0.67549  1.0000
  H   H1147     1.0  0.27758  0.30600  0.62551  1.0000
  C   C725      1.0  0.25378  0.43282  0.90272  1.0000
  S   S286      1.0  0.30949  0.23728  0.53254  1.0000
  H   H1148     1.0  0.26415  0.33891  0.83982  1.0000
  C   C726      1.0  0.48683  0.15447  0.80254  1.0000
  H   H1149     1.0  0.46793  0.27567  0.50178  1.0000
  H   H1150     1.0  0.49183  0.17134  0.82378  1.0000
  H   H1151     1.0  0.25846  0.17146  0.84556  1.0000
  H   H1152     1.0  0.25804  0.44600  0.93588  1.0000
  H   H1153     1.0  0.45895  0.01484  0.71264  1.0000
  H   H1154     1.0  0.45307  0.06701  0.68256  1.0000
  C   C727      1.0  0.26689  0.31224  0.61483  1.0000
  H   H1155     1.0  0.34225  0.99544  0.58380  1.0000
  C   C728      1.0  0.44338  0.25032  0.62281  1.0000
  H   H1156     1.0  0.24999  0.33636  0.73745  1.0000
  H   H1157     1.0  0.48272  0.25242  0.59927  1.0000
  C   C729      1.0  0.45796  0.26760  0.56397  1.0000
  C   C730      1.0  0.29824  0.18369  0.56892  1.0000
  S   S287      1.0  0.31219  0.20400  0.59210  1.0000
  H   H1158     1.0  0.27827  0.42346  0.93114  1.0000
  S   S288      1.0  0.46502  0.24000  0.53738  1.0000
  H   H1159     1.0  0.46745  0.39693  0.64353  1.0000
  N   N78       1.0  0.25153  0.36031  0.81422  1.0000
  C   C731      1.0  0.47224  0.25749  0.54875  1.0000
  H   H1160     1.0  0.45979  0.08519  0.65841  1.0000
  H   H1161     1.0  0.29886  0.18244  0.87606  1.0000
  H   H1162     1.0  0.40773  0.16117  0.53599  1.0000
  C   C732      1.0  0.45634  0.11806  0.97258  1.0000
  C   C733      1.0  0.31242  0.17795  0.86352  1.0000
  C   C734      1.0  0.26531  0.99804  0.63045  1.0000
  C   C735      1.0  0.35467  0.19586  0.49643  1.0000
  H   H1163     1.0  0.28795  0.35063  0.70379  1.0000
  C   C736      1.0  0.39947  0.44668  0.54751  1.0000
  H   H1164     1.0  0.26229  0.32734  0.71359  1.0000
  H   H1165     1.0  0.41631  0.46879  0.56519  1.0000
  C   C737      1.0  0.29056  0.01245  0.70843  1.0000
  H   H1166     1.0  0.43793  0.45563  0.53414  1.0000
  C   C738      1.0  0.25018  0.33985  0.72030  1.0000
  H   H1167     1.0  0.40787  0.08665  0.69439  1.0000
  S   S289      1.0  0.48180  0.13258  0.77501  1.0000
  C   C739      1.0  0.47941  0.23674  0.60785  1.0000
  H   H1168     1.0  0.46009  0.43755  0.48990  1.0000
  H   H1169     1.0  0.42807  0.28149  0.53328  1.0000
  H   H1170     1.0  0.48674  0.24101  0.64356  1.0000
  H   H1171     1.0  0.48480  0.35789  0.60898  1.0000
  H   H1172     1.0  0.48987  0.03918  0.87959  1.0000
  H   H1173     1.0  0.38463  0.23150  0.49131  1.0000
  H   H1174     1.0  0.25958  0.99684  0.64770  1.0000
  S   S290      1.0  0.49064  0.30537  0.57557  1.0000
  C   C740      1.0  0.24620  0.03376  0.62297  1.0000
  H   H1175     1.0  0.48946  0.40097  0.52925  1.0000
  H   H1176     1.0  0.48121  0.21103  0.73269  1.0000
  H   H1177     1.0  0.48737  0.06706  0.79385  1.0000
  H   H1178     1.0  0.49255  0.01915  0.90280  1.0000
  H   H1179     1.0  0.37982  0.99659  0.94894  1.0000
  C   C741      1.0  0.24569  0.31949  0.62253  1.0000
  H   H1180     1.0  0.24940  0.08881  0.78423  1.0000
  H   H1181     1.0  0.24817  0.23741  0.71183  1.0000
  S   S291      1.0  0.24514  0.08560  0.85325  1.0000
  H   H1182     1.0  0.28907  0.00105  0.69965  1.0000
  H   H1183     1.0  0.36244  0.99904  0.89976  1.0000
  C   C742      1.0  0.49257  0.39641  0.51377  1.0000
  H   H1184     1.0  0.33853  0.23734  0.49049  1.0000
  C   C743      1.0  0.37821  0.99238  0.93450  1.0000
  H   H1185     1.0  0.49245  0.16823  0.92248  1.0000
  H   H1186     1.0  0.41489  0.02628  0.98845  1.0000
  H   H1187     1.0  0.42985  0.31933  0.52301  1.0000
  C   C744      1.0  0.24561  0.15959  0.50141  1.0000
  C   C745      1.0  0.49345  0.21787  0.73552  1.0000
  H   H1188     1.0  0.24432  0.32995  0.81768  1.0000
  H   H1189     1.0  0.49361  0.41603  0.61763  1.0000
  H   H1190     1.0  0.25393  0.99238  0.62477  1.0000
  H   H1191     1.0  0.36345  0.58026  0.33189  1.0000
  C   C746      1.0  0.28059  0.71334  0.28168  1.0000
  S   S292      1.0  0.38668  0.59225  0.15011  1.0000
  Fe  Fe146     1.0  0.41191  0.57733  0.16874  1.0000
  S   S293      1.0  0.43652  0.59211  0.17325  1.0000
  S   S294      1.0  0.45162  0.56972  0.40445  1.0000
  S   S295      1.0  0.28380  0.61412  0.29120  1.0000
  Fe  Fe147     1.0  0.44656  0.53892  0.42531  1.0000
  H   H1192     1.0  0.24716  0.88166  0.32575  1.0000
  C   C747      1.0  0.27457  0.69556  0.27958  1.0000
  S   S296      1.0  0.46560  0.60278  0.43694  1.0000
  H   H1193     1.0  0.29095  0.83992  0.10324  1.0000
  C   C748      1.0  0.27920  0.58628  0.17996  1.0000
  H   H1194     1.0  0.42647  0.79748  0.02098  1.0000
  H   H1195     1.0  0.38295  0.52557  0.41222  1.0000
  H   H1196     1.0  0.38157  0.92647  0.07947  1.0000
  Fe  Fe148     1.0  0.27656  0.62351  0.04202  1.0000
  H   H1197     1.0  0.28270  0.66194  0.28181  1.0000
  H   H1198     1.0  0.48925  0.50561  0.34884  1.0000
  H   H1199     1.0  0.37499  0.93730  0.04279  1.0000
  Fe  Fe149     1.0  0.30451  0.77948  0.30039  1.0000
  S   S297      1.0  0.29472  0.78225  0.27022  1.0000
  S   S298      1.0  0.33941  0.77512  0.29626  1.0000
  Fe  Fe150     1.0  0.27129  0.81007  0.27947  1.0000
  S   S299      1.0  0.26911  0.83888  0.25415  1.0000
  Fe  Fe151     1.0  0.27120  0.76326  0.28943  1.0000
  S   S300      1.0  0.28250  0.80884  0.30849  1.0000
  S   S301      1.0  0.28268  0.75784  0.31924  1.0000
  Fe  Fe152     1.0  0.30307  0.58163  0.29162  1.0000
  S   S302      1.0  0.30590  0.56834  0.26315  1.0000
  Fe  Fe153     1.0  0.30945  0.62046  0.30291  1.0000
  S   S303      1.0  0.32421  0.64898  0.29155  1.0000
  Fe  Fe154     1.0  0.31453  0.57875  0.33364  1.0000
  S   S304      1.0  0.33090  0.55951  0.35995  1.0000
  S   S305      1.0  0.33032  0.58901  0.30021  1.0000
  Fe  Fe155     1.0  0.43145  0.69876  0.24017  1.0000
  S   S306      1.0  0.39906  0.69300  0.24551  1.0000
  S   S307      1.0  0.43679  0.73157  0.22636  1.0000
  Fe  Fe156     1.0  0.28674  0.74102  0.06678  1.0000
  S   S308      1.0  0.41822  0.64424  0.26653  1.0000
  Fe  Fe157     1.0  0.41505  0.66303  0.23451  1.0000
  S   S309      1.0  0.40480  0.64890  0.21277  1.0000
  Fe  Fe158     1.0  0.40528  0.67493  0.27692  1.0000
  S   S310      1.0  0.37948  0.67871  0.30479  1.0000
  S   S311      1.0  0.40496  0.59128  0.37701  1.0000
  S   S312      1.0  0.43650  0.68309  0.27277  1.0000
  S   S313      1.0  0.39593  0.68312  0.09563  1.0000
  S   S314      1.0  0.36502  0.70074  0.05155  1.0000
  S   S315      1.0  0.37624  0.71904  0.13747  1.0000
  Fe  Fe159     1.0  0.28674  0.78275  0.07532  1.0000
  S   S316      1.0  0.31295  0.55704  0.08004  1.0000
  Fe  Fe160     1.0  0.39154  0.70399  0.06475  1.0000
  H   H1200     1.0  0.43753  0.63760  0.05133  1.0000
  H   H1201     1.0  0.42503  0.59201  0.21939  1.0000
  H   H1202     1.0  0.32880  0.49805  0.25624  1.0000
  H   H1203     1.0  0.40964  0.53845  0.38196  1.0000
  H   H1204     1.0  0.37595  0.80035  0.24879  1.0000
  S   S317      1.0  0.45532  0.92451  0.13553  1.0000
  H   H1205     1.0  0.32736  0.84080  0.08524  1.0000
  Fe  Fe161     1.0  0.34484  0.83845  0.14387  1.0000
  S   S318      1.0  0.35394  0.86380  0.15378  1.0000
  S   S319      1.0  0.31366  0.84494  0.13483  1.0000
  Fe  Fe162     1.0  0.38721  0.80918  0.14545  1.0000
  S   S320      1.0  0.40011  0.83211  0.15519  1.0000
  S   S321      1.0  0.40402  0.77643  0.14272  1.0000
  Fe  Fe163     1.0  0.36866  0.83721  0.17674  1.0000
  S   S322      1.0  0.36447  0.83554  0.21124  1.0000
  Fe  Fe164     1.0  0.38413  0.85618  0.13118  1.0000
  S   S323      1.0  0.39806  0.88083  0.10597  1.0000
  S   S324      1.0  0.35702  0.81241  0.16869  1.0000
  S   S325      1.0  0.37393  0.83262  0.11950  1.0000
  C   C749      1.0  0.26138  0.82234  0.18703  1.0000
  C   C750      1.0  0.25480  0.81567  0.36531  1.0000
  C   C751      1.0  0.27300  0.84569  0.15445  1.0000
  C   C752      1.0  0.29385  0.83665  0.15556  1.0000
  C   C753      1.0  0.29849  0.82088  0.17283  1.0000
  C   C754      1.0  0.28225  0.81371  0.18858  1.0000
  H   H1206     1.0  0.42545  0.57571  0.24510  1.0000
  H   H1207     1.0  0.26923  0.85801  0.14129  1.0000
  H   H1208     1.0  0.31450  0.81384  0.17389  1.0000
  H   H1209     1.0  0.28584  0.80135  0.20179  1.0000
  C   C755      1.0  0.43937  0.91224  0.12751  1.0000
  C   C756      1.0  0.42921  0.89704  0.14190  1.0000
  C   C757      1.0  0.41638  0.88730  0.13546  1.0000
  C   C758      1.0  0.41398  0.89257  0.11456  1.0000
  C   C759      1.0  0.42440  0.90747  0.10014  1.0000
  C   C760      1.0  0.43683  0.91751  0.10665  1.0000
  H   H1210     1.0  0.43103  0.89303  0.15808  1.0000
  H   H1211     1.0  0.40823  0.87591  0.14672  1.0000
  H   H1212     1.0  0.42282  0.91126  0.08394  1.0000
  H   H1213     1.0  0.44440  0.92934  0.09550  1.0000
  H   H1214     1.0  0.42418  0.64762  0.07446  1.0000
  H   H1215     1.0  0.38250  0.79570  0.27411  1.0000
  N   N79       1.0  0.41513  0.61994  0.07214  1.0000
  H   H1216     1.0  0.44636  0.60195  0.07278  1.0000
  C   C761      1.0  0.36362  0.67779  0.04412  1.0000
  C   C762      1.0  0.43097  0.60540  0.08353  1.0000
  C   C763      1.0  0.34465  0.67068  0.05040  1.0000
  H   H1217     1.0  0.41067  0.65133  0.05359  1.0000
  H   H1218     1.0  0.33221  0.67765  0.06184  1.0000
  C   C764      1.0  0.39513  0.66805  0.19247  1.0000
  C   C765      1.0  0.38234  0.69895  0.15876  1.0000
  C   C766      1.0  0.37955  0.70399  0.17841  1.0000
  C   C767      1.0  0.38623  0.68864  0.19515  1.0000
  H   H1219     1.0  0.37287  0.71996  0.18043  1.0000
  H   H1220     1.0  0.38438  0.69275  0.21011  1.0000
  C   C768      1.0  0.42817  0.74334  0.20278  1.0000
  C   C769      1.0  0.42014  0.73221  0.19260  1.0000
  C   C770      1.0  0.41294  0.74238  0.17394  1.0000
  C   C771      1.0  0.41354  0.76363  0.16566  1.0000
  C   C772      1.0  0.42145  0.77468  0.17596  1.0000
  C   C773      1.0  0.42894  0.76450  0.19434  1.0000
  H   H1221     1.0  0.41940  0.71587  0.19912  1.0000
  H   H1222     1.0  0.40649  0.73404  0.16607  1.0000
  H   H1223     1.0  0.42243  0.79091  0.16942  1.0000
  H   H1224     1.0  0.43557  0.77298  0.20189  1.0000
  C   C774      1.0  0.29536  0.83916  0.24191  1.0000
  C   C775      1.0  0.31053  0.83434  0.25423  1.0000
  C   C776      1.0  0.33167  0.83360  0.24474  1.0000
  C   C777      1.0  0.33781  0.83732  0.22287  1.0000
  C   C778      1.0  0.32268  0.84193  0.21048  1.0000
  C   C779      1.0  0.30145  0.84296  0.22000  1.0000
  H   H1225     1.0  0.30601  0.83135  0.27114  1.0000
  H   H1226     1.0  0.34319  0.83006  0.25445  1.0000
  H   H1227     1.0  0.32727  0.84468  0.19357  1.0000
  H   H1228     1.0  0.28992  0.84603  0.21039  1.0000
  H   H1229     1.0  0.26863  0.81036  0.35422  1.0000
  C   C780      1.0  0.30002  0.71129  0.28673  1.0000
  C   C781      1.0  0.31347  0.69149  0.28940  1.0000
  C   C782      1.0  0.30716  0.67359  0.28792  1.0000
  C   C783      1.0  0.28761  0.67563  0.28317  1.0000
  H   H1230     1.0  0.30482  0.72494  0.28835  1.0000
  H   H1231     1.0  0.32874  0.69000  0.29277  1.0000
  C   C784      1.0  0.35106  0.74839  0.30002  1.0000
  C   C785      1.0  0.33949  0.73334  0.31212  1.0000
  C   C786      1.0  0.34847  0.71192  0.31404  1.0000
  C   C787      1.0  0.36894  0.70550  0.30351  1.0000
  C   C788      1.0  0.38066  0.72055  0.29156  1.0000
  C   C789      1.0  0.37180  0.74201  0.29011  1.0000
  H   H1232     1.0  0.32376  0.73815  0.32035  1.0000
  H   H1233     1.0  0.33941  0.70038  0.32337  1.0000
  H   H1234     1.0  0.39659  0.71564  0.28358  1.0000
  H   H1235     1.0  0.38086  0.75360  0.28099  1.0000
  C   C790      1.0  0.35652  0.64803  0.02483  1.0000
  H   H1236     1.0  0.32283  0.63330  0.08889  1.0000
  H   H1237     1.0  0.45241  0.80349  0.09508  1.0000
  H   H1238     1.0  0.38690  0.49892  0.36906  1.0000
  H   H1239     1.0  0.34630  0.82364  0.05200  1.0000
  S   S326      1.0  0.35147  0.63218  0.00998  1.0000
  Fe  Fe165     1.0  0.39813  0.53581  0.18308  1.0000
  N   N80       1.0  0.47755  0.91772  0.00867  1.0000
  H   H1240     1.0  0.35730  0.96090  0.04919  1.0000
  H   H1241     1.0  0.24798  0.77072  0.12291  1.0000
  H   H1242     1.0  0.26965  0.85713  0.09212  1.0000
  C   C791      1.0  0.46759  0.69001  0.16399  1.0000
  H   H1243     1.0  0.28861  0.60005  0.20104  1.0000
  C   C792      1.0  0.41878  0.49825  0.40135  1.0000
  C   C793      1.0  0.46973  0.77880  0.04420  1.0000
  C   C794      1.0  0.43656  0.52049  0.20965  1.0000
  H   H1244     1.0  0.25371  0.93405  0.36846  1.0000
  C   C795      1.0  0.25293  0.88454  0.18746  1.0000
  Fe  Fe166     1.0  0.27157  0.60132  0.32506  1.0000
  C   C796      1.0  0.47521  0.93976  0.99698  1.0000
  H   H1245     1.0  0.26423  0.89729  0.38817  1.0000
  H   H1246     1.0  0.43838  0.80057  0.25213  1.0000
  H   H1247     1.0  0.38888  0.60928  0.09423  1.0000
  C   C797      1.0  0.42217  0.64000  0.06239  1.0000
  N   N81       1.0  0.33929  0.52136  0.22979  1.0000
  S   S327      1.0  0.39004  0.56439  0.19725  1.0000
  C   C798      1.0  0.38508  0.58126  0.37247  1.0000
  C   C799      1.0  0.37139  0.57134  0.38909  1.0000
  C   C800      1.0  0.35481  0.56471  0.38506  1.0000
  C   C801      1.0  0.35171  0.56815  0.36447  1.0000
  C   C802      1.0  0.36553  0.57787  0.34784  1.0000
  C   C803      1.0  0.38229  0.58420  0.35184  1.0000
  H   H1248     1.0  0.37327  0.56922  0.40507  1.0000
  H   H1249     1.0  0.34410  0.55727  0.39799  1.0000
  H   H1250     1.0  0.40313  0.80327  0.21650  1.0000
  H   H1251     1.0  0.39309  0.59154  0.33892  1.0000
  H   H1252     1.0  0.41835  0.76624  0.01369  1.0000
  N   N82       1.0  0.45176  0.59085  0.23194  1.0000
  C   C804      1.0  0.28434  0.55895  0.26102  1.0000
  C   C805      1.0  0.28019  0.56121  0.24107  1.0000
  H   H1253     1.0  0.40516  0.76927  0.24176  1.0000
  H   H1254     1.0  0.28923  0.56981  0.22761  1.0000
  S   S328      1.0  0.29538  0.61077  0.33697  1.0000
  C   C806      1.0  0.43056  0.63820  0.12235  1.0000
  C   C807      1.0  0.42613  0.62367  0.14097  1.0000
  C   C808      1.0  0.44231  0.61094  0.15058  1.0000
  C   C809      1.0  0.46305  0.61282  0.14160  1.0000
  H   H1255     1.0  0.41795  0.64765  0.11503  1.0000
  H   H1256     1.0  0.41009  0.62252  0.14803  1.0000
  H   H1257     1.0  0.47564  0.60281  0.14894  1.0000
  H   H1258     1.0  0.26279  0.58958  0.18708  1.0000
  S   S329      1.0  0.45030  0.97066  0.03697  1.0000
  C   C810      1.0  0.37173  0.56310  0.09863  1.0000
  C   C811      1.0  0.36696  0.57382  0.07907  1.0000
  C   C812      1.0  0.34883  0.57218  0.07344  1.0000
  C   C813      1.0  0.33553  0.55944  0.08716  1.0000
  C   C814      1.0  0.34030  0.54858  0.10667  1.0000
  C   C815      1.0  0.35823  0.55061  0.11251  1.0000
  H   H1259     1.0  0.37729  0.58334  0.06811  1.0000
  H   H1260     1.0  0.34546  0.58037  0.05822  1.0000
  H   H1261     1.0  0.33014  0.53859  0.11727  1.0000
  H   H1262     1.0  0.36194  0.54196  0.12744  1.0000
  C   C816      1.0  0.46755  0.62693  0.12249  1.0000
  Fe  Fe167     1.0  0.39415  0.56164  0.13940  1.0000
  H   H1263     1.0  0.39272  0.67412  0.14120  1.0000
  N   N83       1.0  0.35166  0.61861  0.23230  1.0000
  C   C817      1.0  0.35616  0.59537  0.23757  1.0000
  C   C818      1.0  0.36209  0.62584  0.21038  1.0000
  C   C819      1.0  0.35956  0.62687  0.24662  1.0000
  C   C820      1.0  0.32879  0.62633  0.23465  1.0000
  H   H1264     1.0  0.34836  0.58938  0.25393  1.0000
  H   H1265     1.0  0.37326  0.58892  0.23599  1.0000
  H   H1266     1.0  0.35028  0.58871  0.22708  1.0000
  H   H1267     1.0  0.35937  0.64332  0.20600  1.0000
  H   H1268     1.0  0.37935  0.61998  0.20795  1.0000
  H   H1269     1.0  0.35625  0.62024  0.19907  1.0000
  H   H1270     1.0  0.35612  0.64439  0.24330  1.0000
  H   H1271     1.0  0.37682  0.62171  0.24500  1.0000
  H   H1272     1.0  0.35224  0.62157  0.26334  1.0000
  H   H1273     1.0  0.32051  0.62117  0.25105  1.0000
  H   H1274     1.0  0.32232  0.62021  0.22415  1.0000
  H   H1275     1.0  0.32476  0.64381  0.23077  1.0000
  S   S330      1.0  0.41805  0.87524  0.00950  1.0000
  H   H1276     1.0  0.45874  0.94651  0.99518  1.0000
  H   H1277     1.0  0.48633  0.88792  0.14451  1.0000
  C   C821      1.0  0.25686  0.83862  0.17022  1.0000
  H   H1278     1.0  0.25552  0.64391  0.32090  1.0000
  C   C822      1.0  0.27456  0.52788  0.12318  1.0000
  H   H1279     1.0  0.47683  0.52738  0.48808  1.0000
  S   S331      1.0  0.26086  0.76670  0.07731  1.0000
  H   H1280     1.0  0.36808  0.53130  0.22641  1.0000
  H   H1281     1.0  0.43182  0.50924  0.45547  1.0000
  C   C823      1.0  0.27247  0.54775  0.27844  1.0000
  S   S332      1.0  0.40383  0.50528  0.20626  1.0000
  H   H1282     1.0  0.39612  0.97883  0.06817  1.0000
  S   S333      1.0  0.48587  0.99068  0.06117  1.0000
  H   H1283     1.0  0.26872  0.83743  0.37356  1.0000
  H   H1284     1.0  0.38990  0.94422  0.09014  1.0000
  S   S334      1.0  0.38630  0.55095  0.48359  1.0000
  C   C824      1.0  0.39075  0.67822  0.15622  1.0000
  C   C825      1.0  0.31513  0.58787  0.17878  1.0000
  N   N84       1.0  0.34219  0.72203  0.99045  1.0000
  C   C826      1.0  0.24790  0.93905  0.38384  1.0000
  N   N85       1.0  0.34078  0.64170  0.35007  1.0000
  C   C827      1.0  0.32131  0.65552  0.34448  1.0000
  C   C828      1.0  0.33559  0.62374  0.36697  1.0000
  C   C829      1.0  0.35224  0.65365  0.35747  1.0000
  C   C830      1.0  0.35402  0.63390  0.33133  1.0000
  H   H1285     1.0  0.32478  0.66904  0.33154  1.0000
  H   H1286     1.0  0.31093  0.66188  0.35812  1.0000
  H   H1287     1.0  0.31242  0.64693  0.33876  1.0000
  H   H1288     1.0  0.34989  0.61361  0.37218  1.0000
  H   H1289     1.0  0.32490  0.62906  0.38102  1.0000
  H   H1290     1.0  0.32788  0.61364  0.36171  1.0000
  H   H1291     1.0  0.34287  0.65956  0.37174  1.0000
  H   H1292     1.0  0.35628  0.66742  0.34523  1.0000
  H   H1293     1.0  0.36726  0.64372  0.36140  1.0000
  H   H1294     1.0  0.36986  0.62558  0.33408  1.0000
  H   H1295     1.0  0.35629  0.64701  0.31757  1.0000
  H   H1296     1.0  0.34686  0.62302  0.32657  1.0000
  H   H1297     1.0  0.42235  0.52269  0.36264  1.0000
  H   H1298     1.0  0.45760  0.61511  0.39401  1.0000
  S   S335      1.0  0.44400  0.97711  0.09486  1.0000
  H   H1299     1.0  0.29893  0.64635  0.08023  1.0000
  H   H1300     1.0  0.37779  0.49977  0.41574  1.0000
  H   H1301     1.0  0.39498  0.53457  0.36477  1.0000
  C   C831      1.0  0.24448  0.67657  0.07760  1.0000
  C   C832      1.0  0.48577  0.77859  0.07295  1.0000
  C   C833      1.0  0.25074  0.88969  0.22235  1.0000
  H   H1302     1.0  0.34908  0.53621  0.24958  1.0000
  C   C834      1.0  0.43853  0.81227  0.08819  1.0000
  C   C835      1.0  0.25274  0.54100  0.25563  1.0000
  H   H1303     1.0  0.42469  0.52120  0.48862  1.0000
  H   H1304     1.0  0.30592  0.82749  0.06892  1.0000
  S   S336      1.0  0.48408  0.94081  0.07823  1.0000
  C   C836      1.0  0.45851  0.83415  0.06005  1.0000
  H   H1305     1.0  0.26275  0.72128  0.32630  1.0000
  N   N86       1.0  0.34631  0.77788  0.11287  1.0000
  C   C837      1.0  0.34712  0.78747  0.09039  1.0000
  C   C838      1.0  0.33343  0.79317  0.12582  1.0000
  C   C839      1.0  0.36773  0.77194  0.11710  1.0000
  C   C840      1.0  0.33698  0.75899  0.11818  1.0000
  H   H1306     1.0  0.35656  0.77622  0.08022  1.0000
  H   H1307     1.0  0.35434  0.80160  0.08578  1.0000
  H   H1308     1.0  0.33118  0.79229  0.08670  1.0000
  H   H1309     1.0  0.33254  0.78644  0.14287  1.0000
  H   H1310     1.0  0.34005  0.80757  0.12219  1.0000
  H   H1311     1.0  0.31711  0.79815  0.12313  1.0000
  H   H1312     1.0  0.36777  0.76471  0.13396  1.0000
  H   H1313     1.0  0.37533  0.78576  0.11315  1.0000
  H   H1314     1.0  0.37797  0.76023  0.10788  1.0000
  H   H1315     1.0  0.32078  0.76296  0.11519  1.0000
  H   H1316     1.0  0.33634  0.75120  0.13499  1.0000
  H   H1317     1.0  0.34637  0.74707  0.10873  1.0000
  H   H1318     1.0  0.43133  0.77018  0.24230  1.0000
  C   C841      1.0  0.28363  0.68618  0.05732  1.0000
  Fe  Fe168     1.0  0.44519  0.58175  0.43437  1.0000
  H   H1319     1.0  0.40698  0.82597  0.22330  1.0000
  C   C842      1.0  0.45125  0.63957  0.11282  1.0000
  S   S337      1.0  0.28354  0.70898  0.08580  1.0000
  C   C843      1.0  0.25188  0.71054  0.33516  1.0000
  Fe  Fe169     1.0  0.43004  0.68383  0.08350  1.0000
  C   C844      1.0  0.41212  0.80856  0.22537  1.0000
  S   S338      1.0  0.42162  0.54808  0.15539  1.0000
  S   S339      1.0  0.28918  0.56827  0.32476  1.0000
  S   S340      1.0  0.29255  0.62989  0.00831  1.0000
  H   H1320     1.0  0.38136  0.82128  0.25705  1.0000
  C   C845      1.0  0.39686  0.66275  0.17318  1.0000
  Fe  Fe170     1.0  0.39460  0.71259  0.10603  1.0000
  S   S341      1.0  0.31269  0.75604  0.06766  1.0000
  H   H1321     1.0  0.24618  0.69245  0.99481  1.0000
  H   H1322     1.0  0.47489  0.88768  0.00462  1.0000
  H   H1323     1.0  0.40743  0.84600  0.08378  1.0000
  H   H1324     1.0  0.46358  0.90010  0.03799  1.0000
  C   C846      1.0  0.34769  0.79893  0.01307  1.0000
  S   S342      1.0  0.33891  0.77799  0.00895  1.0000
  C   C847      1.0  0.32874  0.70842  0.00573  1.0000
  H   H1325     1.0  0.46042  0.67707  0.12082  1.0000
  H   H1326     1.0  0.36686  0.73726  0.99034  1.0000
  H   H1327     1.0  0.26851  0.56636  0.09951  1.0000
  C   C848      1.0  0.38025  0.94345  0.07918  1.0000
  H   H1328     1.0  0.26609  0.87880  0.22332  1.0000
  N   N87       1.0  0.25882  0.53656  0.10972  1.0000
  S   S343      1.0  0.26337  0.73784  0.27821  1.0000
  H   H1329     1.0  0.40700  0.81426  0.00698  1.0000
  H   H1330     1.0  0.27594  0.54998  0.00975  1.0000
  C   C849      1.0  0.49202  0.63124  0.28236  1.0000
  C   C850      1.0  0.45732  0.76473  0.05741  1.0000
  H   H1331     1.0  0.48035  0.56046  0.46194  1.0000
  S   S344      1.0  0.28695  0.79969  0.04215  1.0000
  C   C851      1.0  0.32166  0.57874  0.16106  1.0000
  H   H1332     1.0  0.25373  0.90593  0.21642  1.0000
  C   C852      1.0  0.36519  0.82871  0.99951  1.0000
  S   S345      1.0  0.44369  0.55001  0.45485  1.0000
  S   S346      1.0  0.33357  0.59330  0.18998  1.0000
  S   S347      1.0  0.30622  0.61438  0.05416  1.0000
  H   H1333     1.0  0.27102  0.51279  0.09099  1.0000
  H   H1334     1.0  0.32037  0.75056  0.99547  1.0000
  C   C853      1.0  0.26861  0.55209  0.99656  1.0000
  H   H1335     1.0  0.46284  0.53196  0.21179  1.0000
  C   C854      1.0  0.30709  0.64310  0.09349  1.0000
  H   H1336     1.0  0.32107  0.71509  0.02004  1.0000
  C   C855      1.0  0.26446  0.55240  0.23834  1.0000
  C   C856      1.0  0.28599  0.85583  0.09379  1.0000
  C   C857      1.0  0.43605  0.69798  0.15035  1.0000
  H   H1337     1.0  0.47460  0.75908  0.10246  1.0000
  H   H1338     1.0  0.33643  0.50254  0.20942  1.0000
  H   H1339     1.0  0.44664  0.62456  0.22458  1.0000
  H   H1340     1.0  0.43564  0.53001  0.19422  1.0000
  H   H1341     1.0  0.24576  0.93474  0.42502  1.0000
  H   H1342     1.0  0.46088  0.57345  0.20709  1.0000
  C   C858      1.0  0.36046  0.83325  0.01961  1.0000
  H   H1343     1.0  0.46665  0.64997  0.16326  1.0000
  C   C859      1.0  0.48407  0.78551  0.05187  1.0000
  H   H1344     1.0  0.36366  0.94993  0.08572  1.0000
  H   H1345     1.0  0.38277  0.63530  0.07892  1.0000
  S   S348      1.0  0.39496  0.56501  0.10498  1.0000
  H   H1346     1.0  0.43700  0.80350  0.07679  1.0000
  C   C860      1.0  0.39493  0.62400  0.08697  1.0000
  H   H1347     1.0  0.34946  0.73236  0.01519  1.0000
  C   C861      1.0  0.41244  0.61038  0.05565  1.0000
  H   H1348     1.0  0.30418  0.88391  0.04579  1.0000
  H   H1349     1.0  0.39893  0.78298  0.99974  1.0000
  H   H1350     1.0  0.40836  0.59462  0.06245  1.0000
  S   S349      1.0  0.43849  0.75773  0.04756  1.0000
  H   H1351     1.0  0.45246  0.61249  0.20221  1.0000
  H   H1352     1.0  0.42705  0.60811  0.04356  1.0000
  C   C862      1.0  0.46870  0.68229  0.13041  1.0000
  N   N88       1.0  0.35037  0.75678  0.23125  1.0000
  C   C863      1.0  0.37048  0.74849  0.21817  1.0000
  C   C864      1.0  0.35290  0.77429  0.23945  1.0000
  C   C865      1.0  0.34414  0.73984  0.24897  1.0000
  C   C866      1.0  0.33407  0.76455  0.21839  1.0000
  H   H1353     1.0  0.36935  0.73500  0.21196  1.0000
  H   H1354     1.0  0.38321  0.74280  0.22733  1.0000
  H   H1355     1.0  0.37558  0.76074  0.20446  1.0000
  H   H1356     1.0  0.35793  0.78723  0.22650  1.0000
  H   H1357     1.0  0.33802  0.78128  0.24913  1.0000
  H   H1358     1.0  0.36461  0.76881  0.24972  1.0000
  H   H1359     1.0  0.32965  0.74577  0.25985  1.0000
  H   H1360     1.0  0.35652  0.73295  0.25843  1.0000
  H   H1361     1.0  0.34121  0.72674  0.24342  1.0000
  H   H1362     1.0  0.31866  0.77075  0.22788  1.0000
  H   H1363     1.0  0.33194  0.75184  0.21167  1.0000
  H   H1364     1.0  0.33815  0.77758  0.20509  1.0000
  C   C867      1.0  0.46994  0.60511  0.46109  1.0000
  H   H1365     1.0  0.27743  0.88309  0.05860  1.0000
  C   C868      1.0  0.47359  0.90438  0.99615  1.0000
  H   H1366     1.0  0.44748  0.60239  0.26021  1.0000
  C   C869      1.0  0.38617  0.80406  0.25744  1.0000
  H   H1367     1.0  0.47294  0.61163  0.21556  1.0000
  H   H1368     1.0  0.25705  0.90024  0.18048  1.0000
  C   C870      1.0  0.42125  0.84571  0.07061  1.0000
  H   H1369     1.0  0.31627  0.70611  0.99886  1.0000
  H   H1370     1.0  0.42214  0.86238  0.06322  1.0000
  Fe  Fe171     1.0  0.46633  0.94953  0.10888  1.0000
  H   H1371     1.0  0.39383  0.67507  0.02340  1.0000
  H   H1372     1.0  0.43352  0.61206  0.09603  1.0000
  Fe  Fe172     1.0  0.36571  0.57626  0.17742  1.0000
  H   H1373     1.0  0.41254  0.76669  0.26637  1.0000
  H   H1374     1.0  0.41879  0.79767  0.27582  1.0000
  N   N89       1.0  0.30031  0.85930  0.07316  1.0000
  H   H1375     1.0  0.45926  0.83639  0.09889  1.0000
  S   S350      1.0  0.28557  0.79823  0.10129  1.0000
  C   C871      1.0  0.29381  0.59228  0.18779  1.0000
  H   H1376     1.0  0.41743  0.82239  0.25743  1.0000
  Fe  Fe173     1.0  0.41672  0.57735  0.40727  1.0000
  H   H1377     1.0  0.42894  0.80504  0.21771  1.0000
  N   N90       1.0  0.40855  0.79818  0.24782  1.0000
  C   C872      1.0  0.41459  0.77512  0.24967  1.0000
  C   C873      1.0  0.42136  0.80502  0.25878  1.0000
  H   H1378     1.0  0.40350  0.64677  0.17123  1.0000
  H   H1379     1.0  0.33790  0.57636  0.15324  1.0000
  H   H1380     1.0  0.29893  0.68956  0.04975  1.0000
  C   C874      1.0  0.37941  0.66923  0.02884  1.0000
  S   S351      1.0  0.49189  0.49492  0.30417  1.0000
  H   H1381     1.0  0.42610  0.59014  0.09125  1.0000
  S   S352      1.0  0.38774  0.73393  0.07594  1.0000
  H   H1382     1.0  0.32184  0.61719  0.12681  1.0000
  C   C875      1.0  0.33027  0.54140  0.21702  1.0000
  H   H1383     1.0  0.39651  0.63066  0.09996  1.0000
  S   S353      1.0  0.46527  0.50742  0.41930  1.0000
  C   C876      1.0  0.34116  0.65572  0.04093  1.0000
  H   H1384     1.0  0.33804  0.69261  0.01098  1.0000
  C   C877      1.0  0.27195  0.69536  0.07429  1.0000
  C   C878      1.0  0.25486  0.83095  0.37630  1.0000
  H   H1385     1.0  0.43843  0.71424  0.14278  1.0000
  H   H1386     1.0  0.46182  0.55763  0.23291  1.0000
  Fe  Fe174     1.0  0.30574  0.58188  0.05192  1.0000
  H   H1387     1.0  0.39972  0.62029  0.04751  1.0000
  Fe  Fe175     1.0  0.31083  0.77145  0.03420  1.0000
  H   H1388     1.0  0.28578  0.66335  0.03887  1.0000
  S   S354      1.0  0.41215  0.54565  0.42606  1.0000
  C   C879      1.0  0.27622  0.67130  0.05124  1.0000
  S   S355      1.0  0.45678  0.65665  0.08865  1.0000
  C   C880      1.0  0.42934  0.59060  0.23475  1.0000
  H   H1389     1.0  0.47941  0.95002  0.00531  1.0000
  S   S356      1.0  0.28724  0.75364  0.03236  1.0000
  H   H1390     1.0  0.24712  0.56515  0.12157  1.0000
  C   C881      1.0  0.32271  0.51364  0.24693  1.0000
  H   H1391     1.0  0.28906  0.53437  0.11628  1.0000
  C   C882      1.0  0.37581  0.65449  0.01916  1.0000
  H   H1392     1.0  0.34209  0.54713  0.20344  1.0000
  H   H1393     1.0  0.26031  0.52149  0.00603  1.0000
  H   H1394     1.0  0.25280  0.75401  0.14734  1.0000
  C   C883      1.0  0.47355  0.76434  0.08607  1.0000
  C   C884      1.0  0.42284  0.50674  0.21928  1.0000
  H   H1395     1.0  0.43153  0.84391  0.10778  1.0000
  S   S357      1.0  0.42596  0.70231  0.05138  1.0000
  S   S358      1.0  0.42910  0.71164  0.09663  1.0000
  H   H1396     1.0  0.45799  0.63912  0.40073  1.0000
  H   H1397     1.0  0.24393  0.98582  0.48623  1.0000
  C   C885      1.0  0.48623  0.61880  0.35826  1.0000
  H   H1398     1.0  0.45480  0.77176  0.00360  1.0000
  C   C886      1.0  0.30646  0.62802  0.13019  1.0000
  Fe  Fe176     1.0  0.42269  0.73042  0.06553  1.0000
  H   H1399     1.0  0.25244  0.69981  0.32474  1.0000
  H   H1400     1.0  0.30928  0.65851  0.09513  1.0000
  S   S359      1.0  0.41058  0.59203  0.43548  1.0000
  S   S360      1.0  0.32391  0.58427  0.01869  1.0000
  H   H1401     1.0  0.28316  0.61525  0.09695  1.0000
  H   H1402     1.0  0.45643  0.82635  0.04810  1.0000
  H   H1403     1.0  0.30976  0.84664  0.04498  1.0000
  H   H1404     1.0  0.48269  0.67892  0.16574  1.0000
  C   C887      1.0  0.43937  0.49609  0.24967  1.0000
  H   H1405     1.0  0.33452  0.79375  0.04618  1.0000
  S   S361      1.0  0.41316  0.93637  0.99930  1.0000
  H   H1406     1.0  0.42713  0.69340  0.14095  1.0000
  H   H1407     1.0  0.47343  0.82562  0.06511  1.0000
  C   C888      1.0  0.38205  0.51365  0.40373  1.0000
  C   C889      1.0  0.25693  0.66603  0.06185  1.0000
  H   H1408     1.0  0.39089  0.98658  0.04213  1.0000
  H   H1409     1.0  0.27568  0.54564  0.29392  1.0000
  H   H1410     1.0  0.47365  0.58961  0.25095  1.0000
  H   H1411     1.0  0.26386  0.81616  0.13674  1.0000
  C   C890      1.0  0.40746  0.52670  0.37396  1.0000
  C   C891      1.0  0.25217  0.69093  0.08411  1.0000
  H   H1412     1.0  0.47196  0.69804  0.12184  1.0000
  C   C892      1.0  0.38584  0.97735  0.05817  1.0000
  H   H1413     1.0  0.32613  0.65118  0.04512  1.0000
  C   C893      1.0  0.25374  0.82054  0.12548  1.0000
  C   C894      1.0  0.40920  0.94566  0.04968  1.0000
  H   H1414     1.0  0.41079  0.92905  0.04852  1.0000
  C   C895      1.0  0.29355  0.88077  0.06140  1.0000
  N   N91       1.0  0.40203  0.50777  0.38923  1.0000
  S   S362      1.0  0.27421  0.59058  0.04298  1.0000
  Fe  Fe177     1.0  0.40948  0.55917  0.45403  1.0000
  N   N92       1.0  0.44064  0.83414  0.07810  1.0000
  H   H1415     1.0  0.41515  0.95441  0.03368  1.0000
  H   H1416     1.0  0.44975  0.74691  0.08880  1.0000
  H   H1417     1.0  0.26852  0.53189  0.13900  1.0000
  H   H1418     1.0  0.42593  0.69847  0.16616  1.0000
  H   H1419     1.0  0.44509  0.86120  0.08691  1.0000
  H   H1420     1.0  0.25968  0.69714  0.27537  1.0000
  H   H1421     1.0  0.47891  0.66423  0.28054  1.0000
  C   C896      1.0  0.42426  0.49445  0.23931  1.0000
  H   H1422     1.0  0.42082  0.50921  0.41022  1.0000
  N   N93       1.0  0.45610  0.68302  0.15178  1.0000
  C   C897      1.0  0.28588  0.57650  0.16265  1.0000
  C   C898      1.0  0.29190  0.61247  0.10975  1.0000
  H   H1423     1.0  0.48385  0.66066  0.37927  1.0000
  H   H1424     1.0  0.46053  0.85039  0.05205  1.0000
  H   H1425     1.0  0.36349  0.50991  0.24796  1.0000
  C   C899      1.0  0.46232  0.91653  0.02884  1.0000
  C   C900      1.0  0.41589  0.77568  0.99801  1.0000
  C   C901      1.0  0.45943  0.75741  0.07835  1.0000
  S   S363      1.0  0.24640  0.79151  0.29578  1.0000
  C   C902      1.0  0.48572  0.61549  0.46075  1.0000
  H   H1426     1.0  0.44604  0.92224  0.02615  1.0000
  H   H1427     1.0  0.31215  0.56620  0.13921  1.0000
  C   C903      1.0  0.34309  0.80343  0.03316  1.0000
  H   H1428     1.0  0.27912  0.51047  0.12539  1.0000
  H   H1429     1.0  0.25195  0.74763  0.23586  1.0000
  H   H1430     1.0  0.39725  0.98083  0.99214  1.0000
  S   S364      1.0  0.26801  0.56954  0.15192  1.0000
  C   C904      1.0  0.46459  0.57290  0.22251  1.0000
  H   H1431     1.0  0.42461  0.81166  0.10127  1.0000
  C   C905      1.0  0.26059  0.81374  0.10650  1.0000
  S   S365      1.0  0.47652  0.62745  0.26648  1.0000
  C   C906      1.0  0.30704  0.57318  0.15296  1.0000
  N   N94       1.0  0.38728  0.95510  0.05772  1.0000
  S   S366      1.0  0.48849  0.96877  0.11057  1.0000
  Fe  Fe178     1.0  0.32246  0.61776  0.02053  1.0000
  C   C907      1.0  0.45839  0.59664  0.48045  1.0000
  H   H1432     1.0  0.41924  0.60399  0.24181  1.0000
  H   H1433     1.0  0.32459  0.55407  0.22619  1.0000
  H   H1434     1.0  0.46821  0.78470  0.02801  1.0000
  H   H1435     1.0  0.41815  0.83840  0.05883  1.0000
  H   H1436     1.0  0.29354  0.89286  0.07011  1.0000
  C   C908      1.0  0.35569  0.52482  0.23888  1.0000
  N   N95       1.0  0.42905  0.79178  0.99024  1.0000
  C   C909      1.0  0.34969  0.82038  0.03643  1.0000
  C   C910      1.0  0.37401  0.95389  0.04372  1.0000
  H   H1437     1.0  0.29745  0.62045  0.14526  1.0000
  S   S367      1.0  0.37159  0.54630  0.16582  1.0000
  Fe  Fe179     1.0  0.44931  0.65378  0.25949  1.0000
  C   C911      1.0  0.32179  0.85684  0.07640  1.0000
  C   C912      1.0  0.45192  0.52171  0.21971  1.0000
  H   H1438     1.0  0.43341  0.81842  0.99978  1.0000
  H   H1439     1.0  0.45394  0.57421  0.26349  1.0000
  H   H1440     1.0  0.26170  0.55417  0.22275  1.0000
  H   H1441     1.0  0.36896  0.52047  0.39513  1.0000
  H   H1442     1.0  0.48398  0.67111  0.13078  1.0000
  Fe  Fe180     1.0  0.29216  0.59593  0.00966  1.0000
  S   S368      1.0  0.36726  0.85510  0.02433  1.0000
  Fe  Fe181     1.0  0.46359  0.96997  0.06433  1.0000
  H   H1443     1.0  0.25715  0.85378  0.32854  1.0000
  H   H1444     1.0  0.36080  0.51120  0.20299  1.0000
  H   H1445     1.0  0.25066  0.85672  0.29290  1.0000
  C   C913      1.0  0.29993  0.84382  0.06106  1.0000
  C   C914      1.0  0.25975  0.53595  0.99439  1.0000
  H   H1446     1.0  0.48160  0.57274  0.21989  1.0000
  H   H1447     1.0  0.33308  0.85951  0.06117  1.0000
  Fe  Fe182     1.0  0.26348  0.78080  0.04316  1.0000
  S   S369      1.0  0.47324  0.51140  0.25141  1.0000
  C   C915      1.0  0.45190  0.66187  0.16236  1.0000
  Fe  Fe183     1.0  0.25965  0.78762  0.32437  1.0000
  H   H1448     1.0  0.48362  0.62791  0.11512  1.0000
  H   H1449     1.0  0.31699  0.53994  0.21078  1.0000
  H   H1450     1.0  0.45765  0.90987  0.99246  1.0000
  S   S370      1.0  0.44720  0.67025  0.22627  1.0000
  C   C916      1.0  0.44431  0.84439  0.09357  1.0000
  C   C917      1.0  0.35899  0.81142  0.99629  1.0000
  C   C918      1.0  0.45620  0.61076  0.21790  1.0000
  C   C919      1.0  0.45342  0.50951  0.23970  1.0000
  H   H1451     1.0  0.41967  0.94597  0.06000  1.0000
  H   H1452     1.0  0.30936  0.51216  0.24079  1.0000
  C   C920      1.0  0.46102  0.63112  0.38728  1.0000
  H   H1453     1.0  0.26785  0.87271  0.18772  1.0000
  C   C921      1.0  0.45689  0.58915  0.25254  1.0000
  H   H1454     1.0  0.31628  0.52458  0.25804  1.0000
  H   H1455     1.0  0.25396  0.89059  0.41568  1.0000
  H   H1456     1.0  0.26481  0.64859  0.10646  1.0000
  N   N96       1.0  0.48284  0.63008  0.37549  1.0000
  C   C922      1.0  0.34848  0.50567  0.21628  1.0000
  S   S371      1.0  0.24891  0.64536  0.05655  1.0000
  H   H1457     1.0  0.28176  0.53608  0.08098  1.0000
  H   H1458     1.0  0.27207  0.90817  0.40629  1.0000
  H   H1459     1.0  0.28258  0.60420  0.12406  1.0000
  Fe  Fe184     1.0  0.39061  0.87096  0.99886  1.0000
  H   H1460     1.0  0.28574  0.86737  0.10324  1.0000
  H   H1461     1.0  0.44960  0.63969  0.37707  1.0000
  C   C923      1.0  0.42371  0.80613  0.00514  1.0000
  H   H1462     1.0  0.47575  0.62703  0.34698  1.0000
  H   H1463     1.0  0.26063  0.94466  0.38732  1.0000
  H   H1464     1.0  0.32255  0.86812  0.08572  1.0000
  H   H1465     1.0  0.44263  0.66177  0.17864  1.0000
  H   H1466     1.0  0.37914  0.96237  0.02737  1.0000
  H   H1467     1.0  0.47115  0.70585  0.15628  1.0000
  H   H1468     1.0  0.26511  0.63892  0.13374  1.0000
  H   H1469     1.0  0.28375  0.84444  0.05934  1.0000
  H   H1470     1.0  0.30708  0.60155  0.10563  1.0000
  C   C924      1.0  0.27431  0.64607  0.11855  1.0000
  H   H1471     1.0  0.47649  0.66041  0.35530  1.0000
  C   C925      1.0  0.25864  0.90374  0.40280  1.0000
  H   H1472     1.0  0.27589  0.66183  0.11981  1.0000
  H   H1473     1.0  0.46488  0.92634  0.03873  1.0000
  H   H1474     1.0  0.30944  0.64271  0.13269  1.0000
  H   H1475     1.0  0.25577  0.53662  0.07855  1.0000
  H   H1476     1.0  0.48990  0.50150  0.37609  1.0000
  C   C926      1.0  0.25681  0.53867  0.27571  1.0000
  N   N97       1.0  0.29496  0.63241  0.11300  1.0000
  H   H1477     1.0  0.38770  0.64871  0.00662  1.0000
  H   H1478     1.0  0.45826  0.69121  0.18004  1.0000
  H   H1479     1.0  0.44598  0.58884  0.48092  1.0000
  H   H1480     1.0  0.49335  0.79652  0.04159  1.0000
  C   C927      1.0  0.26716  0.53020  0.08918  1.0000
  C   C928      1.0  0.49003  0.65100  0.28684  1.0000
  H   H1481     1.0  0.36842  0.71106  0.00591  1.0000
  C   C929      1.0  0.25407  0.55977  0.10647  1.0000
  H   H1482     1.0  0.48338  0.60251  0.36436  1.0000
  H   H1483     1.0  0.44274  0.65645  0.15377  1.0000
  H   H1484     1.0  0.25820  0.70084  0.34911  1.0000
  C   C930      1.0  0.49049  0.61686  0.47953  1.0000
  H   H1485     1.0  0.24845  0.67872  0.02089  1.0000
  H   H1486     1.0  0.24785  0.52983  0.28920  1.0000
  C   C931      1.0  0.24745  0.81932  0.09193  1.0000
  H   H1487     1.0  0.49260  0.52653  0.35929  1.0000
  H   H1488     1.0  0.36957  0.98503  0.06440  1.0000
  C   C932      1.0  0.35743  0.72582  0.00085  1.0000
  H   H1489     1.0  0.25037  0.85058  0.21787  1.0000
  H   H1490     1.0  0.43419  0.49401  0.39090  1.0000
  C   C933      1.0  0.48670  0.65161  0.36668  1.0000
  H   H1491     1.0  0.25277  0.81432  0.07706  1.0000
  C   C934      1.0  0.43628  0.49327  0.45307  1.0000
  H   H1492     1.0  0.24539  0.59056  0.26209  1.0000
  H   H1493     1.0  0.43706  0.99147  0.99876  1.0000
  H   H1494     1.0  0.24474  0.88097  0.17669  1.0000
  H   H1495     1.0  0.49366  0.92073  0.14943  1.0000
  H   H1496     1.0  0.24394  0.62790  0.26298  1.0000
  C   C935      1.0  0.39985  0.49245  0.37787  1.0000
  C   C936      1.0  0.39211  0.55112  0.52231  1.0000
  Fe  Fe185     1.0  0.46367  0.96092  0.80727  1.0000
  H   H1497     1.0  0.48171  0.88493  0.81672  1.0000
  H   H1498     1.0  0.37733  0.56222  0.52383  1.0000
  C   C937      1.0  0.25918  0.57301  0.96408  1.0000
  N   N98       1.0  0.48176  0.90109  0.87885  1.0000
  H   H1499     1.0  0.45831  0.53493  0.58491  1.0000
  Fe  Fe186     1.0  0.41358  0.90714  0.98853  1.0000
  N   N99       1.0  0.41945  0.96613  0.76556  1.0000
  C   C938      1.0  0.40390  0.54599  0.53801  1.0000
  C   C939      1.0  0.44949  0.57607  0.56715  1.0000
  H   H1500     1.0  0.45154  0.58989  0.55407  1.0000
  C   C940      1.0  0.42089  0.95689  0.97883  1.0000
  H   H1501     1.0  0.48342  0.59095  0.56497  1.0000
  S   S372      1.0  0.43777  0.52615  0.55548  1.0000
  H   H1502     1.0  0.40855  0.81208  0.97028  1.0000
  C   C941      1.0  0.32911  0.74232  0.98248  1.0000
  H   H1503     1.0  0.42472  0.93460  0.78382  1.0000
  S   S373      1.0  0.38439  0.90405  0.98030  1.0000
  H   H1504     1.0  0.44561  0.97790  0.74428  1.0000
  C   C942      1.0  0.42329  0.53214  0.53576  1.0000
  C   C943      1.0  0.47265  0.83334  0.92150  1.0000
  H   H1505     1.0  0.31745  0.74018  0.97445  1.0000
  C   C944      1.0  0.25048  0.53831  0.97710  1.0000
  H   H1506     1.0  0.48175  0.53559  0.59256  1.0000
  H   H1507     1.0  0.46168  0.79336  0.98305  1.0000
  C   C945      1.0  0.49343  0.82287  0.91657  1.0000
  H   H1508     1.0  0.48354  0.92004  0.89962  1.0000
  C   C946      1.0  0.46661  0.54536  0.58891  1.0000
  C   C947      1.0  0.43579  0.99066  0.94938  1.0000
  C   C948      1.0  0.45141  0.78151  0.98831  1.0000
  H   H1509     1.0  0.28065  0.98698  0.62797  1.0000
  H   H1510     1.0  0.45329  0.59261  0.51415  1.0000
  H   H1511     1.0  0.46555  0.91534  0.85329  1.0000
  S   S374      1.0  0.40998  0.85759  0.97112  1.0000
  S   S375      1.0  0.46497  0.92908  0.80163  1.0000
  Fe  Fe187     1.0  0.45146  0.98523  0.84201  1.0000
  H   H1512     1.0  0.41953  0.76455  0.98720  1.0000
  H   H1513     1.0  0.48563  0.56908  0.53920  1.0000
  N   N100      1.0  0.46992  0.56353  0.57154  1.0000
  Fe  Fe188     1.0  0.40672  0.89106  0.95349  1.0000
  S   S376      1.0  0.40281  0.90048  0.91999  1.0000
  S   S377      1.0  0.43557  0.89645  0.96047  1.0000
  H   H1514     1.0  0.42125  0.94429  0.74630  1.0000
  H   H1515     1.0  0.43510  0.81594  0.96303  1.0000
  S   S378      1.0  0.47993  0.96169  0.83222  1.0000
  H   H1516     1.0  0.37309  0.83881  0.98635  1.0000
  C   C949      1.0  0.46263  0.59872  0.49927  1.0000
  C   C950      1.0  0.48379  0.88127  0.89468  1.0000
  H   H1517     1.0  0.35612  0.98360  0.61666  1.0000
  H   H1518     1.0  0.47425  0.54620  0.54740  1.0000
  H   H1519     1.0  0.32787  0.99006  0.69329  1.0000
  C   C951      1.0  0.48253  0.55584  0.55254  1.0000
  C   C952      1.0  0.44576  0.96987  0.94810  1.0000
  Fe  Fe189     1.0  0.49131  0.98899  0.80938  1.0000
  H   H1520     1.0  0.36396  0.72128  0.96100  1.0000
  S   S379      1.0  0.43393  0.98205  0.81916  1.0000
  H   H1521     1.0  0.33880  0.75317  0.97121  1.0000
  C   C953      1.0  0.26857  0.57065  0.98127  1.0000
  H   H1522     1.0  0.47094  0.93425  0.87812  1.0000
  H   H1523     1.0  0.44067  0.56656  0.56249  1.0000
  H   H1524     1.0  0.45621  0.77100  0.97676  1.0000
  C   C954      1.0  0.40759  0.98728  0.76861  1.0000
  S   S380      1.0  0.48341  0.61168  0.52265  1.0000
  H   H1525     1.0  0.24670  0.99121  0.51000  1.0000
  H   H1526     1.0  0.25915  0.58725  0.95212  1.0000
  H   H1527     1.0  0.40825  0.49396  0.54924  1.0000
  C   C955      1.0  0.47310  0.91904  0.88959  1.0000
  S   S381      1.0  0.46723  0.84085  0.98062  1.0000
  H   H1528     1.0  0.45757  0.91758  0.89992  1.0000
  H   H1529     1.0  0.48982  0.86731  0.88713  1.0000
  H   H1530     1.0  0.34250  0.70838  0.96460  1.0000
  H   H1531     1.0  0.46840  0.87926  0.90512  1.0000
  H   H1532     1.0  0.46267  0.83695  0.91017  1.0000
  H   H1533     1.0  0.36234  0.80814  0.98067  1.0000
  C   C956      1.0  0.46755  0.90062  0.86546  1.0000
  H   H1534     1.0  0.44576  0.51249  0.51619  1.0000
  C   C957      1.0  0.44204  0.96640  0.75919  1.0000
  H   H1535     1.0  0.42054  0.95474  0.79829  1.0000
  H   H1536     1.0  0.42901  0.79351  0.95781  1.0000
  H   H1537     1.0  0.44910  0.84846  0.94408  1.0000
  H   H1538     1.0  0.43953  0.58212  0.58113  1.0000
  H   H1539     1.0  0.47234  0.58242  0.59211  1.0000
  C   C958      1.0  0.43078  0.52311  0.51800  1.0000
  C   C959      1.0  0.41562  0.95066  0.78543  1.0000
  H   H1540     1.0  0.45713  0.55048  0.60355  1.0000
  C   C960      1.0  0.41262  0.96019  0.74896  1.0000
  H   H1541     1.0  0.39877  0.94981  0.79070  1.0000
  C   C961      1.0  0.48109  0.57682  0.57749  1.0000
  C   C962      1.0  0.41061  0.97762  0.97972  1.0000
  H   H1542     1.0  0.39080  0.97854  0.93162  1.0000
  H   H1543     1.0  0.44762  0.97077  0.77141  1.0000
  S   S382      1.0  0.47715  0.98661  0.78338  1.0000
  C   C963      1.0  0.42521  0.80386  0.96943  1.0000
  H   H1544     1.0  0.36303  0.98724  0.93781  1.0000
  S   S383      1.0  0.43791  0.98321  0.87628  1.0000
  H   H1545     1.0  0.45946  0.96683  0.93594  1.0000
  H   H1546     1.0  0.48529  0.94106  0.98100  1.0000
  Fe  Fe190     1.0  0.43700  0.86416  0.98038  1.0000
  H   H1547     1.0  0.47368  0.88726  0.85711  1.0000
  C   C964      1.0  0.43810  0.95298  0.96256  1.0000
  S   S384      1.0  0.28063  0.59101  0.98238  1.0000
  H   H1548     1.0  0.44607  0.93703  0.96159  1.0000
  C   C965      1.0  0.41168  0.92392  0.90776  1.0000
  C   C966      1.0  0.41543  0.93633  0.91979  1.0000
  C   C967      1.0  0.42370  0.95436  0.90991  1.0000
  C   C968      1.0  0.42802  0.96025  0.88803  1.0000
  C   C969      1.0  0.42416  0.94796  0.87594  1.0000
  C   C970      1.0  0.41581  0.92989  0.88582  1.0000
  H   H1549     1.0  0.41188  0.93212  0.93673  1.0000
  H   H1550     1.0  0.42685  0.96375  0.91923  1.0000
  H   H1551     1.0  0.42746  0.95237  0.85902  1.0000
  H   H1552     1.0  0.41281  0.92039  0.87646  1.0000
  C   C971      1.0  0.46493  0.83975  0.94077  1.0000
  H   H1553     1.0  0.41547  0.97151  0.73373  1.0000
  H   H1554     1.0  0.39310  0.49649  0.51834  1.0000
  H   H1555     1.0  0.45156  0.95063  0.75702  1.0000
  C   C972      1.0  0.47755  0.83457  0.95572  1.0000
  H   H1556     1.0  0.39560  0.95996  0.75318  1.0000
  H   H1557     1.0  0.45176  0.89875  0.87494  1.0000
  H   H1558     1.0  0.39805  0.55292  0.55180  1.0000
  Fe  Fe191     1.0  0.46343  0.49763  0.55480  1.0000
  H   H1559     1.0  0.25185  0.96438  0.50678  1.0000
  C   C973      1.0  0.25004  0.55704  0.96208  1.0000
  C   C974      1.0  0.49020  0.91529  0.80477  1.0000
  H   H1560     1.0  0.36346  0.69606  0.97835  1.0000
  H   H1561     1.0  0.39038  0.99061  0.89334  1.0000
  H   H1562     1.0  0.48557  0.55635  0.49820  1.0000
  C   C975      1.0  0.35354  0.71151  0.97277  1.0000
  H   H1563     1.0  0.48513  0.90436  0.98102  1.0000
  C   C976      1.0  0.41899  0.52828  0.50229  1.0000
  C   C977      1.0  0.39987  0.54264  0.50422  1.0000
  C   C978      1.0  0.47887  0.60863  0.49887  1.0000
  H   H1564     1.0  0.39054  0.98755  0.77422  1.0000
  Fe  Fe192     1.0  0.69199  0.34842  0.48658  1.0000
  C   C979      1.0  0.50277  0.02564  0.08783  1.0000
  Fe  Fe193     1.0  0.70226  0.32826  0.17302  1.0000
  S   S385      1.0  0.71975  0.29506  0.18055  1.0000
  S   S386      1.0  0.70389  0.34481  0.13934  1.0000
  Fe  Fe194     1.0  0.68269  0.32949  0.21846  1.0000
  S   S387      1.0  0.69798  0.29614  0.22994  1.0000
  S   S388      1.0  0.66138  0.34977  0.24048  1.0000
  Fe  Fe195     1.0  0.72650  0.30498  0.20717  1.0000
  S   S389      1.0  0.51890  0.12565  0.05471  1.0000
  Fe  Fe196     1.0  0.68979  0.28928  0.20223  1.0000
  S   S390      1.0  0.68174  0.25867  0.20257  1.0000
  S   S391      1.0  0.71185  0.33899  0.19766  1.0000
  S   S392      1.0  0.67155  0.32176  0.19287  1.0000
  S   S393      1.0  0.67678  0.40114  0.33999  1.0000
  S   S394      1.0  0.70783  0.39165  0.28539  1.0000
  H   H1565     1.0  0.69557  0.30970  0.07910  1.0000
  H   H1566     1.0  0.49663  0.16466  0.02884  1.0000
  S   S395      1.0  0.68487  0.47401  0.47836  1.0000
  C   C980      1.0  0.58150  0.46398  0.32161  1.0000
  Fe  Fe197     1.0  0.67488  0.33219  0.45729  1.0000
  H   H1567     1.0  0.52826  0.36223  0.44608  1.0000
  H   H1568     1.0  0.66901  0.47997  0.44035  1.0000
  C   C981      1.0  0.57923  0.18497  0.06219  1.0000
  Fe  Fe198     1.0  0.54712  0.14023  0.03850  1.0000
  C   C982      1.0  0.70482  0.45570  0.39426  1.0000
  H   H1569     1.0  0.51010  0.36297  0.31215  1.0000
  Fe  Fe199     1.0  0.70097  0.05271  0.19952  1.0000
  S   S396      1.0  0.68827  0.08754  0.19258  1.0000
  C   C983      1.0  0.67394  0.42136  0.46811  1.0000
  H   H1570     1.0  0.66940  0.27327  0.03070  1.0000
  H   H1571     1.0  0.54202  0.47285  0.35309  1.0000
  C   C984      1.0  0.69189  0.28927  0.03435  1.0000
  S   S397      1.0  0.56983  0.10953  0.03732  1.0000
  Fe  Fe200     1.0  0.57890  0.33193  0.34671  1.0000
  S   S398      1.0  0.56914  0.30224  0.34738  1.0000
  S   S399      1.0  0.58260  0.35726  0.31796  1.0000
  Fe  Fe201     1.0  0.58612  0.31807  0.39135  1.0000
  S   S400      1.0  0.57750  0.28684  0.39591  1.0000
  S   S401      1.0  0.59798  0.32503  0.41668  1.0000
  Fe  Fe202     1.0  0.59629  0.28622  0.36321  1.0000
  S   S402      1.0  0.62206  0.25924  0.35446  1.0000
  Fe  Fe203     1.0  0.55139  0.30578  0.37976  1.0000
  H   H1572     1.0  0.59485  0.29639  0.47605  1.0000
  S   S403      1.0  0.60735  0.31584  0.36015  1.0000
  S   S404      1.0  0.55859  0.33721  0.37761  1.0000
  Fe  Fe204     1.0  0.63441  0.18830  0.10577  1.0000
  S   S405      1.0  0.66843  0.18033  0.09074  1.0000
  S   S406      1.0  0.61510  0.16423  0.10720  1.0000
  Fe  Fe205     1.0  0.64218  0.22366  0.12295  1.0000
  S   S407      1.0  0.67657  0.21772  0.10954  1.0000
  S   S408      1.0  0.62947  0.25034  0.14039  1.0000
  Fe  Fe206     1.0  0.66673  0.21509  0.08109  1.0000
  S   S409      1.0  0.68216  0.23006  0.04909  1.0000
  Fe  Fe207     1.0  0.67468  0.18376  0.12076  1.0000
  S   S410      1.0  0.69948  0.15976  0.13539  1.0000
  S   S411      1.0  0.63208  0.22323  0.09350  1.0000
  S   S412      1.0  0.64100  0.18972  0.13673  1.0000
  Fe  Fe208     1.0  0.68899  0.18372  0.28701  1.0000
  S   S413      1.0  0.65731  0.17548  0.29568  1.0000
  S   S414      1.0  0.70294  0.18792  0.31240  1.0000
  Fe  Fe209     1.0  0.69164  0.18812  0.24024  1.0000
  S   S415      1.0  0.65953  0.18170  0.24478  1.0000
  S   S416      1.0  0.71630  0.18936  0.21077  1.0000
  Fe  Fe210     1.0  0.65041  0.20206  0.26891  1.0000
  S   S417      1.0  0.62095  0.22632  0.27446  1.0000
  Fe  Fe211     1.0  0.66951  0.15595  0.27101  1.0000
  S   S418      1.0  0.66626  0.12258  0.27620  1.0000
  S   S419      1.0  0.68156  0.21140  0.26149  1.0000
  S   S420      1.0  0.70204  0.16119  0.26516  1.0000
  C   C985      1.0  0.70354  0.16695  0.15724  1.0000
  C   C986      1.0  0.68675  0.17656  0.17105  1.0000
  C   C987      1.0  0.69041  0.18266  0.18816  1.0000
  C   C988      1.0  0.71093  0.17997  0.19091  1.0000
  C   C989      1.0  0.72763  0.17032  0.17711  1.0000
  C   C990      1.0  0.72391  0.16341  0.16061  1.0000
  H   H1573     1.0  0.67097  0.17935  0.16853  1.0000
  H   H1574     1.0  0.67748  0.19032  0.19862  1.0000
  H   H1575     1.0  0.60963  0.48137  0.23502  1.0000
  N   N101      1.0  0.57238  0.27818  0.47704  1.0000
  C   C991      1.0  0.62074  0.24975  0.33280  1.0000
  C   C992      1.0  0.63794  0.23549  0.32455  1.0000
  C   C993      1.0  0.63804  0.22856  0.30655  1.0000
  C   C994      1.0  0.62077  0.23553  0.29681  1.0000
  C   C995      1.0  0.60346  0.24976  0.30504  1.0000
  C   C996      1.0  0.60344  0.25685  0.32306  1.0000
  H   H1576     1.0  0.65125  0.22969  0.33207  1.0000
  H   H1577     1.0  0.65154  0.21773  0.30034  1.0000
  H   H1578     1.0  0.58998  0.25507  0.29769  1.0000
  H   H1579     1.0  0.58995  0.26753  0.32950  1.0000
  Fe  Fe212     1.0  0.68550  0.42916  0.34577  1.0000
  H   H1580     1.0  0.50676  0.19532  0.06280  1.0000
  H   H1581     1.0  0.73265  0.17282  0.09617  1.0000
  C   C997      1.0  0.57936  0.33763  0.43536  1.0000
  C   C998      1.0  0.55890  0.34644  0.43248  1.0000
  H   H1582     1.0  0.71486  0.22874  0.22381  1.0000
  C   C999      1.0  0.63964  0.28176  0.48722  1.0000
  H   H1583     1.0  0.72633  0.21223  0.26777  1.0000
  H   H1584     1.0  0.55431  0.34603  0.41834  1.0000
  C   C1000     1.0  0.70614  0.45144  0.37453  1.0000
  C   C1001     1.0  0.59921  0.16561  0.08915  1.0000
  C   C1002     1.0  0.59218  0.14751  0.08923  1.0000
  C   C1003     1.0  0.57892  0.14806  0.07574  1.0000
  C   C1004     1.0  0.57220  0.16686  0.06229  1.0000
  H   H1585     1.0  0.62641  0.33515  0.47786  1.0000
  Fe  Fe213     1.0  0.68755  0.41433  0.30584  1.0000
  H   H1586     1.0  0.59695  0.13298  0.09984  1.0000
  H   H1587     1.0  0.57358  0.13403  0.07606  1.0000
  H   H1588     1.0  0.71817  0.32312  0.35648  1.0000
  C   C1005     1.0  0.68172  0.09753  0.21572  1.0000
  C   C1006     1.0  0.67973  0.11905  0.21463  1.0000
  C   C1007     1.0  0.67509  0.12690  0.23314  1.0000
  C   C1008     1.0  0.67192  0.11334  0.25276  1.0000
  C   C1009     1.0  0.67396  0.09188  0.25379  1.0000
  C   C1010     1.0  0.67914  0.08400  0.23534  1.0000
  H   H1589     1.0  0.68224  0.12962  0.19953  1.0000
  H   H1590     1.0  0.67405  0.14339  0.23212  1.0000
  H   H1591     1.0  0.67164  0.08124  0.26886  1.0000
  H   H1592     1.0  0.68090  0.06741  0.23644  1.0000
  S   S421      1.0  0.73153  0.04345  0.20972  1.0000
  C   C1011     1.0  0.49850  0.35832  0.36365  1.0000
  C   C1012     1.0  0.73314  0.34157  0.10319  1.0000
  H   H1593     1.0  0.66453  0.31509  0.10802  1.0000
  H   H1594     1.0  0.73321  0.03595  0.29720  1.0000
  H   H1595     1.0  0.60592  0.38897  0.41903  1.0000
  H   H1596     1.0  0.62110  0.12388  0.14451  1.0000
  H   H1597     1.0  0.58300  0.24797  0.46830  1.0000
  H   H1598     1.0  0.73170  0.21525  0.00595  1.0000
  C   C1013     1.0  0.72065  0.15957  0.34339  1.0000
  C   C1014     1.0  0.71859  0.16428  0.32239  1.0000
  H   H1599     1.0  0.72963  0.19706  0.24809  1.0000
  H   H1600     1.0  0.58255  0.00081  0.14359  1.0000
  H   H1601     1.0  0.74351  0.16835  0.17908  1.0000
  H   H1602     1.0  0.71258  0.17061  0.35349  1.0000
  H   H1603     1.0  0.60585  0.39327  0.39151  1.0000
  C   C1015     1.0  0.71119  0.47353  0.39597  1.0000
  S   S422      1.0  0.69910  0.44058  0.31196  1.0000
  H   H1604     1.0  0.57414  0.19960  0.05188  1.0000
  C   C1016     1.0  0.67533  0.30938  0.11928  1.0000
  H   H1605     1.0  0.68546  0.30415  0.02516  1.0000
  C   C1017     1.0  0.52059  0.39228  0.29937  1.0000
  C   C1018     1.0  0.52300  0.37096  0.30900  1.0000
  C   C1019     1.0  0.54199  0.36008  0.31503  1.0000
  C   C1020     1.0  0.55872  0.37041  0.31076  1.0000
  C   C1021     1.0  0.55646  0.39151  0.30056  1.0000
  C   C1022     1.0  0.53731  0.40255  0.29523  1.0000
  H   H1606     1.0  0.50858  0.42613  0.24382  1.0000
  H   H1607     1.0  0.54377  0.34369  0.32273  1.0000
  H   H1608     1.0  0.56944  0.39945  0.29717  1.0000
  H   H1609     1.0  0.53562  0.41898  0.28777  1.0000
  C   C1023     1.0  0.58025  0.42128  0.33099  1.0000
  H   H1610     1.0  0.58005  0.40466  0.33422  1.0000
  H   H1611     1.0  0.55386  0.43077  0.31543  1.0000
  C   C1024     1.0  0.67005  0.25817  0.18209  1.0000
  C   C1025     1.0  0.67438  0.23965  0.17440  1.0000
  C   C1026     1.0  0.66258  0.23743  0.16084  1.0000
  C   C1027     1.0  0.64622  0.25371  0.15510  1.0000
  C   C1028     1.0  0.64239  0.27257  0.16215  1.0000
  C   C1029     1.0  0.65449  0.27493  0.17539  1.0000
  H   H1612     1.0  0.68647  0.22671  0.17953  1.0000
  H   H1613     1.0  0.66564  0.22279  0.15555  1.0000
  H   H1614     1.0  0.62973  0.28522  0.15775  1.0000
  H   H1615     1.0  0.65090  0.28921  0.18144  1.0000
  C   C1030     1.0  0.67420  0.36056  0.25382  1.0000
  C   C1031     1.0  0.69566  0.35370  0.25344  1.0000
  C   C1032     1.0  0.70568  0.36289  0.26377  1.0000
  C   C1033     1.0  0.69440  0.37915  0.27427  1.0000
  C   C1034     1.0  0.67280  0.38542  0.27531  1.0000
  C   C1035     1.0  0.66273  0.37612  0.26513  1.0000
  H   H1616     1.0  0.70449  0.34129  0.24522  1.0000
  H   H1617     1.0  0.72224  0.35753  0.26346  1.0000
  H   H1618     1.0  0.66384  0.39762  0.28367  1.0000
  H   H1619     1.0  0.64605  0.38129  0.26574  1.0000
  H   H1620     1.0  0.51842  0.47490  0.34434  1.0000
  H   H1621     1.0  0.70187  0.24731  0.37038  1.0000
  H   H1622     1.0  0.67989  0.32337  0.12168  1.0000
  H   H1623     1.0  0.66638  0.30227  0.13461  1.0000
  C   C1036     1.0  0.72245  0.23805  0.23022  1.0000
  S   S423      1.0  0.70740  0.37100  0.46016  1.0000
  C   C1037     1.0  0.56654  0.45734  0.31514  1.0000
  C   C1038     1.0  0.57087  0.04097  0.12466  1.0000
  H   H1624     1.0  0.56020  0.01318  0.16043  1.0000
  C   C1039     1.0  0.70987  0.28728  0.04208  1.0000
  S   S424      1.0  0.72765  0.99403  0.21546  1.0000
  H   H1625     1.0  0.71600  0.15979  0.08917  1.0000
  C   C1040     1.0  0.69107  0.25248  0.04916  1.0000
  C   C1041     1.0  0.68272  0.27185  0.03759  1.0000
  H   H1626     1.0  0.51526  0.35641  0.35565  1.0000
  S   S425      1.0  0.61609  0.41019  0.34758  1.0000
  H   H1627     1.0  0.56496  0.02666  0.09390  1.0000
  H   H1628     1.0  0.52489  0.18434  0.01949  1.0000
  H   H1629     1.0  0.60902  0.24635  0.18560  1.0000
  Fe  Fe214     1.0  0.73968  0.01939  0.18977  1.0000
  Fe  Fe215     1.0  0.56103  0.11167  0.00668  1.0000
  H   H1630     1.0  0.53583  0.30954  0.42279  1.0000
  C   C1042     1.0  0.50421  0.43910  0.23058  1.0000
  C   C1043     1.0  0.70766  0.28695  0.12706  1.0000
  Fe  Fe216     1.0  0.66652  0.45913  0.31073  1.0000
  N   N102      1.0  0.69391  0.29411  0.11152  1.0000
  Fe  Fe217     1.0  0.49441  0.43959  0.29602  1.0000
  H   H1631     1.0  0.62742  0.47694  0.32323  1.0000
  H   H1632     1.0  0.73453  0.24306  0.02207  1.0000
  H   H1633     1.0  0.71515  0.31390  0.42261  1.0000
  S   S426      1.0  0.65369  0.44918  0.34520  1.0000
  H   H1634     1.0  0.69218  0.23336  0.31520  1.0000
  C   C1044     1.0  0.51905  0.31502  0.42627  1.0000
  Fe  Fe218     1.0  0.51464  0.12613  0.02225  1.0000
  C   C1045     1.0  0.67769  0.45671  0.46699  1.0000
  C   C1046     1.0  0.71161  0.25432  0.99209  1.0000
  H   H1635     1.0  0.67562  0.40497  0.47572  1.0000
  H   H1636     1.0  0.63388  0.40328  0.48512  1.0000
  N   N103      1.0  0.65110  0.12226  0.15130  1.0000
  H   H1637     1.0  0.70458  0.11783  0.29838  1.0000
  H   H1638     1.0  0.72939  0.12670  0.11257  1.0000
  H   H1639     1.0  0.50387  0.00897  0.08955  1.0000
  C   C1047     1.0  0.49929  0.18498  0.05758  1.0000
  H   H1640     1.0  0.67930  0.08359  0.30496  1.0000
  H   H1641     1.0  0.58818  0.03547  0.12175  1.0000
  H   H1642     1.0  0.70595  0.35146  0.31647  1.0000
  S   S427      1.0  0.51203  0.46216  0.27191  1.0000
  H   H1643     1.0  0.62688  0.34358  0.42537  1.0000
  H   H1644     1.0  0.73395  0.13639  0.36781  1.0000
  H   H1645     1.0  0.51909  0.32549  0.45416  1.0000
  C   C1048     1.0  0.62810  0.12940  0.15500  1.0000
  H   H1646     1.0  0.65030  0.09258  0.17289  1.0000
  H   H1647     1.0  0.64988  0.09216  0.14628  1.0000
  H   H1648     1.0  0.62361  0.14689  0.15166  1.0000
  H   H1649     1.0  0.62068  0.12357  0.17155  1.0000
  H   H1650     1.0  0.68741  0.99649  0.01169  1.0000
  H   H1651     1.0  0.55510  0.25740  0.47228  1.0000
  C   C1049     1.0  0.53720  0.03148  0.13096  1.0000
  C   C1050     1.0  0.69729  0.11067  0.31455  1.0000
  S   S428      1.0  0.72204  0.30899  0.03573  1.0000
  Fe  Fe219     1.0  0.71727  0.01931  0.23471  1.0000
  H   H1652     1.0  0.63504  0.23085  0.23171  1.0000
  C   C1051     1.0  0.74190  0.25129  0.00649  1.0000
  H   H1653     1.0  0.58205  0.48045  0.31786  1.0000
  S   S429      1.0  0.66113  0.35707  0.47645  1.0000
  C   C1052     1.0  0.50030  0.06885  0.08287  1.0000
  H   H1654     1.0  0.70710  0.27137  0.99258  1.0000
  H   H1655     1.0  0.71518  0.46188  0.34111  1.0000
  H   H1656     1.0  0.65055  0.26911  0.48058  1.0000
  C   C1053     1.0  0.73201  0.16326  0.08506  1.0000
  H   H1657     1.0  0.71841  0.32407  0.31945  1.0000
  C   C1054     1.0  0.72160  0.33926  0.35176  1.0000
  H   H1658     1.0  0.71280  0.30040  0.12984  1.0000
  H   H1659     1.0  0.61308  0.20396  0.24441  1.0000
  S   S430      1.0  0.72185  0.01918  0.26707  1.0000
  H   H1660     1.0  0.53977  0.29302  0.47965  1.0000
  H   H1661     1.0  0.72551  0.25198  0.21765  1.0000
  H   H1662     1.0  0.62784  0.46341  0.26496  1.0000
  C   C1055     1.0  0.59283  0.18432  0.07539  1.0000
  H   H1663     1.0  0.59803  0.19839  0.07520  1.0000
  H   H1664     1.0  0.63292  0.24915  0.20767  1.0000
  H   H1665     1.0  0.73052  0.34070  0.36306  1.0000
  H   H1666     1.0  0.65403  0.12415  0.11825  1.0000
  C   C1056     1.0  0.65976  0.13056  0.16499  1.0000
  H   H1667     1.0  0.62226  0.21963  0.18578  1.0000
  Fe  Fe220     1.0  0.54138  0.09518  0.05132  1.0000
  H   H1668     1.0  0.52235  0.37422  0.38023  1.0000
  C   C1057     1.0  0.50963  0.32410  0.44394  1.0000
  H   H1669     1.0  0.65351  0.12473  0.18190  1.0000
  H   H1670     1.0  0.56711  0.05364  0.11098  1.0000
  S   S431      1.0  0.55424  0.16870  0.04615  1.0000
  H   H1671     1.0  0.72917  0.99354  0.02199  1.0000
  H   H1672     1.0  0.59624  0.24134  0.24335  1.0000
  H   H1673     1.0  0.62386  0.19448  0.22037  1.0000
  H   H1674     1.0  0.56614  0.04818  0.13878  1.0000
  H   H1675     1.0  0.50097  0.38753  0.39731  1.0000
  H   H1676     1.0  0.73191  0.26634  0.06014  1.0000
  H   H1677     1.0  0.52073  0.20932  0.02625  1.0000
  H   H1678     1.0  0.73799  0.26842  0.00663  1.0000
  N   N104      1.0  0.70344  0.08746  0.31861  1.0000
  H   H1679     1.0  0.65340  0.34613  0.41746  1.0000
  S   S432      1.0  0.65620  0.43416  0.30123  1.0000
  H   H1680     1.0  0.67858  0.26772  0.12338  1.0000
  H   H1681     1.0  0.59596  0.20179  0.22878  1.0000
  H   H1682     1.0  0.51069  0.16982  0.05731  1.0000
  H   H1683     1.0  0.70110  0.06181  0.30590  1.0000
  N   N105      1.0  0.63229  0.37083  0.40139  1.0000
  H   H1684     1.0  0.72075  0.35020  0.09489  1.0000
  C   C1058     1.0  0.63217  0.23266  0.21573  1.0000
  C   C1059     1.0  0.63671  0.35993  0.38368  1.0000
  C   C1060     1.0  0.63713  0.35532  0.42036  1.0000
  H   H1685     1.0  0.68413  0.20973  0.34924  1.0000
  H   H1686     1.0  0.70322  0.24577  0.00700  1.0000
  C   C1061     1.0  0.72796  0.31003  0.40994  1.0000
  C   C1062     1.0  0.56545  0.43602  0.32033  1.0000
  C   C1063     1.0  0.61113  0.20602  0.22795  1.0000
  C   C1064     1.0  0.59591  0.42804  0.33646  1.0000
  H   H1687     1.0  0.65343  0.35204  0.38021  1.0000
  H   H1688     1.0  0.69947  0.27911  0.14253  1.0000
  S   S433      1.0  0.55055  0.47624  0.29953  1.0000
  C   C1065     1.0  0.71800  0.26803  0.05414  1.0000
  C   C1066     1.0  0.73038  0.39601  0.40796  1.0000
  N   N106      1.0  0.56009  0.02349  0.12738  1.0000
  N   N107      1.0  0.69803  0.23666  0.34412  1.0000
  C   C1067     1.0  0.71973  0.22450  0.34059  1.0000
  C   C1068     1.0  0.68383  0.22260  0.35716  1.0000
  C   C1069     1.0  0.69166  0.24586  0.32368  1.0000
  C   C1070     1.0  0.69689  0.25367  0.35500  1.0000
  H   H1689     1.0  0.73087  0.23475  0.33111  1.0000
  H   H1690     1.0  0.70200  0.11741  0.32580  1.0000
  H   H1691     1.0  0.52858  0.01896  0.13198  1.0000
  H   H1692     1.0  0.62249  0.47546  0.28720  1.0000
  H   H1693     1.0  0.51804  0.47038  0.37195  1.0000
  C   C1071     1.0  0.70837  0.25070  0.05799  1.0000
  H   H1694     1.0  0.73458  0.08739  0.30015  1.0000
  H   H1695     1.0  0.67677  0.28072  0.09688  1.0000
  H   H1696     1.0  0.70091  0.26411  0.10249  1.0000
  H   H1697     1.0  0.59521  0.29063  0.45129  1.0000
  H   H1698     1.0  0.73539  0.37656  0.19700  1.0000
  H   H1699     1.0  0.60100  0.33172  0.45587  1.0000
  H   H1700     1.0  0.63305  0.37104  0.36911  1.0000
  C   C1072     1.0  0.64535  0.38690  0.39614  1.0000
  C   C1073     1.0  0.70539  0.30434  0.09129  1.0000
  C   C1074     1.0  0.50667  0.31291  0.41331  1.0000
  H   H1701     1.0  0.62712  0.34770  0.38716  1.0000
  C   C1075     1.0  0.69337  0.07877  0.34023  1.0000
  S   S434      1.0  0.70424  0.32111  0.47013  1.0000
  S   S435      1.0  0.66013  0.41055  0.43807  1.0000
  H   H1702     1.0  0.50923  0.45320  0.23200  1.0000
  H   H1703     1.0  0.71032  0.31837  0.09288  1.0000
  H   H1704     1.0  0.64543  0.22214  0.20744  1.0000
  C   C1076     1.0  0.51304  0.19900  0.02127  1.0000
  C   C1077     1.0  0.59475  0.24258  0.22691  1.0000
  H   H1705     1.0  0.49663  0.34343  0.37513  1.0000
  H   H1706     1.0  0.64242  0.39545  0.40916  1.0000
  H   H1707     1.0  0.59430  0.22580  0.19430  1.0000
  C   C1078     1.0  0.65641  0.09902  0.15607  1.0000
  C   C1079     1.0  0.54419  0.35564  0.44817  1.0000
  N   N108      1.0  0.61180  0.22778  0.21631  1.0000
  Fe  Fe221     1.0  0.64604  0.42257  0.33583  1.0000
  H   H1708     1.0  0.59498  0.25917  0.21864  1.0000
  C   C1080     1.0  0.60919  0.22993  0.19460  1.0000
  S   S436      1.0  0.54294  0.06499  0.07505  1.0000
  S   S437      1.0  0.65844  0.30839  0.45413  1.0000
  Fe  Fe222     1.0  0.51991  0.46908  0.29956  1.0000
  C   C1081     1.0  0.71934  0.48702  0.37787  1.0000
  C   C1082     1.0  0.58515  0.33837  0.45372  1.0000
  N   N109      1.0  0.62690  0.31262  0.28702  1.0000
  C   C1083     1.0  0.63409  0.31083  0.26474  1.0000
  C   C1084     1.0  0.63790  0.29418  0.30021  1.0000
  C   C1085     1.0  0.60412  0.31340  0.29320  1.0000
  C   C1086     1.0  0.63147  0.33203  0.28996  1.0000
  H   H1709     1.0  0.62679  0.32495  0.25423  1.0000
  H   H1710     1.0  0.63021  0.29674  0.26186  1.0000
  H   H1711     1.0  0.65134  0.30947  0.25976  1.0000
  H   H1712     1.0  0.63211  0.29445  0.31724  1.0000
  H   H1713     1.0  0.63551  0.27926  0.29763  1.0000
  H   H1714     1.0  0.65504  0.29364  0.29654  1.0000
  H   H1715     1.0  0.59830  0.31474  0.30990  1.0000
  H   H1716     1.0  0.60000  0.29901  0.29131  1.0000
  H   H1717     1.0  0.59531  0.32735  0.28377  1.0000
  H   H1718     1.0  0.64851  0.33207  0.28543  1.0000
  H   H1719     1.0  0.62607  0.33392  0.30659  1.0000
  H   H1720     1.0  0.62344  0.34631  0.28020  1.0000
  C   C1087     1.0  0.66645  0.42837  0.44942  1.0000
  Fe  Fe223     1.0  0.67720  0.37799  0.44911  1.0000
  S   S438      1.0  0.53468  0.09442  0.02065  1.0000
  H   H1721     1.0  0.67369  0.09318  0.15322  1.0000
  H   H1722     1.0  0.70225  0.25629  0.31329  1.0000
  H   H1723     1.0  0.57475  0.34689  0.48407  1.0000
  Fe  Fe224     1.0  0.71676  0.34453  0.44252  1.0000
  H   H1724     1.0  0.66233  0.37978  0.39305  1.0000
  C   C1088     1.0  0.67019  0.46375  0.44829  1.0000
  C   C1089     1.0  0.64012  0.30265  0.47713  1.0000
  H   H1725     1.0  0.53613  0.02327  0.07994  1.0000
  H   H1726     1.0  0.55786  0.00248  0.10893  1.0000
  H   H1727     1.0  0.73694  0.15604  0.15002  1.0000
  H   H1728     1.0  0.73156  0.06374  0.31940  1.0000
  C   C1090     1.0  0.74114  0.13086  0.31740  1.0000
  C   C1091     1.0  0.72895  0.14996  0.30942  1.0000
  H   H1729     1.0  0.58469  0.48510  0.25273  1.0000
  H   H1730     1.0  0.69900  0.44505  0.40829  1.0000
  H   H1731     1.0  0.71243  0.29006  0.40120  1.0000
  H   H1732     1.0  0.67755  0.12544  0.12582  1.0000
  H   H1733     1.0  0.60742  0.45446  0.33758  1.0000
  S   S439      1.0  0.68802  0.35407  0.42875  1.0000
  H   H1734     1.0  0.49931  0.08553  0.08117  1.0000
  S   S440      1.0  0.68574  0.02992  0.22566  1.0000
  C   C1092     1.0  0.73265  0.14024  0.35148  1.0000
  C   C1093     1.0  0.59604  0.44939  0.33231  1.0000
  C   C1094     1.0  0.66016  0.13009  0.12910  1.0000
  H   H1735     1.0  0.65613  0.14802  0.16190  1.0000
  H   H1736     1.0  0.50959  0.20671  0.00546  1.0000
  C   C1095     1.0  0.60994  0.38114  0.40536  1.0000
  H   H1737     1.0  0.73209  0.08706  0.32752  1.0000
  S   S441      1.0  0.69962  0.42804  0.37308  1.0000
  C   C1096     1.0  0.54976  0.35542  0.46697  1.0000
  H   H1738     1.0  0.55635  0.30918  0.48175  1.0000
  H   H1739     1.0  0.65611  0.14750  0.12503  1.0000
  S   S442      1.0  0.71059  0.03131  0.17640  1.0000
  C   C1097     1.0  0.52481  0.47899  0.35623  1.0000
  C   C1098     1.0  0.56698  0.01443  0.10826  1.0000
  H   H1740     1.0  0.72708  0.38827  0.23060  1.0000
  H   H1741     1.0  0.67713  0.12563  0.16242  1.0000
  C   C1099     1.0  0.72650  0.29634  0.39787  1.0000
  H   H1742     1.0  0.71783  0.09722  0.24345  1.0000
  H   H1743     1.0  0.53277  0.04454  0.11796  1.0000
  H   H1744     1.0  0.57913  0.23941  0.22759  1.0000
  C   C1100     1.0  0.74308  0.29076  0.38162  1.0000
  H   H1745     1.0  0.72498  0.21699  0.35566  1.0000
  C   C1101     1.0  0.73945  0.22375  0.99057  1.0000
  H   H1746     1.0  0.68002  0.11598  0.31601  1.0000
  S   S443      1.0  0.54057  0.14364  0.00631  1.0000
  C   C1102     1.0  0.72136  0.34034  0.31561  1.0000
  C   C1103     1.0  0.69661  0.07926  0.30348  1.0000
  H   H1747     1.0  0.66731  0.23135  0.36030  1.0000
  H   H1748     1.0  0.72804  0.15381  0.29308  1.0000
  H   H1749     1.0  0.60610  0.27050  0.47106  1.0000
  H   H1750     1.0  0.59962  0.36961  0.40866  1.0000
  C   C1104     1.0  0.50585  0.37435  0.38871  1.0000
  C   C1105     1.0  0.56535  0.00707  0.14564  1.0000
  C   C1106     1.0  0.73711  0.20716  0.25358  1.0000
  H   H1751     1.0  0.71084  0.24392  0.24352  1.0000
  C   C1107     1.0  0.72069  0.48275  0.35810  1.0000
  H   H1752     1.0  0.63514  0.36296  0.43383  1.0000
  H   H1753     1.0  0.71975  0.29350  0.08506  1.0000
  S   S444      1.0  0.51805  0.30230  0.39079  1.0000
  C   C1108     1.0  0.71386  0.46516  0.35641  1.0000
  H   H1754     1.0  0.71504  0.23564  0.06671  1.0000
  H   H1755     1.0  0.74037  0.34950  0.22814  1.0000
  H   H1756     1.0  0.72131  0.21185  0.33190  1.0000
  C   C1109     1.0  0.66411  0.44967  0.43977  1.0000
  N   N110      1.0  0.74192  0.22539  0.23685  1.0000
  H   H1757     1.0  0.64198  0.39888  0.38191  1.0000
  H   H1758     1.0  0.68827  0.21515  0.37262  1.0000
  H   H1759     1.0  0.65839  0.45510  0.42524  1.0000
  H   H1760     1.0  0.69103  0.99450  0.03778  1.0000
  H   H1761     1.0  0.72219  0.37665  0.32545  1.0000
  C   C1110     1.0  0.68726  0.27587  0.10845  1.0000
  Fe  Fe225     1.0  0.69759  0.00742  0.20341  1.0000
  H   H1762     1.0  0.70359  0.08577  0.28697  1.0000
  C   C1111     1.0  0.57031  0.34693  0.46967  1.0000
  H   H1763     1.0  0.60083  0.03391  0.99627  1.0000
  H   H1764     1.0  0.70736  0.26464  0.34556  1.0000
  H   H1765     1.0  0.71011  0.47661  0.41130  1.0000
  H   H1766     1.0  0.53136  0.03767  0.14569  1.0000
  C   C1112     1.0  0.61571  0.47400  0.27427  1.0000
  H   H1767     1.0  0.72199  0.27560  0.12168  1.0000
  H   H1768     1.0  0.74089  0.24450  0.25861  1.0000
  H   H1769     1.0  0.71851  0.12460  0.23366  1.0000
  H   H1770     1.0  0.49660  0.05189  0.02297  1.0000
  H   H1771     1.0  0.50568  0.35943  0.40066  1.0000
  H   H1772     1.0  0.69830  0.08456  0.35204  1.0000
  C   C1113     1.0  0.72643  0.08115  0.31629  1.0000
  H   H1773     1.0  0.55680  0.30416  0.45661  1.0000
  C   C1114     1.0  0.67908  0.43562  0.47712  1.0000
  C   C1115     1.0  0.59887  0.49205  0.24516  1.0000
  C   C1116     1.0  0.52107  0.03376  0.08246  1.0000
  C   C1117     1.0  0.51988  0.05535  0.08004  1.0000
  H   H1774     1.0  0.73102  0.12702  0.07524  1.0000
  H   H1775     1.0  0.58382  0.00660  0.10610  1.0000
  H   H1776     1.0  0.74242  0.32440  0.15249  1.0000
  H   H1777     1.0  0.68066  0.26306  0.35812  1.0000
  H   H1778     1.0  0.67599  0.08337  0.34255  1.0000
  H   H1779     1.0  0.67537  0.25525  0.32576  1.0000
  H   H1780     1.0  0.69755  0.06127  0.34381  1.0000
  S   S445      1.0  0.50512  0.44434  0.32315  1.0000
  N   N111      1.0  0.73347  0.34319  0.32989  1.0000
  S   S446      1.0  0.49645  0.40652  0.29341  1.0000
  H   H1781     1.0  0.72906  0.37932  0.41416  1.0000
  H   H1782     1.0  0.70639  0.35059  0.35378  1.0000
  H   H1783     1.0  0.73716  0.43195  0.41442  1.0000
  S   S447      1.0  0.53076  0.36498  0.48727  1.0000
  H   H1784     1.0  0.72537  0.09106  0.20709  1.0000
  C   C1118     1.0  0.55559  0.29693  0.47361  1.0000
  C   C1119     1.0  0.72926  0.33776  0.12510  1.0000
  S   S448      1.0  0.73990  0.27472  0.36592  1.0000
  N   N112      1.0  0.73450  0.24670  0.98951  1.0000
  H   H1785     1.0  0.72963  0.39937  0.39109  1.0000
  H   H1786     1.0  0.60234  0.46587  0.28148  1.0000
  H   H1787     1.0  0.71625  0.40589  0.41603  1.0000
  C   C1120     1.0  0.57049  0.26230  0.46621  1.0000
  H   H1788     1.0  0.73794  0.40110  0.44338  1.0000
  C   C1121     1.0  0.72840  0.10876  0.23792  1.0000
  C   C1122     1.0  0.73719  0.36492  0.32410  1.0000
  H   H1789     1.0  0.51354  0.43446  0.21567  1.0000
  H   H1790     1.0  0.50948  0.39587  0.34862  1.0000
  C   C1123     1.0  0.74300  0.12592  0.33841  1.0000
  H   H1791     1.0  0.57182  0.26860  0.44899  1.0000
  H   H1792     1.0  0.72495  0.11871  0.19762  1.0000
  C   C1124     1.0  0.73515  0.10324  0.20250  1.0000
  C   C1125     1.0  0.59302  0.28416  0.46849  1.0000
  H   H1793     1.0  0.63296  0.47826  0.48620  1.0000
  H   H1794     1.0  0.72991  0.34326  0.29898  1.0000
  H   H1795     1.0  0.73519  0.10888  0.25136  1.0000
  H   H1796     1.0  0.73393  0.17324  0.06896  1.0000
  H   H1797     1.0  0.55784  0.99344  0.14775  1.0000
  H   H1798     1.0  0.72482  0.99395  0.99665  1.0000
  C   C1126     1.0  0.62620  0.31900  0.48574  1.0000
  N   N113      1.0  0.49396  0.19448  0.03672  1.0000
  C   C1127     1.0  0.74377  0.38916  0.22860  1.0000
  H   H1799     1.0  0.49504  0.40284  0.47236  1.0000
  H   H1800     1.0  0.72089  0.49189  0.48627  1.0000
  S   S449      1.0  0.66793  0.07822  0.92678  1.0000
  H   H1801     1.0  0.53673  0.03222  0.77357  1.0000
  C   C1128     1.0  0.69413  0.49089  0.65997  1.0000
  H   H1802     1.0  0.67375  0.36323  0.55880  1.0000
  N   N114      1.0  0.65057  0.01746  0.85189  1.0000
  C   C1129     1.0  0.52885  0.13978  0.91991  1.0000
  H   H1803     1.0  0.63086  0.04689  0.85749  1.0000
  H   H1804     1.0  0.70022  0.46279  0.74055  1.0000
  C   C1130     1.0  0.55816  0.08540  0.96868  1.0000
  H   H1805     1.0  0.52162  0.18212  0.74154  1.0000
  H   H1806     1.0  0.60829  0.01970  0.95444  1.0000
  H   H1807     1.0  0.65332  0.33964  0.55679  1.0000
  H   H1808     1.0  0.59318  0.45475  0.55085  1.0000
  H   H1809     1.0  0.51246  0.11101  0.98227  1.0000
  N   N115      1.0  0.52081  0.05717  0.79009  1.0000
  H   H1810     1.0  0.70210  0.48649  0.72110  1.0000
  C   C1131     1.0  0.50167  0.07383  0.79029  1.0000
  Fe  Fe226     1.0  0.55909  0.08714  0.88312  1.0000
  S   S450      1.0  0.57242  0.11625  0.86897  1.0000
  S   S451      1.0  0.54516  0.07609  0.91684  1.0000
  Fe  Fe227     1.0  0.56651  0.07442  0.84141  1.0000
  S   S452      1.0  0.58053  0.10222  0.82327  1.0000
  S   S453      1.0  0.56142  0.04864  0.82907  1.0000
  Fe  Fe228     1.0  0.59731  0.09524  0.85007  1.0000
  S   S454      1.0  0.63222  0.09130  0.84483  1.0000
  Fe  Fe229     1.0  0.55431  0.12032  0.84390  1.0000
  S   S455      1.0  0.53180  0.15024  0.83457  1.0000
  S   S456      1.0  0.58525  0.06587  0.86644  1.0000
  S   S457      1.0  0.53897  0.09289  0.85966  1.0000
  H   H1811     1.0  0.69040  0.47253  0.52316  1.0000
  C   C1132     1.0  0.49679  0.11303  0.97969  1.0000
  H   H1812     1.0  0.49484  0.37902  0.51662  1.0000
  C   C1133     1.0  0.49822  0.15851  0.81550  1.0000
  C   C1134     1.0  0.62235  0.43180  0.50988  1.0000
  H   H1813     1.0  0.63656  0.28849  0.57899  1.0000
  N   N116      1.0  0.50240  0.04753  0.90221  1.0000
  H   H1814     1.0  0.60739  0.44074  0.50510  1.0000
  C   C1135     1.0  0.64376  0.29097  0.56195  1.0000
  C   C1136     1.0  0.63025  0.48881  0.49743  1.0000
  H   H1815     1.0  0.63625  0.01729  0.94891  1.0000
  Fe  Fe230     1.0  0.56585  0.31374  0.54284  1.0000
  S   S458      1.0  0.56553  0.34818  0.53043  1.0000
  S   S459      1.0  0.59427  0.28796  0.53882  1.0000
  Fe  Fe231     1.0  0.51922  0.31960  0.55938  1.0000
  S   S460      1.0  0.51489  0.35463  0.54874  1.0000
  C   C1137     1.0  0.51194  0.12453  0.90143  1.0000
  Fe  Fe232     1.0  0.53710  0.34793  0.51912  1.0000
  H   H1816     1.0  0.50464  0.02611  0.93174  1.0000
  Fe  Fe233     1.0  0.54373  0.35226  0.56088  1.0000
  S   S461      1.0  0.54424  0.37924  0.57513  1.0000
  S   S462      1.0  0.53925  0.31315  0.52873  1.0000
  S   S463      1.0  0.54615  0.31765  0.57457  1.0000
  H   H1817     1.0  0.74035  0.47473  0.53645  1.0000
  C   C1138     1.0  0.66858  0.02208  0.85747  1.0000
  H   H1818     1.0  0.62239  0.03454  0.84110  1.0000
  H   H1819     1.0  0.54469  0.13329  0.91143  1.0000
  H   H1820     1.0  0.61605  0.07415  0.94840  1.0000
  H   H1821     1.0  0.50623  0.03505  0.81512  1.0000
  H   H1822     1.0  0.62550  0.26111  0.51430  1.0000
  H   H1823     1.0  0.53888  0.07590  0.79703  1.0000
  Fe  Fe234     1.0  0.64667  0.45658  0.60774  1.0000
  S   S464      1.0  0.65484  0.47155  0.57363  1.0000
  H   H1824     1.0  0.55346  0.08036  0.98534  1.0000
  Fe  Fe235     1.0  0.63229  0.42096  0.59642  1.0000
  S   S465      1.0  0.63856  0.43469  0.56201  1.0000
  S   S466      1.0  0.62334  0.38915  0.60394  1.0000
  Fe  Fe236     1.0  0.66823  0.43887  0.56808  1.0000
  S   S467      1.0  0.69704  0.42982  0.54432  1.0000
  Fe  Fe237     1.0  0.62434  0.46563  0.57125  1.0000
  H   H1825     1.0  0.53416  0.03041  0.81142  1.0000
  S   S468      1.0  0.66291  0.42390  0.60233  1.0000
  S   S469      1.0  0.61526  0.45182  0.60543  1.0000
  H   H1826     1.0  0.51848  0.05169  0.82349  1.0000
  C   C1139     1.0  0.69119  0.09125  0.96947  1.0000
  Fe  Fe238     1.0  0.49439  0.47392  0.58247  1.0000
  H   H1827     1.0  0.50796  0.40570  0.59480  1.0000
  H   H1828     1.0  0.49989  0.08327  0.80233  1.0000
  S   S470      1.0  0.52449  0.99388  0.80153  1.0000
  H   H1829     1.0  0.62529  0.00114  0.86664  1.0000
  C   C1140     1.0  0.72366  0.47440  0.53770  1.0000
  H   H1830     1.0  0.52106  0.37275  0.61853  1.0000
  H   H1831     1.0  0.59753  0.06154  0.98554  1.0000
  C   C1141     1.0  0.60461  0.40552  0.53416  1.0000
  C   C1142     1.0  0.69767  0.47201  0.65286  1.0000
  C   C1143     1.0  0.68331  0.46818  0.64282  1.0000
  H   H1832     1.0  0.66347  0.03073  0.87062  1.0000
  H   H1833     1.0  0.50313  0.25507  0.52925  1.0000
  H   H1834     1.0  0.52658  0.04335  0.87478  1.0000
  C   C1144     1.0  0.66491  0.48300  0.64025  1.0000
  H   H1835     1.0  0.68614  0.45346  0.63773  1.0000
  H   H1836     1.0  0.63548  0.05905  0.97650  1.0000
  C   C1145     1.0  0.72681  0.48146  0.50012  1.0000
  C   C1146     1.0  0.56715  0.38206  0.58138  1.0000
  C   C1147     1.0  0.58347  0.36484  0.58488  1.0000
  C   C1148     1.0  0.60080  0.36724  0.59155  1.0000
  C   C1149     1.0  0.60208  0.38694  0.59432  1.0000
  C   C1150     1.0  0.58608  0.40429  0.59010  1.0000
  C   C1151     1.0  0.56856  0.40179  0.58386  1.0000
  H   H1837     1.0  0.58223  0.34956  0.58336  1.0000
  H   H1838     1.0  0.61305  0.35376  0.59501  1.0000
  H   H1839     1.0  0.58685  0.41949  0.59234  1.0000
  H   H1840     1.0  0.55593  0.41517  0.58124  1.0000
  H   H1841     1.0  0.52724  0.11751  0.89252  1.0000
  C   C1152     1.0  0.62165  0.02101  0.96066  1.0000
  C   C1153     1.0  0.50531  0.37433  0.62909  1.0000
  H   H1842     1.0  0.50789  0.11256  0.91579  1.0000
  N   N117      1.0  0.50002  0.20683  0.75556  1.0000
  Fe  Fe239     1.0  0.50706  0.47610  0.53600  1.0000
  H   H1843     1.0  0.53522  0.04800  0.89608  1.0000
  H   H1844     1.0  0.66638  0.45083  0.75305  1.0000
  H   H1845     1.0  0.71152  0.46014  0.65534  1.0000
  H   H1846     1.0  0.64372  0.40282  0.53751  1.0000
  H   H1847     1.0  0.62284  0.00863  0.97507  1.0000
  H   H1848     1.0  0.52311  0.05506  0.75810  1.0000
  H   H1849     1.0  0.67088  0.31493  0.56164  1.0000
  H   H1850     1.0  0.65614  0.40103  0.51100  1.0000
  C   C1154     1.0  0.51764  0.14560  0.81813  1.0000
  C   C1155     1.0  0.52570  0.12883  0.80767  1.0000
  C   C1156     1.0  0.51455  0.12511  0.79442  1.0000
  C   C1157     1.0  0.51901  0.15938  0.88717  1.0000
  H   H1851     1.0  0.57588  0.00664  0.82189  1.0000
  S   S471      1.0  0.64496  0.47796  0.63021  1.0000
  H   H1852     1.0  0.54071  0.11890  0.80950  1.0000
  H   H1853     1.0  0.52116  0.11252  0.78590  1.0000
  H   H1854     1.0  0.63514  0.28385  0.55425  1.0000
  H   H1855     1.0  0.50000  0.12713  0.89171  1.0000
  C   C1158     1.0  0.55660  0.08390  0.93351  1.0000
  C   C1159     1.0  0.54970  0.07855  0.95520  1.0000
  S   S472      1.0  0.50533  0.47680  0.61033  1.0000
  C   C1160     1.0  0.57334  0.09782  0.96057  1.0000
  C   C1161     1.0  0.58051  0.10284  0.93887  1.0000
  C   C1162     1.0  0.57238  0.09559  0.92538  1.0000
  H   H1856     1.0  0.53787  0.06904  0.96161  1.0000
  H   H1857     1.0  0.67952  0.08853  0.96177  1.0000
  H   H1858     1.0  0.59253  0.11213  0.93252  1.0000
  H   H1859     1.0  0.57851  0.09896  0.90877  1.0000
  S   S473      1.0  0.68928  0.34667  0.52108  1.0000
  C   C1163     1.0  0.72377  0.10252  0.96458  1.0000
  H   H1860     1.0  0.68860  0.11745  0.93234  1.0000
  C   C1164     1.0  0.61142  0.29364  0.51475  1.0000
  H   H1861     1.0  0.51052  0.05140  0.92983  1.0000
  C   C1165     1.0  0.58274  0.46819  0.54374  1.0000
  H   H1862     1.0  0.50292  0.35820  0.63718  1.0000
  H   H1863     1.0  0.60441  0.38849  0.54005  1.0000
  H   H1864     1.0  0.60111  0.32719  0.51076  1.0000
  C   C1166     1.0  0.70478  0.38287  0.51338  1.0000
  C   C1167     1.0  0.70680  0.40107  0.51884  1.0000
  C   C1168     1.0  0.69613  0.40608  0.53827  1.0000
  C   C1169     1.0  0.68419  0.39236  0.55260  1.0000
  N   N118      1.0  0.51303  0.14425  0.90674  1.0000
  H   H1865     1.0  0.71618  0.41157  0.50777  1.0000
  H   H1866     1.0  0.67614  0.39592  0.56778  1.0000
  H   H1867     1.0  0.66995  0.30903  0.52783  1.0000
  S   S474      1.0  0.68220  0.01853  0.92799  1.0000
  C   C1170     1.0  0.49784  0.27752  0.54905  1.0000
  H   H1868     1.0  0.58562  0.04549  0.97620  1.0000
  N   N119      1.0  0.61889  0.04210  0.96517  1.0000
  H   H1869     1.0  0.61941  0.34188  0.54834  1.0000
  N   N120      1.0  0.71529  0.48867  0.51970  1.0000
  C   C1171     1.0  0.63723  0.04337  0.97272  1.0000
  H   H1870     1.0  0.59833  0.48492  0.63151  1.0000
  C   C1172     1.0  0.58540  0.03632  0.81579  1.0000
  C   C1173     1.0  0.58843  0.01518  0.81485  1.0000
  H   H1871     1.0  0.67739  0.03192  0.84389  1.0000
  C   C1174     1.0  0.62437  0.01554  0.79658  1.0000
  C   C1175     1.0  0.62118  0.03691  0.79689  1.0000
  C   C1176     1.0  0.60174  0.04725  0.80671  1.0000
  H   H1872     1.0  0.72458  0.06816  0.94962  1.0000
  H   H1873     1.0  0.49458  0.22653  0.61085  1.0000
  H   H1874     1.0  0.63387  0.04528  0.79007  1.0000
  H   H1875     1.0  0.59948  0.06362  0.80728  1.0000
  N   N121      1.0  0.67113  0.47968  0.73136  1.0000
  C   C1177     1.0  0.68283  0.37379  0.54747  1.0000
  H   H1876     1.0  0.50680  0.21695  0.72191  1.0000
  C   C1178     1.0  0.65802  0.08182  0.90402  1.0000
  C   C1179     1.0  0.66971  0.07209  0.88742  1.0000
  C   C1180     1.0  0.66180  0.07538  0.86916  1.0000
  C   C1181     1.0  0.64179  0.08757  0.86782  1.0000
  C   C1182     1.0  0.62985  0.09680  0.88468  1.0000
  C   C1183     1.0  0.63817  0.09431  0.90256  1.0000
  H   H1877     1.0  0.68511  0.06253  0.88839  1.0000
  H   H1878     1.0  0.67120  0.06853  0.85601  1.0000
  H   H1879     1.0  0.61452  0.10643  0.88364  1.0000
  H   H1880     1.0  0.62918  0.10198  0.91530  1.0000
  H   H1881     1.0  0.71285  0.37927  0.49827  1.0000
  C   C1184     1.0  0.69416  0.47281  0.72657  1.0000
  C   C1185     1.0  0.62057  0.40094  0.49866  1.0000
  N   N122      1.0  0.70857  0.09930  0.95374  1.0000
  H   H1882     1.0  0.55410  0.05457  0.78488  1.0000
  H   H1883     1.0  0.66625  0.01503  0.82015  1.0000
  H   H1884     1.0  0.55489  0.26516  0.50698  1.0000
  H   H1885     1.0  0.51335  0.28094  0.54351  1.0000
  H   H1886     1.0  0.72492  0.46530  0.50048  1.0000
  S   S475      1.0  0.64925  0.00170  0.78690  1.0000
  H   H1887     1.0  0.60268  0.05853  0.94007  1.0000
  H   H1888     1.0  0.62427  0.43834  0.52280  1.0000
  H   H1889     1.0  0.50417  0.37104  0.59070  1.0000
  H   H1890     1.0  0.50764  0.40080  0.50464  1.0000
  C   C1186     1.0  0.71910  0.08390  0.94017  1.0000
  H   H1891     1.0  0.61791  0.48407  0.51106  1.0000
  H   H1892     1.0  0.71462  0.47864  0.55289  1.0000
  C   C1187     1.0  0.63640  0.03739  0.84503  1.0000
  H   H1893     1.0  0.60587  0.40912  0.49295  1.0000
  H   H1894     1.0  0.65167  0.04112  0.96049  1.0000
  S   S476      1.0  0.72754  0.99277  0.88890  1.0000
  H   H1895     1.0  0.50197  0.08499  0.77486  1.0000
  H   H1896     1.0  0.72284  0.45784  0.53853  1.0000
  H   H1897     1.0  0.64336  0.38055  0.52759  1.0000
  Fe  Fe240     1.0  0.72787  0.02361  0.95172  1.0000
  H   H1898     1.0  0.52951  0.02286  0.89757  1.0000
  H   H1899     1.0  0.66567  0.45125  0.72637  1.0000
  H   H1900     1.0  0.56684  0.44960  0.53329  1.0000
  H   H1901     1.0  0.70837  0.08192  0.93093  1.0000
  H   H1902     1.0  0.61192  0.31865  0.54654  1.0000
  H   H1903     1.0  0.64708  0.32087  0.58052  1.0000
  C   C1188     1.0  0.51639  0.21626  0.75861  1.0000
  C   C1189     1.0  0.64223  0.39788  0.52343  1.0000
  H   H1904     1.0  0.61264  0.32274  0.57165  1.0000
  H   H1905     1.0  0.69701  0.07602  0.97957  1.0000
  H   H1906     1.0  0.71646  0.11418  0.97485  1.0000
  H   H1907     1.0  0.50680  0.09664  0.95387  1.0000
  H   H1908     1.0  0.52987  0.15419  0.92462  1.0000
  N   N123      1.0  0.62244  0.40902  0.51653  1.0000
  S   S477      1.0  0.50807  0.44896  0.56329  1.0000
  Fe  Fe241     1.0  0.71669  0.00834  0.91713  1.0000
  N   N124      1.0  0.64284  0.31354  0.55258  1.0000
  C   C1190     1.0  0.66134  0.46101  0.73860  1.0000
  H   H1909     1.0  0.58931  0.41329  0.52953  1.0000
  H   H1910     1.0  0.58265  0.49044  0.59999  1.0000
  H   H1911     1.0  0.63069  0.05518  0.93291  1.0000
  S   S478      1.0  0.72464  0.03888  0.91834  1.0000
  C   C1191     1.0  0.52242  0.04494  0.77406  1.0000
  H   H1912     1.0  0.50762  0.16277  0.87666  1.0000
  S   S479      1.0  0.58450  0.10581  0.97740  1.0000
  C   C1192     1.0  0.61162  0.31446  0.50430  1.0000
  H   H1913     1.0  0.63339  0.01293  0.88378  1.0000
  H   H1914     1.0  0.71287  0.12586  0.92851  1.0000
  H   H1915     1.0  0.64489  0.48579  0.50348  1.0000
  C   C1193     1.0  0.65811  0.00569  0.83468  1.0000
  C   C1194     1.0  0.52437  0.04009  0.89223  1.0000
  H   H1916     1.0  0.52513  0.12795  0.93455  1.0000
  Fe  Fe242     1.0  0.68892  0.00467  0.96006  1.0000
  C   C1195     1.0  0.65286  0.31592  0.53007  1.0000
  H   H1917     1.0  0.65118  0.33274  0.52208  1.0000
  C   C1196     1.0  0.65399  0.32257  0.56343  1.0000
  H   H1918     1.0  0.50882  0.03710  0.77756  1.0000
  H   H1919     1.0  0.50611  0.07918  0.89876  1.0000
  H   H1920     1.0  0.69209  0.13150  0.95035  1.0000
  C   C1197     1.0  0.62074  0.32472  0.55486  1.0000
  C   C1198     1.0  0.53942  0.06680  0.78507  1.0000
  C   C1199     1.0  0.69284  0.48853  0.52252  1.0000
  H   H1921     1.0  0.51430  0.17569  0.76961  1.0000
  H   H1922     1.0  0.63967  0.03112  0.98703  1.0000
  H   H1923     1.0  0.52158  0.20834  0.77368  1.0000
  H   H1924     1.0  0.51056  0.23326  0.75901  1.0000
  H   H1925     1.0  0.64432  0.04734  0.83083  1.0000
  H   H1926     1.0  0.73298  0.08887  0.92878  1.0000
  S   S480      1.0  0.69402  0.03444  0.96513  1.0000
  C   C1200     1.0  0.60798  0.00480  0.80547  1.0000
  H   H1927     1.0  0.64601  0.30786  0.52167  1.0000
  C   C1201     1.0  0.56794  0.46529  0.53373  1.0000
  Fe  Fe243     1.0  0.69033  0.04740  0.93194  1.0000
  C   C1202     1.0  0.69273  0.36921  0.52768  1.0000
  H   H1928     1.0  0.74160  0.27477  0.96785  1.0000
  C   C1203     1.0  0.62552  0.27726  0.50624  1.0000
  H   H1929     1.0  0.68276  0.10253  0.97992  1.0000
  C   C1204     1.0  0.59986  0.04590  0.98151  1.0000
  H   H1930     1.0  0.64395  0.46561  0.74218  1.0000
  H   H1931     1.0  0.67052  0.48294  0.76260  1.0000
  H   H1932     1.0  0.66021  0.28201  0.56018  1.0000
  H   H1933     1.0  0.50575  0.38286  0.64116  1.0000
  C   C1205     1.0  0.51979  0.04302  0.81097  1.0000
  C   C1206     1.0  0.61693  0.05816  0.94579  1.0000
  H   H1934     1.0  0.63535  0.43506  0.49633  1.0000
  S   S481      1.0  0.53613  0.47934  0.51154  1.0000
  C   C1207     1.0  0.58395  0.48853  0.54447  1.0000
  H   H1935     1.0  0.53459  0.15311  0.87801  1.0000
  H   H1936     1.0  0.64487  0.00162  0.83051  1.0000
  C   C1208     1.0  0.70017  0.11945  0.94067  1.0000
  H   H1937     1.0  0.60537  0.41194  0.54766  1.0000
  C   C1209     1.0  0.50033  0.04323  0.92526  1.0000
  H   H1938     1.0  0.66770  0.48349  0.69958  1.0000
  H   H1939     1.0  0.73730  0.10829  0.95320  1.0000
  H   H1940     1.0  0.73030  0.08759  0.97465  1.0000
  H   H1941     1.0  0.49618  0.17640  0.75382  1.0000
  C   C1210     1.0  0.49508  0.13780  0.79190  1.0000
  H   H1942     1.0  0.62045  0.38382  0.50309  1.0000
  H   H1943     1.0  0.54071  0.07765  0.76948  1.0000
  C   C1211     1.0  0.50840  0.18432  0.75508  1.0000
  H   H1944     1.0  0.70553  0.25185  0.97913  1.0000
  C   C1212     1.0  0.49625  0.07042  0.89453  1.0000
  H   H1945     1.0  0.53044  0.21488  0.74572  1.0000
  C   C1213     1.0  0.63910  0.00467  0.87036  1.0000
  H   H1946     1.0  0.73983  0.25432  0.95579  1.0000
  H   H1947     1.0  0.49778  0.07442  0.87718  1.0000
  H   H1948     1.0  0.67970  0.00743  0.86247  1.0000
  C   C1214     1.0  0.55440  0.48271  0.52447  1.0000
  C   C1215     1.0  0.57046  0.26940  0.49980  1.0000
  H   H1949     1.0  0.73407  0.21957  0.97807  1.0000
  H   H1950     1.0  0.69927  0.46369  0.71377  1.0000
  H   H1951     1.0  0.51988  0.17454  0.89046  1.0000
  H   H1952     1.0  0.57233  0.28093  0.50826  1.0000
  H   H1953     1.0  0.58273  0.25509  0.50300  1.0000
  H   H1954     1.0  0.68454  0.43026  0.49175  1.0000
  H   H1955     1.0  0.74381  0.48143  0.49729  1.0000
  C   C1216     1.0  0.66512  0.49218  0.74799  1.0000
  H   H1956     1.0  0.54668  0.50147  0.36736  1.0000
  S   S482      1.0  0.72777  0.50931  0.37957  1.0000
  H   H1957     1.0  0.73181  0.94580  0.03845  1.0000
  C   C1217     1.0  0.57110  0.57370  0.46835  1.0000
  C   C1218     1.0  0.52857  0.51272  0.33385  1.0000
  H   H1958     1.0  0.53997  0.87722  0.15528  1.0000
  H   H1959     1.0  0.61492  0.88289  0.05078  1.0000
  C   C1219     1.0  0.62020  0.61040  0.45720  1.0000
  S   S483      1.0  0.67375  0.99090  0.19914  1.0000
  H   H1960     1.0  0.62810  0.52657  0.35561  1.0000
  C   C1220     1.0  0.65261  0.81979  0.02095  1.0000
  C   C1221     1.0  0.68329  0.87746  0.01938  1.0000
  H   H1961     1.0  0.50322  0.87262  0.16210  1.0000
  H   H1962     1.0  0.57969  0.90430  0.04976  1.0000
  Fe  Fe244     1.0  0.59537  0.59240  0.35150  1.0000
  S   S484      1.0  0.58431  0.56359  0.37161  1.0000
  S   S485      1.0  0.62941  0.59256  0.34788  1.0000
  Fe  Fe245     1.0  0.55327  0.61222  0.33889  1.0000
  S   S486      1.0  0.53891  0.58488  0.35780  1.0000
  S   S487      1.0  0.53328  0.64091  0.32260  1.0000
  Fe  Fe246     1.0  0.55530  0.58602  0.38253  1.0000
  S   S488      1.0  0.53656  0.58330  0.41536  1.0000
  Fe  Fe247     1.0  0.56921  0.56532  0.34501  1.0000
  S   S489      1.0  0.57018  0.53517  0.33625  1.0000
  S   S490      1.0  0.56745  0.61503  0.36481  1.0000
  S   S491      1.0  0.58247  0.59239  0.32371  1.0000
  H   H1963     1.0  0.49480  0.62631  0.40342  1.0000
  H   H1964     1.0  0.63767  0.89455  0.03982  1.0000
  N   N125      1.0  0.51677  0.89572  0.13747  1.0000
  H   H1965     1.0  0.63006  0.79425  0.05007  1.0000
  S   S492      1.0  0.69378  0.53062  0.46651  1.0000
  C   C1222     1.0  0.49722  0.55362  0.45730  1.0000
  H   H1966     1.0  0.67114  0.93094  0.00598  1.0000
  S   S493      1.0  0.68412  0.51829  0.42611  1.0000
  H   H1967     1.0  0.60404  0.89791  0.01607  1.0000
  H   H1968     1.0  0.58724  0.63174  0.44013  1.0000
  Fe  Fe248     1.0  0.56748  0.81098  0.03856  1.0000
  S   S494      1.0  0.56215  0.84618  0.03067  1.0000
  S   S495      1.0  0.59774  0.78983  0.02741  1.0000
  Fe  Fe249     1.0  0.52348  0.81001  0.06392  1.0000
  S   S496      1.0  0.51451  0.84531  0.05836  1.0000
  C   C1223     1.0  0.72808  0.98339  0.01166  1.0000
  Fe  Fe250     1.0  0.53137  0.84404  0.02522  1.0000
  C   C1224     1.0  0.64018  0.53525  0.35566  1.0000
  Fe  Fe251     1.0  0.54626  0.84429  0.06442  1.0000
  S   S497      1.0  0.55063  0.86811  0.08085  1.0000
  S   S498      1.0  0.53797  0.80889  0.03024  1.0000
  S   S499      1.0  0.55387  0.80904  0.07297  1.0000
  H   H1969     1.0  0.60083  0.96593  0.08439  1.0000
  H   H1970     1.0  0.54580  0.50706  0.32953  1.0000
  H   H1971     1.0  0.50842  0.59892  0.28698  1.0000
  S   S500      1.0  0.65585  0.57253  0.43580  1.0000
  C   C1225     1.0  0.60977  0.91232  0.01535  1.0000
  H   H1972     1.0  0.57620  0.93214  0.03965  1.0000
  H   H1973     1.0  0.59501  0.83173  0.00107  1.0000
  H   H1974     1.0  0.63937  0.49409  0.24067  1.0000
  C   C1226     1.0  0.62759  0.50424  0.25070  1.0000
  C   C1227     1.0  0.67882  0.89755  0.00693  1.0000
  H   H1975     1.0  0.60108  0.51100  0.28671  1.0000
  Fe  Fe252     1.0  0.68505  0.54754  0.43575  1.0000
  Fe  Fe253     1.0  0.65719  0.92823  0.08355  1.0000
  S   S501      1.0  0.67209  0.89979  0.10442  1.0000
  S   S502      1.0  0.66684  0.93580  0.04836  1.0000
  Fe  Fe254     1.0  0.62221  0.93996  0.11966  1.0000
  S   S503      1.0  0.63406  0.91199  0.14306  1.0000
  S   S504      1.0  0.59175  0.96115  0.12920  1.0000
  Fe  Fe255     1.0  0.66523  0.92102  0.12752  1.0000
  S   S505      1.0  0.69025  0.92253  0.14391  1.0000
  Fe  Fe256     1.0  0.63923  0.89420  0.11716  1.0000
  S   S506      1.0  0.63037  0.86348  0.11767  1.0000
  S   S507      1.0  0.65280  0.95006  0.10548  1.0000
  S   S508      1.0  0.62506  0.92169  0.09517  1.0000
  C   C1228     1.0  0.57659  0.96060  0.11185  1.0000
  H   H1976     1.0  0.54406  0.87239  0.12931  1.0000
  H   H1977     1.0  0.49566  0.51272  0.47017  1.0000
  C   C1229     1.0  0.55321  0.95733  0.08418  1.0000
  C   C1230     1.0  0.54460  0.95531  0.10565  1.0000
  C   C1231     1.0  0.55620  0.95715  0.11949  1.0000
  N   N126      1.0  0.66072  0.52103  0.35695  1.0000
  C   C1232     1.0  0.62856  0.78617  0.99266  1.0000
  H   H1978     1.0  0.52930  0.95169  0.11173  1.0000
  H   H1979     1.0  0.54965  0.95523  0.13615  1.0000
  S   S509      1.0  0.51730  0.86311  0.99769  1.0000
  C   C1233     1.0  0.60414  0.51459  0.48087  1.0000
  C   C1234     1.0  0.70304  0.94814  0.16229  1.0000
  C   C1235     1.0  0.68630  0.94433  0.15578  1.0000
  C   C1236     1.0  0.66628  0.95646  0.16088  1.0000
  S   S510      1.0  0.53920  0.95423  0.06684  1.0000
  H   H1980     1.0  0.63201  0.76963  0.99975  1.0000
  H   H1981     1.0  0.61385  0.65175  0.43989  1.0000
  H   H1982     1.0  0.65326  0.95365  0.15599  1.0000
  C   C1237     1.0  0.60294  0.50288  0.33058  1.0000
  H   H1983     1.0  0.68361  0.50036  0.33872  1.0000
  H   H1984     1.0  0.50255  0.61762  0.34916  1.0000
  H   H1985     1.0  0.70700  0.96796  0.99198  1.0000
  C   C1238     1.0  0.57354  0.86640  0.08997  1.0000
  C   C1239     1.0  0.57628  0.88423  0.09544  1.0000
  C   C1240     1.0  0.59353  0.88344  0.10398  1.0000
  C   C1241     1.0  0.60851  0.86485  0.10686  1.0000
  C   C1242     1.0  0.60580  0.84694  0.10136  1.0000
  C   C1243     1.0  0.58838  0.84769  0.09291  1.0000
  H   H1986     1.0  0.56473  0.89868  0.09347  1.0000
  H   H1987     1.0  0.59482  0.89707  0.10896  1.0000
  H   H1988     1.0  0.61705  0.83235  0.10398  1.0000
  H   H1989     1.0  0.58611  0.83369  0.08927  1.0000
  H   H1990     1.0  0.65280  0.79479  0.05918  1.0000
  H   H1991     1.0  0.60512  0.50488  0.46932  1.0000
  H   H1992     1.0  0.58001  0.96321  0.05988  1.0000
  H   H1993     1.0  0.51033  0.56389  0.48708  1.0000
  H   H1994     1.0  0.49468  0.62214  0.44584  1.0000
  H   H1995     1.0  0.72569  0.94678  0.00341  1.0000
  C   C1244     1.0  0.58441  0.62867  0.45760  1.0000
  H   H1996     1.0  0.60666  0.94917  0.02676  1.0000
  H   H1997     1.0  0.63553  0.50646  0.26245  1.0000
  C   C1245     1.0  0.61635  0.93492  0.03482  1.0000
  S   S511      1.0  0.68904  0.85473  0.00887  1.0000
  S   S512      1.0  0.71819  0.54908  0.41891  1.0000
  H   H1998     1.0  0.59277  0.49316  0.34164  1.0000
  C   C1246     1.0  0.69968  0.96350  0.17440  1.0000
  H   H1999     1.0  0.49555  0.60221  0.39620  1.0000
  H   H2000     1.0  0.60846  0.84078  0.05248  1.0000
  H   H2001     1.0  0.71743  0.96613  0.05267  1.0000
  H   H2002     1.0  0.63268  0.93386  0.02571  1.0000
  H   H2003     1.0  0.61517  0.59496  0.46219  1.0000
  H   H2004     1.0  0.70604  0.89344  0.21019  1.0000
  C   C1247     1.0  0.58635  0.91843  0.04794  1.0000
  N   N127      1.0  0.60364  0.62728  0.46512  1.0000
  H   H2005     1.0  0.54078  0.58573  0.48575  1.0000
  H   H2006     1.0  0.54945  0.89604  0.13294  1.0000
  H   H2007     1.0  0.59374  0.50736  0.23484  1.0000
  H   H2008     1.0  0.53087  0.60384  0.30893  1.0000
  C   C1248     1.0  0.63667  0.58810  0.37220  1.0000
  C   C1249     1.0  0.62149  0.59030  0.39044  1.0000
  C   C1250     1.0  0.62752  0.58618  0.40985  1.0000
  C   C1251     1.0  0.64862  0.57893  0.41122  1.0000
  C   C1252     1.0  0.66379  0.57664  0.39298  1.0000
  C   C1253     1.0  0.65785  0.58174  0.37343  1.0000
  H   H2009     1.0  0.60511  0.59540  0.38956  1.0000
  H   H2010     1.0  0.61577  0.58832  0.42379  1.0000
  H   H2011     1.0  0.68015  0.57131  0.39388  1.0000
  H   H2012     1.0  0.66965  0.58042  0.35928  1.0000
  C   C1254     1.0  0.58515  0.96290  0.09035  1.0000
  C   C1255     1.0  0.50285  0.65379  0.29911  1.0000
  C   C1256     1.0  0.53953  0.58524  0.45428  1.0000
  C   C1257     1.0  0.55059  0.58040  0.43498  1.0000
  C   C1258     1.0  0.57215  0.57235  0.43221  1.0000
  C   C1259     1.0  0.58239  0.56888  0.44899  1.0000
  H   H2013     1.0  0.62440  0.61374  0.43974  1.0000
  H   H2014     1.0  0.52299  0.59145  0.45639  1.0000
  H   H2015     1.0  0.58084  0.56854  0.41730  1.0000
  C   C1260     1.0  0.51948  0.61699  0.30285  1.0000
  H   H2016     1.0  0.65427  0.83455  0.00912  1.0000
  C   C1261     1.0  0.59928  0.62253  0.48833  1.0000
  H   H2017     1.0  0.62719  0.80687  0.07154  1.0000
  H   H2018     1.0  0.65497  0.92879  0.22583  1.0000
  N   N128      1.0  0.60839  0.91577  0.03660  1.0000
  H   H2019     1.0  0.71857  0.93883  0.15841  1.0000
  H   H2020     1.0  0.67468  0.93496  0.20321  1.0000
  H   H2021     1.0  0.53702  0.54322  0.46255  1.0000
  H   H2022     1.0  0.61641  0.93756  0.05053  1.0000
  H   H2023     1.0  0.66074  0.91642  0.18371  1.0000
  C   C1262     1.0  0.54967  0.58195  0.47092  1.0000
  H   H2024     1.0  0.57986  0.50218  0.28247  1.0000
  H   H2025     1.0  0.59908  0.53130  0.47358  1.0000
  C   C1263     1.0  0.49389  0.52148  0.48277  1.0000
  H   H2026     1.0  0.64727  0.49528  0.37710  1.0000
  C   C1264     1.0  0.63608  0.50593  0.30670  1.0000
  C   C1265     1.0  0.62964  0.52783  0.30244  1.0000
  C   C1266     1.0  0.60955  0.53719  0.31203  1.0000
  C   C1267     1.0  0.59607  0.52457  0.32583  1.0000
  C   C1268     1.0  0.71067  0.95798  0.00704  1.0000
  H   H2027     1.0  0.58481  0.92120  0.06397  1.0000
  H   H2028     1.0  0.63999  0.53751  0.29159  1.0000
  H   H2029     1.0  0.60430  0.55404  0.30826  1.0000
  C   C1269     1.0  0.67615  0.53333  0.35689  1.0000
  C   C1270     1.0  0.67103  0.92280  0.21746  1.0000
  C   C1271     1.0  0.61210  0.79978  0.00283  1.0000
  H   H2030     1.0  0.52617  0.52404  0.36997  1.0000
  H   H2031     1.0  0.71255  0.96588  0.17989  1.0000
  H   H2032     1.0  0.66867  0.52227  0.32360  1.0000
  H   H2033     1.0  0.51990  0.89353  0.10538  1.0000
  H   H2034     1.0  0.64110  0.54764  0.34103  1.0000
  H   H2035     1.0  0.52583  0.53002  0.33261  1.0000
  H   H2036     1.0  0.59903  0.56255  0.44692  1.0000
  H   H2037     1.0  0.74376  0.97318  0.00795  1.0000
  C   C1272     1.0  0.68266  0.87536  0.04076  1.0000
  C   C1273     1.0  0.67755  0.89322  0.04967  1.0000
  C   C1274     1.0  0.67356  0.91332  0.03721  1.0000
  C   C1275     1.0  0.67438  0.91546  0.01574  1.0000
  H   H2038     1.0  0.68606  0.85990  0.05052  1.0000
  H   H2039     1.0  0.67693  0.89128  0.06615  1.0000
  H   H2040     1.0  0.65592  0.51414  0.47300  1.0000
  H   H2041     1.0  0.62622  0.91052  0.00625  1.0000
  C   C1276     1.0  0.66782  0.51062  0.33873  1.0000
  H   H2042     1.0  0.49908  0.54578  0.44399  1.0000
  H   H2043     1.0  0.65027  0.85227  0.03914  1.0000
  C   C1277     1.0  0.51562  0.90550  0.11536  1.0000
  H   H2044     1.0  0.72705  0.49308  0.34404  1.0000
  H   H2045     1.0  0.61951  0.85062  0.02548  1.0000
  H   H2046     1.0  0.64592  0.81005  0.01418  1.0000
  H   H2047     1.0  0.62113  0.89981  0.06409  1.0000
  H   H2048     1.0  0.52635  0.91677  0.10843  1.0000
  H   H2049     1.0  0.66913  0.87095  0.22771  1.0000
  C   C1278     1.0  0.65764  0.90461  0.19846  1.0000
  C   C1279     1.0  0.61065  0.64755  0.45736  1.0000
  H   H2050     1.0  0.50284  0.62477  0.47901  1.0000
  C   C1280     1.0  0.51765  0.63685  0.30707  1.0000
  H   H2051     1.0  0.64020  0.83966  0.06544  1.0000
  H   H2052     1.0  0.69836  0.90709  0.18590  1.0000
  C   C1281     1.0  0.59406  0.50874  0.27436  1.0000
  H   H2053     1.0  0.64715  0.98007  0.17810  1.0000
  H   H2054     1.0  0.58883  0.52458  0.26499  1.0000
  C   C1282     1.0  0.71658  0.95696  0.04131  1.0000
  H   H2055     1.0  0.65702  0.50046  0.33886  1.0000
  H   H2056     1.0  0.63654  0.53333  0.46062  1.0000
  C   C1283     1.0  0.50676  0.61424  0.29042  1.0000
  H   H2057     1.0  0.50320  0.65135  0.35813  1.0000
  C   C1284     1.0  0.51002  0.91220  0.15019  1.0000
  H   H2058     1.0  0.57496  0.79429  0.99107  1.0000
  C   C1285     1.0  0.52791  0.53046  0.46838  1.0000
  H   H2059     1.0  0.69600  0.88027  0.19566  1.0000
  H   H2060     1.0  0.63443  0.54360  0.36904  1.0000
  C   C1286     1.0  0.49692  0.50926  0.36002  1.0000
  Fe  Fe257     1.0  0.69603  0.50136  0.45524  1.0000
  S   S513      1.0  0.72985  0.49874  0.44006  1.0000
  C   C1287     1.0  0.69422  0.89542  0.20050  1.0000
  C   C1288     1.0  0.62109  0.89742  0.04829  1.0000
  H   H2061     1.0  0.64124  0.90989  0.20649  1.0000
  C   C1289     1.0  0.66284  0.97143  0.17340  1.0000
  H   H2062     1.0  0.67203  0.54014  0.37123  1.0000
  C   C1290     1.0  0.64053  0.51655  0.46864  1.0000
  C   C1291     1.0  0.61846  0.83613  0.03784  1.0000
  H   H2063     1.0  0.52018  0.92409  0.14449  1.0000
  N   N129      1.0  0.67272  0.90236  0.21194  1.0000
  Fe  Fe258     1.0  0.71782  0.51808  0.41145  1.0000
  H   H2064     1.0  0.65865  0.88957  0.19372  1.0000
  H   H2065     1.0  0.69212  0.52341  0.35658  1.0000
  N   N130      1.0  0.63940  0.82420  0.04119  1.0000
  C   C1292     1.0  0.66799  0.88657  0.23133  1.0000
  H   H2066     1.0  0.66546  0.82870  0.05150  1.0000
  C   C1293     1.0  0.65875  0.50491  0.37654  1.0000
  N   N131      1.0  0.51989  0.50195  0.35518  1.0000
  Fe  Fe259     1.0  0.72709  0.52957  0.44938  1.0000
  H   H2067     1.0  0.57850  0.61375  0.46350  1.0000
  C   C1294     1.0  0.64920  0.83674  0.04975  1.0000
  H   H2068     1.0  0.66873  0.81128  0.02275  1.0000
  H   H2069     1.0  0.67909  0.88449  0.24186  1.0000
  C   C1295     1.0  0.67945  0.97483  0.18044  1.0000
  Fe  Fe260     1.0  0.50453  0.96226  0.07858  1.0000
  N   N132      1.0  0.71164  0.97088  0.02155  1.0000
  C   C1296     1.0  0.63729  0.80414  0.05618  1.0000
  C   C1297     1.0  0.57344  0.96130  0.07651  1.0000
  H   H2070     1.0  0.61009  0.82652  0.03282  1.0000
  H   H2071     1.0  0.64252  0.50666  0.45698  1.0000
  H   H2072     1.0  0.65188  0.89135  0.24034  1.0000
  H   H2073     1.0  0.57159  0.64140  0.46309  1.0000
  H   H2074     1.0  0.50543  0.56706  0.45108  1.0000
  H   H2075     1.0  0.68217  0.92179  0.22761  1.0000
  H   H2076     1.0  0.63480  0.60832  0.46304  1.0000
  H   H2077     1.0  0.67705  0.54654  0.34302  1.0000
  H   H2078     1.0  0.59857  0.66056  0.46337  1.0000
  H   H2079     1.0  0.51405  0.61838  0.38158  1.0000
  H   H2080     1.0  0.52155  0.50984  0.32177  1.0000
  H   H2081     1.0  0.60021  0.92578  0.00617  1.0000
  H   H2082     1.0  0.51055  0.90541  0.16700  1.0000
  C   C1298     1.0  0.53851  0.88487  0.13883  1.0000
  N   N133      1.0  0.62434  0.51113  0.48735  1.0000
  H   H2083     1.0  0.71932  0.69254  0.48597  1.0000
  H   H2084     1.0  0.53461  0.51929  0.48150  1.0000
  C   C1299     1.0  0.62270  0.49366  0.32070  1.0000
  H   H2085     1.0  0.70439  0.94738  0.04917  1.0000
  H   H2086     1.0  0.50101  0.89401  0.02246  1.0000
  C   C1300     1.0  0.52933  0.50679  0.37060  1.0000
  S   S514      1.0  0.66062  0.49336  0.29469  1.0000
  H   H2087     1.0  0.53065  0.52194  0.45540  1.0000
  N   N134      1.0  0.50539  0.53894  0.47521  1.0000
  H   H2088     1.0  0.50139  0.66918  0.30231  1.0000
  H   H2089     1.0  0.69816  0.94865  0.01381  1.0000
  H   H2090     1.0  0.56429  0.77213  0.99171  1.0000
  H   H2091     1.0  0.50757  0.86772  0.13603  1.0000
  C   C1301     1.0  0.60778  0.82115  0.99359  1.0000
  H   H2092     1.0  0.62527  0.64694  0.46257  1.0000
  H   H2093     1.0  0.50273  0.92047  0.02159  1.0000
  H   H2094     1.0  0.67399  0.49394  0.37791  1.0000
  H   H2095     1.0  0.65354  0.51220  0.39064  1.0000
  C   C1302     1.0  0.50288  0.88029  0.14542  1.0000
  H   H2096     1.0  0.67826  0.97636  0.03258  1.0000
  C   C1303     1.0  0.49743  0.61878  0.38973  1.0000
  S   S515      1.0  0.50098  0.78921  0.08411  1.0000
  H   H2097     1.0  0.49948  0.91416  0.11400  1.0000
  H   H2098     1.0  0.52303  0.49911  0.38693  1.0000
  H   H2099     1.0  0.51089  0.90990  0.99797  1.0000
  H   H2100     1.0  0.62322  0.51995  0.24066  1.0000
  C   C1304     1.0  0.69121  0.98521  0.02613  1.0000
  H   H2101     1.0  0.62814  0.97207  0.99186  1.0000
  H   H2102     1.0  0.67878  0.89938  0.99053  1.0000
  C   C1305     1.0  0.49899  0.91026  0.01284  1.0000
  N   N135      1.0  0.60907  0.49476  0.26112  1.0000
  C   C1306     1.0  0.64060  0.79390  0.97326  1.0000
  H   H2103     1.0  0.72534  0.63547  0.64855  1.0000
  C   C1307     1.0  0.67994  0.81452  0.59360  1.0000
  H   H2104     1.0  0.57620  0.50244  0.64326  1.0000
  S   S516      1.0  0.50300  0.81569  0.89206  1.0000
  S   S517      1.0  0.54479  0.61874  0.50617  1.0000
  Fe  Fe261     1.0  0.70634  0.86654  0.92896  1.0000
  H   H2105     1.0  0.73228  0.70088  0.72381  1.0000
  S   S518      1.0  0.57186  0.58991  0.54214  1.0000
  H   H2106     1.0  0.69181  0.86532  0.82197  1.0000
  S   S519      1.0  0.65375  0.86868  0.96897  1.0000
  Fe  Fe262     1.0  0.56150  0.58538  0.51462  1.0000
  Fe  Fe263     1.0  0.65245  0.64915  0.78623  1.0000
  S   S520      1.0  0.67394  0.66690  0.76091  1.0000
  S   S521      1.0  0.66113  0.61417  0.78821  1.0000
  Fe  Fe264     1.0  0.62602  0.68896  0.80077  1.0000
  S   S522      1.0  0.64573  0.70939  0.77659  1.0000
  S   S523      1.0  0.59719  0.70596  0.81972  1.0000
  Fe  Fe265     1.0  0.64451  0.68951  0.75499  1.0000
  S   S524      1.0  0.63727  0.70640  0.72382  1.0000
  Fe  Fe266     1.0  0.67276  0.68462  0.78537  1.0000
  S   S525      1.0  0.70221  0.69378  0.78616  1.0000
  S   S526      1.0  0.62283  0.67064  0.77832  1.0000
  S   S527      1.0  0.65341  0.66527  0.81154  1.0000
  Fe  Fe267     1.0  0.63644  0.68868  0.59426  1.0000
  S   S528      1.0  0.67076  0.67394  0.59056  1.0000
  S   S529      1.0  0.61521  0.66583  0.59703  1.0000
  Fe  Fe268     1.0  0.64391  0.72745  0.60696  1.0000
  S   S530      1.0  0.67823  0.71485  0.60437  1.0000
  S   S531      1.0  0.63069  0.75855  0.61745  1.0000
  Fe  Fe269     1.0  0.67623  0.70640  0.57488  1.0000
  S   S532      1.0  0.70292  0.71217  0.54782  1.0000
  Fe  Fe270     1.0  0.66908  0.68409  0.62027  1.0000
  S   S533      1.0  0.68279  0.66285  0.64716  1.0000
  S   S534      1.0  0.64210  0.72087  0.57607  1.0000
  S   S535      1.0  0.63466  0.69713  0.62519  1.0000
  Fe  Fe271     1.0  0.53520  0.82220  0.87879  1.0000
  S   S536      1.0  0.53814  0.85453  0.87944  1.0000
  C   C1308     1.0  0.68850  0.88070  0.77455  1.0000
  Fe  Fe272     1.0  0.58023  0.80977  0.85733  1.0000
  S   S537      1.0  0.58682  0.84122  0.85633  1.0000
  S   S538      1.0  0.60851  0.78748  0.84353  1.0000
  Fe  Fe273     1.0  0.56836  0.83824  0.88926  1.0000
  S   S539      1.0  0.58038  0.84700  0.91357  1.0000
  Fe  Fe274     1.0  0.55598  0.85451  0.84656  1.0000
  S   S540      1.0  0.55376  0.88378  0.82155  1.0000
  S   S541      1.0  0.56420  0.80556  0.89144  1.0000
  S   S542      1.0  0.55066  0.82345  0.84476  1.0000
  Fe  Fe275     1.0  0.67462  0.78952  0.70147  1.0000
  S   S543      1.0  0.66789  0.82400  0.70150  1.0000
  S   S544      1.0  0.64989  0.77292  0.70014  1.0000
  Fe  Fe276     1.0  0.71893  0.78308  0.70897  1.0000
  S   S545      1.0  0.71609  0.81691  0.70958  1.0000
  H   H2107     1.0  0.57944  0.54706  0.59739  1.0000
  Fe  Fe277     1.0  0.68400  0.81491  0.72895  1.0000
  S   S546      1.0  0.66971  0.82587  0.75954  1.0000
  Fe  Fe278     1.0  0.70042  0.82276  0.68217  1.0000
  S   S547      1.0  0.70813  0.84536  0.65201  1.0000
  S   S548      1.0  0.68802  0.78037  0.73056  1.0000
  S   S549      1.0  0.70590  0.78897  0.67992  1.0000
  C   C1309     1.0  0.67359  0.80390  0.63134  1.0000
  H   H2108     1.0  0.68605  0.49918  0.50923  1.0000
  N   N136      1.0  0.73341  0.66978  0.50994  1.0000
  H   H2109     1.0  0.61933  0.88439  0.92904  1.0000
  H   H2110     1.0  0.64721  0.51348  0.64547  1.0000
  H   H2111     1.0  0.73465  0.51102  0.51586  1.0000
  H   H2112     1.0  0.70856  0.86577  0.68370  1.0000
  C   C1310     1.0  0.72131  0.77253  0.55049  1.0000
  S   S550      1.0  0.72534  0.57294  0.69698  1.0000
  Fe  Fe279     1.0  0.69512  0.56676  0.69424  1.0000
  S   S551      1.0  0.66660  0.59192  0.70044  1.0000
  C   C1311     1.0  0.63425  0.64451  0.67313  1.0000
  H   H2113     1.0  0.57368  0.51662  0.58672  1.0000
  C   C1312     1.0  0.69317  0.77878  0.60975  1.0000
  H   H2114     1.0  0.67892  0.77412  0.60824  1.0000
  C   C1313     1.0  0.67769  0.84654  0.76528  1.0000
  C   C1314     1.0  0.69513  0.85449  0.75294  1.0000
  C   C1315     1.0  0.70066  0.87138  0.75772  1.0000
  H   H2115     1.0  0.72023  0.80520  0.59710  1.0000
  C   C1316     1.0  0.67122  0.87256  0.78704  1.0000
  C   C1317     1.0  0.66613  0.85524  0.78265  1.0000
  H   H2116     1.0  0.70455  0.84737  0.74000  1.0000
  N   N137      1.0  0.68881  0.80103  0.61165  1.0000
  H   H2117     1.0  0.65309  0.84859  0.79260  1.0000
  H   H2118     1.0  0.61014  0.78872  0.95263  1.0000
  C   C1318     1.0  0.71961  0.62289  0.77814  1.0000
  H   H2119     1.0  0.66915  0.99069  0.83909  1.0000
  H   H2120     1.0  0.66524  0.81024  0.59280  1.0000
  H   H2121     1.0  0.70662  0.83907  0.82871  1.0000
  H   H2122     1.0  0.67304  0.52057  0.66221  1.0000
  H   H2123     1.0  0.52896  0.49967  0.57281  1.0000
  C   C1319     1.0  0.55719  0.80196  0.95765  1.0000
  H   H2124     1.0  0.59535  0.80449  0.93338  1.0000
  C   C1320     1.0  0.55606  0.85723  0.97222  1.0000
  C   C1321     1.0  0.52951  0.89509  0.81433  1.0000
  C   C1322     1.0  0.52586  0.91640  0.80491  1.0000
  H   H2125     1.0  0.74110  0.81304  0.66712  1.0000
  H   H2126     1.0  0.70920  0.69384  0.74174  1.0000
  C   C1323     1.0  0.53451  0.85990  0.97381  1.0000
  C   C1324     1.0  0.51372  0.88357  0.81829  1.0000
  H   H2127     1.0  0.53802  0.92535  0.80174  1.0000
  H   H2128     1.0  0.67101  0.76518  0.80278  1.0000
  C   C1325     1.0  0.57599  0.50680  0.60234  1.0000
  H   H2129     1.0  0.51657  0.86701  0.82542  1.0000
  C   C1326     1.0  0.56226  0.85316  0.93609  1.0000
  C   C1327     1.0  0.56984  0.85427  0.95329  1.0000
  H   H2130     1.0  0.61053  0.77660  0.77907  1.0000
  H   H2131     1.0  0.58442  0.89077  0.90411  1.0000
  C   C1328     1.0  0.52678  0.85973  0.95634  1.0000
  C   C1329     1.0  0.54068  0.85600  0.93756  1.0000
  H   H2132     1.0  0.58648  0.85217  0.95221  1.0000
  C   C1330     1.0  0.49831  0.82391  0.95089  1.0000
  H   H2133     1.0  0.51009  0.86174  0.95757  1.0000
  H   H2134     1.0  0.53467  0.85504  0.92442  1.0000
  H   H2135     1.0  0.70546  0.89595  0.82338  1.0000
  H   H2136     1.0  0.71442  0.87723  0.74841  1.0000
  C   C1331     1.0  0.73914  0.66917  0.79413  1.0000
  C   C1332     1.0  0.70986  0.73566  0.54822  1.0000
  C   C1333     1.0  0.69472  0.75180  0.55615  1.0000
  H   H2137     1.0  0.70345  0.67410  0.50186  1.0000
  C   C1334     1.0  0.59471  0.79894  0.95057  1.0000
  C   C1335     1.0  0.58020  0.76934  0.95118  1.0000
  H   H2138     1.0  0.64009  0.60363  0.67125  1.0000
  H   H2139     1.0  0.64671  0.49871  0.71528  1.0000
  C   C1336     1.0  0.57006  0.50584  0.53565  1.0000
  C   C1337     1.0  0.63734  0.76284  0.63969  1.0000
  C   C1338     1.0  0.65597  0.75211  0.64644  1.0000
  C   C1339     1.0  0.66058  0.75599  0.66433  1.0000
  C   C1340     1.0  0.64650  0.77049  0.67564  1.0000
  C   C1341     1.0  0.62812  0.78142  0.66863  1.0000
  C   C1342     1.0  0.62373  0.77785  0.65060  1.0000
  H   H2140     1.0  0.66664  0.74058  0.63809  1.0000
  H   H2141     1.0  0.67448  0.74697  0.66991  1.0000
  H   H2142     1.0  0.61696  0.79237  0.67741  1.0000
  H   H2143     1.0  0.60934  0.78627  0.64547  1.0000
  C   C1343     1.0  0.60036  0.72840  0.82671  1.0000
  C   C1344     1.0  0.58268  0.74273  0.83429  1.0000
  C   C1345     1.0  0.58494  0.76097  0.83951  1.0000
  C   C1346     1.0  0.60492  0.76489  0.83719  1.0000
  C   C1347     1.0  0.62257  0.75058  0.82957  1.0000
  C   C1348     1.0  0.62032  0.73235  0.82441  1.0000
  H   H2144     1.0  0.56721  0.73967  0.83619  1.0000
  H   H2145     1.0  0.57125  0.77191  0.84544  1.0000
  H   H2146     1.0  0.63804  0.75348  0.82796  1.0000
  H   H2147     1.0  0.63403  0.72122  0.81892  1.0000
  C   C1349     1.0  0.65058  0.69381  0.70304  1.0000
  C   C1350     1.0  0.64958  0.70486  0.68264  1.0000
  C   C1351     1.0  0.66030  0.69554  0.66555  1.0000
  C   C1352     1.0  0.67169  0.67492  0.66877  1.0000
  C   C1353     1.0  0.67292  0.66379  0.68922  1.0000
  C   C1354     1.0  0.66234  0.67328  0.70641  1.0000
  H   H2148     1.0  0.64031  0.72064  0.68005  1.0000
  H   H2149     1.0  0.65948  0.70438  0.64989  1.0000
  H   H2150     1.0  0.68146  0.64768  0.69181  1.0000
  H   H2151     1.0  0.66289  0.66456  0.72220  1.0000
  C   C1355     1.0  0.66171  0.60788  0.76411  1.0000
  C   C1356     1.0  0.67135  0.58770  0.76044  1.0000
  C   C1357     1.0  0.67311  0.58289  0.74082  1.0000
  C   C1358     1.0  0.66448  0.59796  0.72504  1.0000
  C   C1359     1.0  0.65425  0.61795  0.72892  1.0000
  C   C1360     1.0  0.65314  0.62299  0.74831  1.0000
  H   H2152     1.0  0.67765  0.57580  0.77270  1.0000
  H   H2153     1.0  0.68091  0.56740  0.73806  1.0000
  H   H2154     1.0  0.64752  0.62970  0.71684  1.0000
  H   H2155     1.0  0.64547  0.63854  0.75108  1.0000
  C   C1361     1.0  0.58180  0.65441  0.54980  1.0000
  H   H2156     1.0  0.59506  0.64905  0.66749  1.0000
  C   C1362     1.0  0.62036  0.82902  0.97464  1.0000
  C   C1363     1.0  0.60289  0.66172  0.57823  1.0000
  C   C1364     1.0  0.60272  0.67504  0.55851  1.0000
  C   C1365     1.0  0.59215  0.67143  0.54444  1.0000
  C   C1366     1.0  0.51499  0.50004  0.60535  1.0000
  H   H2157     1.0  0.61040  0.68831  0.55424  1.0000
  H   H2158     1.0  0.59182  0.68204  0.52939  1.0000
  H   H2159     1.0  0.72093  0.93319  0.89127  1.0000
  C   C1367     1.0  0.71473  0.97374  0.86384  1.0000
  H   H2160     1.0  0.73983  0.67808  0.83578  1.0000
  S   S552      1.0  0.72824  0.79536  0.55291  1.0000
  H   H2161     1.0  0.50153  0.91775  0.85299  1.0000
  C   C1368     1.0  0.72072  0.64312  0.82973  1.0000
  C   C1369     1.0  0.70819  0.66010  0.81866  1.0000
  C   C1370     1.0  0.71743  0.67302  0.80075  1.0000
  H   H2162     1.0  0.50415  0.50420  0.63731  1.0000
  H   H2163     1.0  0.70613  0.95674  0.84488  1.0000
  H   H2164     1.0  0.71351  0.63305  0.84352  1.0000
  H   H2165     1.0  0.69143  0.66327  0.82414  1.0000
  H   H2166     1.0  0.54381  0.79373  0.96412  1.0000
  C   C1371     1.0  0.67605  0.50600  0.65679  1.0000
  H   H2167     1.0  0.68968  0.97843  0.91364  1.0000
  H   H2168     1.0  0.69032  0.96225  0.95444  1.0000
  H   H2169     1.0  0.69874  0.76801  0.62367  1.0000
  H   H2170     1.0  0.72980  0.89185  0.83167  1.0000
  N   N138      1.0  0.60653  0.89727  0.78127  1.0000
  C   C1372     1.0  0.59597  0.88500  0.77322  1.0000
  C   C1373     1.0  0.61116  0.88571  0.80199  1.0000
  C   C1374     1.0  0.59275  0.91786  0.78354  1.0000
  C   C1375     1.0  0.62625  0.90055  0.76633  1.0000
  H   H2171     1.0  0.59236  0.89322  0.75757  1.0000
  H   H2172     1.0  0.58091  0.88243  0.78392  1.0000
  H   H2173     1.0  0.60580  0.86920  0.77170  1.0000
  H   H2174     1.0  0.62011  0.89400  0.80799  1.0000
  H   H2175     1.0  0.59655  0.88422  0.81400  1.0000
  H   H2176     1.0  0.62026  0.86954  0.80134  1.0000
  H   H2177     1.0  0.57810  0.91597  0.79543  1.0000
  H   H2178     1.0  0.58813  0.92683  0.76852  1.0000
  H   H2179     1.0  0.60063  0.92769  0.78891  1.0000
  H   H2180     1.0  0.63521  0.90887  0.77231  1.0000
  H   H2181     1.0  0.62322  0.91011  0.75086  1.0000
  H   H2182     1.0  0.63658  0.88533  0.76350  1.0000
  H   H2183     1.0  0.57430  0.62783  0.57379  1.0000
  H   H2184     1.0  0.62275  0.64422  0.68828  1.0000
  H   H2185     1.0  0.65849  0.79983  0.63151  1.0000
  Fe  Fe280     1.0  0.66440  0.93826  0.84162  1.0000
  H   H2186     1.0  0.50896  0.53967  0.50595  1.0000
  C   C1376     1.0  0.70789  0.85574  0.82187  1.0000
  H   H2187     1.0  0.60878  0.52289  0.51549  1.0000
  C   C1377     1.0  0.72697  0.62490  0.63759  1.0000
  H   H2188     1.0  0.74005  0.88757  0.70778  1.0000
  H   H2189     1.0  0.72020  0.69196  0.69510  1.0000
  Fe  Fe281     1.0  0.73881  0.55909  0.66826  1.0000
  C   C1378     1.0  0.72113  0.88547  0.82342  1.0000
  C   C1379     1.0  0.71785  0.51024  0.51842  1.0000
  C   C1380     1.0  0.54416  0.97359  0.81121  1.0000
  C   C1381     1.0  0.70395  0.69863  0.70242  1.0000
  C   C1382     1.0  0.65976  0.96901  0.97399  1.0000
  H   H2190     1.0  0.55395  0.81539  0.96570  1.0000
  H   H2191     1.0  0.67632  0.83142  0.59455  1.0000
  H   H2192     1.0  0.71616  0.86839  0.86472  1.0000
  C   C1383     1.0  0.52525  0.50842  0.58520  1.0000
  H   H2193     1.0  0.56213  0.85760  0.98552  1.0000
  H   H2194     1.0  0.59533  0.75834  0.95306  1.0000
  H   H2195     1.0  0.67164  0.50649  0.70575  1.0000
  C   C1384     1.0  0.62247  0.52462  0.50234  1.0000
  H   H2196     1.0  0.60966  0.52287  0.58124  1.0000
  H   H2197     1.0  0.53957  0.53401  0.56568  1.0000
  C   C1385     1.0  0.61063  0.51352  0.59735  1.0000
  H   H2198     1.0  0.67170  0.72990  0.71011  1.0000
  H   H2199     1.0  0.59152  0.51063  0.49452  1.0000
  H   H2200     1.0  0.68846  0.78287  0.56264  1.0000
  H   H2201     1.0  0.72359  0.94885  0.92029  1.0000
  Fe  Fe282     1.0  0.68606  0.86172  0.97521  1.0000
  H   H2202     1.0  0.50978  0.88976  0.85791  1.0000
  H   H2203     1.0  0.70263  0.62629  0.77776  1.0000
  H   H2204     1.0  0.68093  0.93681  0.93884  1.0000
  H   H2205     1.0  0.70538  0.77514  0.81876  1.0000
  H   H2206     1.0  0.67018  0.82045  0.63345  1.0000
  C   C1386     1.0  0.73955  0.61874  0.60225  1.0000
  C   C1387     1.0  0.63962  0.96457  0.98014  1.0000
  C   C1388     1.0  0.63659  0.81535  0.96435  1.0000
  C   C1389     1.0  0.70230  0.96175  0.85974  1.0000
  H   H2207     1.0  0.60912  0.73010  0.75834  1.0000
  H   H2208     1.0  0.49474  0.88073  0.90485  1.0000
  H   H2209     1.0  0.55717  0.80866  0.94069  1.0000
  C   C1390     1.0  0.62158  0.87965  0.87925  1.0000
  C   C1391     1.0  0.59263  0.64464  0.58354  1.0000
  H   H2210     1.0  0.49976  0.51002  0.49622  1.0000
  H   H2211     1.0  0.59130  0.91112  0.91252  1.0000
  Fe  Fe283     1.0  0.65177  0.96766  0.80267  1.0000
  Fe  Fe284     1.0  0.51659  0.60732  0.52734  1.0000
  H   H2212     1.0  0.59133  0.91336  0.88519  1.0000
  H   H2213     1.0  0.67856  0.75010  0.56149  1.0000
  H   H2214     1.0  0.73524  0.87329  0.65086  1.0000
  H   H2215     1.0  0.71088  0.62356  0.63740  1.0000
  H   H2216     1.0  0.71693  0.60494  0.81911  1.0000
  N   N139      1.0  0.57732  0.78772  0.96073  1.0000
  H   H2217     1.0  0.49793  0.54606  0.55537  1.0000
  N   N140      1.0  0.73826  0.63301  0.61630  1.0000
  H   H2218     1.0  0.62038  0.54152  0.49458  1.0000
  H   H2219     1.0  0.71050  0.87255  0.70721  1.0000
  H   H2220     1.0  0.61792  0.49707  0.59578  1.0000
  N   N141      1.0  0.72686  0.60052  0.78721  1.0000
  H   H2221     1.0  0.71672  0.80045  0.89827  1.0000
  H   H2222     1.0  0.71500  0.71921  0.73890  1.0000
  H   H2223     1.0  0.58025  0.77427  0.93402  1.0000
  H   H2224     1.0  0.56742  0.76040  0.95847  1.0000
  H   H2225     1.0  0.63666  0.52078  0.50927  1.0000
  H   H2226     1.0  0.67426  0.71170  0.73427  1.0000
  C   C1392     1.0  0.53146  0.52780  0.58119  1.0000
  C   C1393     1.0  0.74246  0.63902  0.82281  1.0000
  N   N142      1.0  0.70366  0.76612  0.79080  1.0000
  H   H2227     1.0  0.67956  0.79372  0.64532  1.0000
  H   H2228     1.0  0.73267  0.59061  0.75781  1.0000
  N   N143      1.0  0.70343  0.71550  0.71321  1.0000
  C   C1394     1.0  0.71552  0.70695  0.73013  1.0000
  C   C1395     1.0  0.71266  0.73250  0.69801  1.0000
  C   C1396     1.0  0.68150  0.72398  0.72232  1.0000
  H   H2229     1.0  0.71502  0.64870  0.53202  1.0000
  H   H2230     1.0  0.56457  0.53841  0.62289  1.0000
  S   S553      1.0  0.73613  0.86396  0.90453  1.0000
  H   H2231     1.0  0.71169  0.52144  0.50501  1.0000
  H   H2232     1.0  0.69762  0.59836  0.80900  1.0000
  H   H2233     1.0  0.71223  0.74546  0.70575  1.0000
  H   H2234     1.0  0.51588  0.53795  0.63050  1.0000
  H   H2235     1.0  0.74243  0.72582  0.53484  1.0000
  H   H2236     1.0  0.68022  0.73721  0.73005  1.0000
  C   C1397     1.0  0.69320  0.97404  0.89854  1.0000
  C   C1398     1.0  0.71488  0.68342  0.50214  1.0000
  H   H2237     1.0  0.70688  0.59007  0.77334  1.0000
  H   H2238     1.0  0.69894  0.74976  0.82301  1.0000
  S   S554      1.0  0.69659  0.88890  0.95124  1.0000
  H   H2239     1.0  0.73359  0.77404  0.77532  1.0000
  S   S555      1.0  0.53649  0.56223  0.59345  1.0000
  C   C1399     1.0  0.64396  0.63571  0.63882  1.0000
  C   C1400     1.0  0.60767  0.64865  0.65319  1.0000
  H   H2240     1.0  0.60914  0.66518  0.64578  1.0000
  C   C1401     1.0  0.62507  0.61391  0.66786  1.0000
  H   H2241     1.0  0.67213  0.50648  0.74293  1.0000
  H   H2242     1.0  0.71567  0.79706  0.62523  1.0000
  C   C1402     1.0  0.72671  0.65807  0.53145  1.0000
  H   H2243     1.0  0.71715  0.90937  0.90956  1.0000
  H   H2244     1.0  0.60242  0.64261  0.64178  1.0000
  H   H2245     1.0  0.64645  0.65187  0.63129  1.0000
  C   C1403     1.0  0.51842  0.52981  0.61778  1.0000
  H   H2246     1.0  0.61963  0.60700  0.65726  1.0000
  H   H2247     1.0  0.70512  0.74999  0.76635  1.0000
  H   H2248     1.0  0.71319  0.78538  0.76064  1.0000
  C   C1404     1.0  0.58067  0.53678  0.61308  1.0000
  H   H2249     1.0  0.69188  0.87248  0.85641  1.0000
  H   H2250     1.0  0.63944  0.62952  0.62703  1.0000
  H   H2251     1.0  0.63037  0.76548  0.75905  1.0000
  C   C1405     1.0  0.67472  0.95894  0.95915  1.0000
  S   S556      1.0  0.67561  0.87515  0.91867  1.0000
  C   C1406     1.0  0.66944  0.94456  0.95036  1.0000
  H   H2252     1.0  0.63589  0.66113  0.66656  1.0000
  H   H2253     1.0  0.63778  0.86689  0.91355  1.0000
  H   H2254     1.0  0.65930  0.62612  0.64209  1.0000
  H   H2255     1.0  0.64968  0.63548  0.67676  1.0000
  N   N144      1.0  0.62772  0.63571  0.65826  1.0000
  H   H2256     1.0  0.72966  0.85393  0.60885  1.0000
  C   C1407     1.0  0.70036  0.77036  0.55685  1.0000
  H   H2257     1.0  0.70545  0.77587  0.59564  1.0000
  C   C1408     1.0  0.74049  0.85023  0.83311  1.0000
  H   H2258     1.0  0.49683  0.56811  0.58021  1.0000
  C   C1409     1.0  0.73306  0.83460  0.63921  1.0000
  C   C1410     1.0  0.61540  0.76351  0.77033  1.0000
  H   H2259     1.0  0.62131  0.74743  0.73615  1.0000
  C   C1411     1.0  0.53947  0.95570  0.82607  1.0000
  H   H2260     1.0  0.59481  0.74529  0.73862  1.0000
  H   H2261     1.0  0.61858  0.74875  0.78207  1.0000
  H   H2262     1.0  0.61354  0.61318  0.68301  1.0000
  C   C1412     1.0  0.68121  0.77585  0.79212  1.0000
  H   H2263     1.0  0.61150  0.86778  0.88304  1.0000
  C   C1413     1.0  0.56509  0.97560  0.80387  1.0000
  H   H2264     1.0  0.72371  0.61746  0.60120  1.0000
  C   C1414     1.0  0.60639  0.74574  0.74768  1.0000
  H   H2265     1.0  0.58268  0.74418  0.78640  1.0000
  C   C1415     1.0  0.51189  0.51066  0.62168  1.0000
  H   H2266     1.0  0.58928  0.79665  0.75282  1.0000
  H   H2267     1.0  0.56705  0.75912  0.76754  1.0000
  H   H2268     1.0  0.65326  0.78334  0.96532  1.0000
  Fe  Fe285     1.0  0.54122  0.58152  0.56055  1.0000
  N   N145      1.0  0.59905  0.76299  0.75944  1.0000
  H   H2269     1.0  0.66200  0.87938  0.80027  1.0000
  H   H2270     1.0  0.73519  0.60906  0.64443  1.0000
  H   H2271     1.0  0.56032  0.50673  0.61276  1.0000
  H   H2272     1.0  0.72946  0.88666  0.80669  1.0000
  S   S557      1.0  0.69917  0.53413  0.71393  1.0000
  H   H2273     1.0  0.67719  0.79075  0.79807  1.0000
  C   C1416     1.0  0.58225  0.64093  0.56940  1.0000
  N   N146      1.0  0.73621  0.87744  0.68130  1.0000
  S   S558      1.0  0.56835  0.65082  0.53166  1.0000
  Fe  Fe286     1.0  0.55331  0.62279  0.53524  1.0000
  H   H2274     1.0  0.59258  0.63429  0.59875  1.0000
  S   S559      1.0  0.53288  0.57353  0.53370  1.0000
  C   C1417     1.0  0.59167  0.50172  0.63230  1.0000
  C   C1418     1.0  0.71472  0.59533  0.80881  1.0000
  C   C1419     1.0  0.57982  0.75949  0.77514  1.0000
  C   C1420     1.0  0.59470  0.78319  0.74458  1.0000
  H   H2275     1.0  0.72514  0.73881  0.78141  1.0000
  H   H2276     1.0  0.69107  0.81290  0.57846  1.0000
  C   C1421     1.0  0.59510  0.90214  0.89974  1.0000
  H   H2277     1.0  0.70654  0.69499  0.51234  1.0000
  C   C1422     1.0  0.52803  0.53852  0.59752  1.0000
  H   H2278     1.0  0.57403  0.77199  0.78462  1.0000
  H   H2279     1.0  0.58241  0.78337  0.73609  1.0000
  C   C1423     1.0  0.70846  0.80697  0.61187  1.0000
  H   H2280     1.0  0.59304  0.81297  0.95725  1.0000
  H   H2281     1.0  0.66837  0.95658  0.90672  1.0000
  C   C1424     1.0  0.68581  0.95515  0.87539  1.0000
  H   H2282     1.0  0.71057  0.83316  0.91136  1.0000
  H   H2283     1.0  0.59037  0.54314  0.62020  1.0000
  H   H2284     1.0  0.60899  0.78602  0.73246  1.0000
  Fe  Fe287     1.0  0.71432  0.52385  0.68315  1.0000
  S   S560      1.0  0.69580  0.90187  0.78012  1.0000
  S   S561      1.0  0.65693  0.91041  0.83409  1.0000
  C   C1425     1.0  0.73184  0.93304  0.92724  1.0000
  H   H2285     1.0  0.70398  0.73935  0.68501  1.0000
  H   H2286     1.0  0.71594  0.85659  0.80509  1.0000
  H   H2287     1.0  0.61820  0.94851  0.97446  1.0000
  C   C1426     1.0  0.70854  0.76083  0.81200  1.0000
  C   C1427     1.0  0.50641  0.81848  0.93112  1.0000
  S   S562      1.0  0.59686  0.92322  0.83633  1.0000
  C   C1428     1.0  0.71655  0.78099  0.77675  1.0000
  C   C1429     1.0  0.64893  0.94112  0.95555  1.0000
  Fe  Fe288     1.0  0.66486  0.89451  0.94359  1.0000
  S   S563      1.0  0.52311  0.61478  0.55573  1.0000
  C   C1430     1.0  0.57651  0.94247  0.82666  1.0000
  N   N147      1.0  0.61728  0.89123  0.89641  1.0000
  H   H2288     1.0  0.55196  0.92627  0.84512  1.0000
  H   H2289     1.0  0.71955  0.57850  0.81608  1.0000
  Fe  Fe289     1.0  0.67246  0.92237  0.80098  1.0000
  H   H2290     1.0  0.73496  0.66104  0.59216  1.0000
  H   H2291     1.0  0.52251  0.81048  0.92728  1.0000
  C   C1431     1.0  0.55564  0.94013  0.83375  1.0000
  S   S564      1.0  0.65174  0.82503  0.94033  1.0000
  C   C1432     1.0  0.63404  0.95113  0.97047  1.0000
  H   H2292     1.0  0.54474  0.51644  0.51888  1.0000
  Fe  Fe290     1.0  0.62815  0.93289  0.82525  1.0000
  H   H2293     1.0  0.71983  0.92474  0.93840  1.0000
  C   C1433     1.0  0.71039  0.97969  0.88337  1.0000
  S   S565      1.0  0.67250  0.93678  0.87259  1.0000
  S   S566      1.0  0.64307  0.94278  0.79143  1.0000
  H   H2294     1.0  0.73328  0.90852  0.68648  1.0000
  S   S567      1.0  0.68262  0.94829  0.80935  1.0000
  H   H2295     1.0  0.52346  0.95384  0.83172  1.0000
  C   C1434     1.0  0.68117  0.96159  0.89464  1.0000
  C   C1435     1.0  0.63085  0.90689  0.89076  1.0000
  C   C1436     1.0  0.70792  0.86262  0.85550  1.0000
  Fe  Fe291     1.0  0.66748  0.84863  0.94496  1.0000
  S   S568      1.0  0.64157  0.92485  0.94313  1.0000
  S   S569      1.0  0.69888  0.83864  0.95390  1.0000
  C   C1437     1.0  0.70835  0.74669  0.78242  1.0000
  S   S570      1.0  0.70792  0.55628  0.66337  1.0000
  C   C1438     1.0  0.74054  0.84066  0.89513  1.0000
  H   H2296     1.0  0.63814  0.87113  0.87633  1.0000
  H   H2297     1.0  0.62149  0.51929  0.60359  1.0000
  C   C1439     1.0  0.72520  0.82841  0.90104  1.0000
  N   N148      1.0  0.71934  0.86352  0.83349  1.0000
  H   H2298     1.0  0.72864  0.57021  0.78067  1.0000
  C   C1440     1.0  0.72366  0.58725  0.77419  1.0000
  H   H2299     1.0  0.62754  0.91890  0.87655  1.0000
  H   H2300     1.0  0.69880  0.73518  0.79256  1.0000
  C   C1441     1.0  0.62154  0.87623  0.91588  1.0000
  H   H2301     1.0  0.71949  0.66893  0.54260  1.0000
  H   H2302     1.0  0.61725  0.84562  0.96773  1.0000
  H   H2303     1.0  0.72530  0.75321  0.81162  1.0000
  C   C1442     1.0  0.73067  0.73815  0.54109  1.0000
  C   C1443     1.0  0.73645  0.75635  0.54264  1.0000
  C   C1444     1.0  0.66142  0.50193  0.64728  1.0000
  H   H2304     1.0  0.71345  0.79586  0.78257  1.0000
  H   H2305     1.0  0.61112  0.86463  0.92098  1.0000
  C   C1445     1.0  0.58117  0.96004  0.81149  1.0000
  H   H2306     1.0  0.70377  0.89286  0.68542  1.0000
  S   S571      1.0  0.60371  0.49315  0.55458  1.0000
  H   H2307     1.0  0.60233  0.50695  0.63933  1.0000
  H   H2308     1.0  0.59725  0.96145  0.80542  1.0000
  H   H2309     1.0  0.64772  0.89939  0.88743  1.0000
  H   H2310     1.0  0.72825  0.62737  0.76178  1.0000
  C   C1446     1.0  0.73977  0.84159  0.61765  1.0000
  C   C1447     1.0  0.50245  0.55017  0.49240  1.0000
  C   C1448     1.0  0.71378  0.87716  0.68978  1.0000
  H   H2311     1.0  0.57086  0.52160  0.53624  1.0000
  S   S572      1.0  0.63422  0.95951  0.83574  1.0000
  H   H2312     1.0  0.70644  0.84622  0.86357  1.0000
  H   H2313     1.0  0.61844  0.89044  0.86433  1.0000
  H   H2314     1.0  0.73765  0.90877  0.88672  1.0000
  H   H2315     1.0  0.62859  0.91543  0.90369  1.0000
  H   H2316     1.0  0.50815  0.82013  0.96235  1.0000
  N   N149      1.0  0.58974  0.51469  0.61128  1.0000
  H   H2317     1.0  0.72535  0.66536  0.61849  1.0000
  H   H2318     1.0  0.73059  0.90018  0.65330  1.0000
  H   H2319     1.0  0.69458  0.70453  0.68982  1.0000
  H   H2320     1.0  0.72796  0.97810  0.85198  1.0000
  H   H2321     1.0  0.56892  0.98925  0.79225  1.0000
  H   H2322     1.0  0.70569  0.82364  0.61343  1.0000
  H   H2323     1.0  0.70946  0.51613  0.53299  1.0000
  S   S573      1.0  0.71147  0.49382  0.67469  1.0000
  H   H2324     1.0  0.67685  0.77989  0.77647  1.0000
  S   S574      1.0  0.49537  0.50090  0.55521  1.0000
  C   C1449     1.0  0.50623  0.92651  0.80034  1.0000
  H   H2325     1.0  0.69715  0.68553  0.71356  1.0000
  Fe  Fe292     1.0  0.73059  0.53971  0.71468  1.0000
  H   H2326     1.0  0.72935  0.72684  0.69104  1.0000
  C   C1450     1.0  0.55532  0.50295  0.52570  1.0000
  H   H2327     1.0  0.71077  0.65390  0.60706  1.0000
  C   C1451     1.0  0.72925  0.91798  0.89909  1.0000
  H   H2328     1.0  0.51359  0.90436  0.87508  1.0000
  H   H2329     1.0  0.64921  0.98932  0.87570  1.0000
  C   C1452     1.0  0.72689  0.65424  0.60811  1.0000
  C   C1453     1.0  0.72862  0.80992  0.89346  1.0000
  H   H2330     1.0  0.61327  0.62181  0.49463  1.0000
  H   H2331     1.0  0.50349  0.94313  0.79355  1.0000
  H   H2332     1.0  0.72180  0.63337  0.78754  1.0000
  H   H2333     1.0  0.73624  0.70377  0.84112  1.0000
  C   C1454     1.0  0.50255  0.90339  0.86567  1.0000
  C   C1455     1.0  0.74248  0.89229  0.69034  1.0000
  H   H2334     1.0  0.59220  0.77010  0.98648  1.0000
  H   H2335     1.0  0.59433  0.60715  0.49475  1.0000
  C   C1456     1.0  0.57718  0.78069  0.98347  1.0000
  H   H2336     1.0  0.74083  0.69367  0.52144  1.0000
  H   H2337     1.0  0.73367  0.64442  0.49545  1.0000
  H   H2338     1.0  0.73975  0.83342  0.84001  1.0000
  H   H2339     1.0  0.61051  0.98841  0.80513  1.0000
  H   H2340     1.0  0.74020  0.64703  0.53749  1.0000
  C   C1457     1.0  0.49407  0.89368  0.81330  1.0000
  H   H2341     1.0  0.58653  0.63475  0.49481  1.0000
  H   H2342     1.0  0.74230  0.93551  0.93646  1.0000
  C   C1458     1.0  0.73983  0.88417  0.65818  1.0000
  S   S575      1.0  0.66567  0.98802  0.98408  1.0000
  H   H2343     1.0  0.64784  0.49757  0.75206  1.0000
  S   S576      1.0  0.74315  0.53138  0.74477  1.0000
  S   S577      1.0  0.58368  0.56996  0.48926  1.0000
  N   N150      1.0  0.74376  0.92107  0.91079  1.0000
  C   C1459     1.0  0.66392  0.49268  0.71222  1.0000
  H   H2344     1.0  0.74354  0.89093  0.93162  1.0000
  S   S578      1.0  0.72301  0.99214  0.94931  1.0000
  H   H2345     1.0  0.68364  0.49356  0.53728  1.0000
  Fe  Fe293     1.0  0.79932  0.30999  0.01298  1.0000
  H   H2346     1.0  0.83338  0.03857  0.08984  1.0000
  Fe  Fe294     1.0  0.80330  0.10592  0.03895  1.0000
  S   S579      1.0  0.79989  0.08779  0.07224  1.0000
  H   H2347     1.0  0.97058  0.39408  0.05076  1.0000
  Fe  Fe295     1.0  0.89721  0.31641  0.16384  1.0000
  S   S580      1.0  0.90868  0.34030  0.17378  1.0000
  S   S581      1.0  0.91600  0.28465  0.15946  1.0000
  Fe  Fe296     1.0  0.85336  0.34306  0.16402  1.0000
  S   S582      1.0  0.86108  0.36923  0.17384  1.0000
  S   S583      1.0  0.82159  0.34794  0.15657  1.0000
  Fe  Fe297     1.0  0.89126  0.36373  0.15039  1.0000
  S   S584      1.0  0.90219  0.38916  0.12362  1.0000
  Fe  Fe298     1.0  0.87740  0.34323  0.19614  1.0000
  S   S585      1.0  0.87161  0.34076  0.23104  1.0000
  S   S586      1.0  0.88211  0.33936  0.13881  1.0000
  S   S587      1.0  0.86756  0.31741  0.18783  1.0000
  C   C1460     1.0  0.93537  0.19732  0.13031  1.0000
  H   H2348     1.0  0.86254  0.99319  0.25011  1.0000
  H   H2349     1.0  0.76493  0.42642  0.40505  1.0000
  C   C1461     1.0  0.85644  0.03394  0.25105  1.0000
  Fe  Fe299     1.0  0.94146  0.04086  0.43244  1.0000
  H   H2350     1.0  0.86716  0.01457  0.38579  1.0000
  H   H2351     1.0  0.76211  0.36796  0.18496  1.0000
  S   S588      1.0  0.78050  0.28686  0.01255  1.0000
  H   H2352     1.0  0.76736  0.39349  0.38080  1.0000
  H   H2353     1.0  0.86110  0.13566  0.19760  1.0000
  H   H2354     1.0  0.85432  0.34806  0.02639  1.0000
  S   S589      1.0  0.94199  0.00331  0.30538  1.0000
  Fe  Fe300     1.0  0.87913  0.06718  0.13734  1.0000
  S   S590      1.0  0.93876  0.07390  0.41364  1.0000
  S   S591      1.0  0.80876  0.09002  0.17844  1.0000
  S   S592      1.0  0.95582  0.10516  0.44663  1.0000
  H   H2355     1.0  0.74977  0.20807  0.21210  1.0000
  S   S593      1.0  0.96672  0.01463  0.42161  1.0000
  S   S594      1.0  0.86489  0.08120  0.19264  1.0000
  S   S595      1.0  0.83685  0.07832  0.28467  1.0000
  H   H2356     1.0  0.88584  0.16030  0.18220  1.0000
  S   S596      1.0  0.90402  0.06627  0.15454  1.0000
  H   H2357     1.0  0.97545  0.28166  0.11471  1.0000
  H   H2358     1.0  0.76578  0.23179  0.05525  1.0000
  S   S597      1.0  0.82646  0.14021  0.26853  1.0000
  Fe  Fe301     1.0  0.81002  0.24965  0.31846  1.0000
  S   S598      1.0  0.80302  0.25508  0.28639  1.0000
  S   S599      1.0  0.84253  0.23542  0.32367  1.0000
  Fe  Fe302     1.0  0.76563  0.26761  0.33838  1.0000
  C   C1462     1.0  0.76172  0.02654  0.24988  1.0000
  Fe  Fe303     1.0  0.77422  0.24258  0.30392  1.0000
  Fe  Fe304     1.0  0.78444  0.28614  0.29370  1.0000
  S   S600      1.0  0.78301  0.31666  0.27031  1.0000
  S   S601      1.0  0.78258  0.23476  0.33559  1.0000
  S   S602      1.0  0.79402  0.28196  0.32430  1.0000
  Fe  Fe305     1.0  0.88396  0.09625  0.16284  1.0000
  S   S603      1.0  0.89715  0.12420  0.16112  1.0000
  S   S604      1.0  0.86096  0.09868  0.14316  1.0000
  C   C1463     1.0  0.78129  0.07309  0.16720  1.0000
  H   H2359     1.0  0.94105  0.10967  0.09387  1.0000
  Fe  Fe306     1.0  0.94124  0.19858  0.24484  1.0000
  S   S605      1.0  0.91560  0.19006  0.23486  1.0000
  S   S606      1.0  0.94150  0.23198  0.24437  1.0000
  Fe  Fe307     1.0  0.96468  0.15370  0.25437  1.0000
  S   S607      1.0  0.94115  0.14103  0.24529  1.0000
  Fe  Fe308     1.0  0.94170  0.16842  0.21818  1.0000
  S   S608      1.0  0.94459  0.16181  0.18645  1.0000
  Fe  Fe309     1.0  0.91731  0.16373  0.26287  1.0000
  S   S609      1.0  0.88691  0.15641  0.28262  1.0000
  S   S610      1.0  0.96736  0.17923  0.22563  1.0000
  S   S611      1.0  0.94073  0.17409  0.27446  1.0000
  S   S612      1.0  0.90743  0.19593  0.07607  1.0000
  S   S613      1.0  0.90672  0.23101  0.11511  1.0000
  Fe  Fe310     1.0  0.90644  0.21613  0.04431  1.0000
  S   S614      1.0  0.87739  0.21699  0.03271  1.0000
  C   C1464     1.0  0.93528  0.18282  0.16722  1.0000
  C   C1465     1.0  0.91917  0.19965  0.17239  1.0000
  C   C1466     1.0  0.91050  0.21472  0.15640  1.0000
  C   C1467     1.0  0.91829  0.21322  0.13527  1.0000
  C   C1468     1.0  0.94354  0.18194  0.14614  1.0000
  H   H2360     1.0  0.91297  0.20077  0.18863  1.0000
  H   H2361     1.0  0.89765  0.22738  0.16039  1.0000
  C   C1469     1.0  0.91299  0.13065  0.13631  1.0000
  C   C1470     1.0  0.92157  0.11580  0.12345  1.0000
  C   C1471     1.0  0.93445  0.12115  0.10377  1.0000
  C   C1472     1.0  0.93000  0.15616  0.10967  1.0000
  C   C1473     1.0  0.91753  0.15075  0.12950  1.0000
  H   H2362     1.0  0.91833  0.10021  0.12852  1.0000
  H   H2363     1.0  0.93319  0.17173  0.10425  1.0000
  H   H2364     1.0  0.91114  0.16229  0.13937  1.0000
  H   H2365     1.0  0.92102  0.07693  0.22962  1.0000
  Fe  Fe311     1.0  0.83077  0.13298  0.00586  1.0000
  C   C1474     1.0  0.85430  0.21302  0.31288  1.0000
  C   C1475     1.0  0.84280  0.20333  0.30477  1.0000
  C   C1476     1.0  0.85279  0.18553  0.29601  1.0000
  C   C1477     1.0  0.87424  0.17772  0.29493  1.0000
  C   C1478     1.0  0.88565  0.18745  0.30303  1.0000
  C   C1479     1.0  0.87568  0.20496  0.31211  1.0000
  H   H2366     1.0  0.82629  0.20957  0.30520  1.0000
  H   H2367     1.0  0.84411  0.17799  0.28966  1.0000
  H   H2368     1.0  0.90209  0.18126  0.30273  1.0000
  H   H2369     1.0  0.88459  0.21235  0.31847  1.0000
  H   H2370     1.0  0.86956  0.14023  0.24890  1.0000
  N   N151      1.0  0.81395  0.02020  0.11396  1.0000
  C   C1480     1.0  0.89120  0.15558  0.19743  1.0000
  C   C1481     1.0  0.80765  0.16243  0.27466  1.0000
  C   C1482     1.0  0.81295  0.18232  0.26878  1.0000
  C   C1483     1.0  0.79875  0.19976  0.27551  1.0000
  H   H2371     1.0  0.82834  0.18413  0.25967  1.0000
  H   H2372     1.0  0.80312  0.21496  0.27138  1.0000
  C   C1484     1.0  0.85410  0.99629  0.42644  1.0000
  Fe  Fe312     1.0  0.81739  0.11010  0.28816  1.0000
  C   C1485     1.0  0.78234  0.03563  0.17360  1.0000
  H   H2373     1.0  0.82553  0.16830  0.35720  1.0000
  C   C1486     1.0  0.87486  0.07986  0.38433  1.0000
  S   S615      1.0  0.95077  0.45729  0.03454  1.0000
  C   C1487     1.0  0.88321  0.05408  0.36212  1.0000
  C   C1488     1.0  0.86456  0.06289  0.35463  1.0000
  C   C1489     1.0  0.85116  0.08023  0.36201  1.0000
  C   C1490     1.0  0.85633  0.08869  0.37672  1.0000
  C   C1491     1.0  0.79957  0.03166  0.18308  1.0000
  S   S616      1.0  0.80847  0.13825  0.03568  1.0000
  H   H2374     1.0  0.83665  0.08697  0.35666  1.0000
  H   H2375     1.0  0.84579  0.10203  0.38247  1.0000
  C   C1492     1.0  0.80820  0.99940  0.11850  1.0000
  S   S617      1.0  0.97277  0.24788  0.02395  1.0000
  C   C1493     1.0  0.91646  0.48573  0.02372  1.0000
  H   H2376     1.0  0.81970  0.20698  0.01221  1.0000
  S   S618      1.0  0.94615  0.05337  0.25984  1.0000
  C   C1494     1.0  0.92218  0.06038  0.23044  1.0000
  C   C1495     1.0  0.76127  0.29883  0.37764  1.0000
  S   S619      1.0  0.94739  0.00756  0.36162  1.0000
  S   S620      1.0  0.75804  0.10182  0.34840  1.0000
  C   C1496     1.0  0.75848  0.11908  0.21277  1.0000
  H   H2377     1.0  0.77428  0.29437  0.36537  1.0000
  H   H2378     1.0  0.77674  0.31894  0.38648  1.0000
  C   C1497     1.0  0.76182  0.20825  0.04050  1.0000
  C   C1498     1.0  0.75762  0.08228  0.22623  1.0000
  C   C1499     1.0  0.77168  0.19425  0.02697  1.0000
  H   H2379     1.0  0.79272  0.13125  0.35660  1.0000
  N   N152      1.0  0.87420  0.14999  0.21525  1.0000
  C   C1500     1.0  0.93822  0.14157  0.09665  1.0000
  S   S621      1.0  0.80375  0.05072  0.26546  1.0000
  H   H2380     1.0  0.76504  0.04892  0.29674  1.0000
  C   C1501     1.0  0.88202  0.14436  0.23505  1.0000
  H   H2381     1.0  0.78177  0.13469  0.08093  1.0000
  C   C1502     1.0  0.92376  0.27033  0.18286  1.0000
  C   C1503     1.0  0.92402  0.28053  0.19857  1.0000
  C   C1504     1.0  0.93034  0.26881  0.21720  1.0000
  C   C1505     1.0  0.93594  0.24688  0.22028  1.0000
  C   C1506     1.0  0.93578  0.23673  0.20452  1.0000
  C   C1507     1.0  0.92965  0.24844  0.18589  1.0000
  H   H2382     1.0  0.91942  0.29743  0.19639  1.0000
  H   H2383     1.0  0.93046  0.27674  0.22935  1.0000
  H   H2384     1.0  0.94021  0.21983  0.20667  1.0000
  H   H2385     1.0  0.92904  0.24044  0.17403  1.0000
  C   C1508     1.0  0.92347  0.39958  0.12426  1.0000
  C   C1509     1.0  0.93318  0.39367  0.14158  1.0000
  C   C1510     1.0  0.95034  0.40228  0.14121  1.0000
  C   C1511     1.0  0.95816  0.41637  0.12331  1.0000
  C   C1512     1.0  0.94843  0.42211  0.10604  1.0000
  C   C1513     1.0  0.93092  0.41409  0.10670  1.0000
  H   H2386     1.0  0.92729  0.38272  0.15532  1.0000
  H   H2387     1.0  0.95734  0.39814  0.15487  1.0000
  H   H2388     1.0  0.95427  0.43285  0.09216  1.0000
  H   H2389     1.0  0.92312  0.41916  0.09354  1.0000
  C   C1514     1.0  0.80484  0.33157  0.17289  1.0000
  C   C1515     1.0  0.78507  0.33391  0.16849  1.0000
  Fe  Fe313     1.0  0.90408  0.07513  0.42366  1.0000
  N   N153      1.0  0.80002  0.16218  0.34724  1.0000
  C   C1516     1.0  0.79621  0.30478  0.20375  1.0000
  C   C1517     1.0  0.81046  0.31692  0.19049  1.0000
  H   H2390     1.0  0.78057  0.34522  0.15494  1.0000
  H   H2391     1.0  0.92970  0.99692  0.44160  1.0000
  H   H2392     1.0  0.94506  0.35935  0.06553  1.0000
  H   H2393     1.0  0.82552  0.31521  0.19419  1.0000
  C   C1518     1.0  0.84656  0.33521  0.24241  1.0000
  C   C1519     1.0  0.84130  0.32708  0.26401  1.0000
  C   C1520     1.0  0.82180  0.32122  0.27279  1.0000
  C   C1521     1.0  0.80745  0.32384  0.25999  1.0000
  C   C1522     1.0  0.81259  0.33231  0.23855  1.0000
  C   C1523     1.0  0.83206  0.33798  0.22977  1.0000
  H   H2394     1.0  0.85241  0.32505  0.27388  1.0000
  H   H2395     1.0  0.81788  0.31479  0.28942  1.0000
  H   H2396     1.0  0.80170  0.33397  0.22861  1.0000
  H   H2397     1.0  0.83581  0.34450  0.21317  1.0000
  H   H2398     1.0  0.77667  0.07065  0.00255  1.0000
  C   C1524     1.0  0.82367  0.08218  0.08069  1.0000
  C   C1525     1.0  0.82356  0.08119  0.10179  1.0000
  C   C1526     1.0  0.84236  0.07501  0.10910  1.0000
  C   C1527     1.0  0.86134  0.06961  0.09541  1.0000
  C   C1528     1.0  0.86148  0.07066  0.07429  1.0000
  C   C1529     1.0  0.84269  0.07726  0.06685  1.0000
  H   H2399     1.0  0.80893  0.08506  0.11258  1.0000
  H   H2400     1.0  0.84204  0.07406  0.12548  1.0000
  H   H2401     1.0  0.87611  0.06644  0.06364  1.0000
  H   H2402     1.0  0.84287  0.07781  0.05057  1.0000
  C   C1530     1.0  0.85096  0.17288  0.02313  1.0000
  C   C1531     1.0  0.85473  0.18885  0.03102  1.0000
  C   C1532     1.0  0.87438  0.19450  0.02530  1.0000
  H   H2403     1.0  0.86293  0.02883  0.43670  1.0000
  H   H2404     1.0  0.84215  0.19714  0.04129  1.0000
  S   S622      1.0  0.88492  0.06195  0.10450  1.0000
  S   S623      1.0  0.93961  0.20347  0.02988  1.0000
  H   H2405     1.0  0.76554  0.08176  0.23909  1.0000
  N   N154      1.0  0.93959  0.39182  0.04971  1.0000
  C   C1533     1.0  0.88672  0.16760  0.00405  1.0000
  H   H2406     1.0  0.74574  0.36854  0.30753  1.0000
  H   H2407     1.0  0.83176  0.00802  0.27555  1.0000
  H   H2408     1.0  0.75211  0.37569  0.43838  1.0000
  H   H2409     1.0  0.75976  0.34892  0.24257  1.0000
  H   H2410     1.0  0.76350  0.33002  0.33838  1.0000
  C   C1534     1.0  0.83922  0.33686  0.00778  1.0000
  H   H2411     1.0  0.82091  0.25389  0.99555  1.0000
  H   H2412     1.0  0.77100  0.15812  0.09159  1.0000
  H   H2413     1.0  0.75915  0.24596  0.00498  1.0000
  S   S624      1.0  0.88707  0.36701  0.99798  1.0000
  C   C1535     1.0  0.89013  0.99338  0.42812  1.0000
  H   H2414     1.0  0.90575  0.18779  0.00737  1.0000
  Fe  Fe314     1.0  0.80051  0.11239  0.99322  1.0000
  H   H2415     1.0  0.97244  0.19842  0.26828  1.0000
  H   H2416     1.0  0.78654  0.03690  0.10142  1.0000
  N   N155      1.0  0.84139  0.23876  0.08670  1.0000
  C   C1536     1.0  0.85125  0.25093  0.06672  1.0000
  C   C1537     1.0  0.81894  0.24847  0.09187  1.0000
  C   C1538     1.0  0.85187  0.23877  0.10358  1.0000
  C   C1539     1.0  0.84355  0.21690  0.08445  1.0000
  H   H2417     1.0  0.84924  0.26773  0.06742  1.0000
  H   H2418     1.0  0.84440  0.25027  0.05350  1.0000
  H   H2419     1.0  0.86831  0.24445  0.06266  1.0000
  H   H2420     1.0  0.81668  0.26511  0.09341  1.0000
  H   H2421     1.0  0.81066  0.24856  0.07941  1.0000
  H   H2422     1.0  0.81094  0.23979  0.10690  1.0000
  H   H2423     1.0  0.84482  0.22979  0.11895  1.0000
  H   H2424     1.0  0.85080  0.25503  0.10552  1.0000
  H   H2425     1.0  0.86882  0.23143  0.10014  1.0000
  H   H2426     1.0  0.86029  0.20923  0.08022  1.0000
  H   H2427     1.0  0.83596  0.21637  0.07168  1.0000
  H   H2428     1.0  0.83631  0.20716  0.09918  1.0000
  N   N156      1.0  0.90328  0.09021  0.30014  1.0000
  C   C1540     1.0  0.91691  0.09893  0.28063  1.0000
  C   C1541     1.0  0.90574  0.09811  0.31787  1.0000
  C   C1542     1.0  0.90929  0.06700  0.30424  1.0000
  C   C1543     1.0  0.88122  0.09686  0.29769  1.0000
  H   H2429     1.0  0.93370  0.09416  0.28186  1.0000
  H   H2430     1.0  0.91287  0.11638  0.27709  1.0000
  H   H2431     1.0  0.91543  0.09324  0.26697  1.0000
  H   H2432     1.0  0.89551  0.09195  0.33283  1.0000
  H   H2433     1.0  0.92214  0.09328  0.32032  1.0000
  H   H2434     1.0  0.90146  0.11562  0.31514  1.0000
  H   H2435     1.0  0.89979  0.05978  0.31907  1.0000
  H   H2436     1.0  0.92602  0.06148  0.30556  1.0000
  H   H2437     1.0  0.90705  0.06049  0.29144  1.0000
  H   H2438     1.0  0.87865  0.09083  0.28475  1.0000
  H   H2439     1.0  0.87633  0.11431  0.29417  1.0000
  H   H2440     1.0  0.87045  0.09095  0.31229  1.0000
  H   H2441     1.0  0.84561  0.25505  0.01625  1.0000
  C   C1544     1.0  0.76538  0.31967  0.12454  1.0000
  H   H2442     1.0  0.84328  0.16442  0.22915  1.0000
  H   H2443     1.0  0.79069  0.36604  0.20252  1.0000
  S   S625      1.0  0.80960  0.23444  0.04097  1.0000
  C   C1545     1.0  0.98026  0.11045  0.47113  1.0000
  C   C1546     1.0  0.97945  0.08743  0.16850  1.0000
  S   S626      1.0  0.79326  0.31142  0.08894  1.0000
  C   C1547     1.0  0.85652  0.16820  0.21607  1.0000
  H   H2444     1.0  0.99282  0.41850  0.02234  1.0000
  H   H2445     1.0  0.78154  0.39316  0.20437  1.0000
  C   C1548     1.0  0.86705  0.13193  0.21244  1.0000
  H   H2446     1.0  0.88003  0.11794  0.21154  1.0000
  H   H2447     1.0  0.85419  0.12733  0.22567  1.0000
  H   H2448     1.0  0.90469  0.14214  0.19597  1.0000
  H   H2449     1.0  0.89539  0.13073  0.23498  1.0000
  C   C1549     1.0  0.91192  0.05403  0.21802  1.0000
  H   H2450     1.0  0.96049  0.14048  0.41006  1.0000
  H   H2451     1.0  0.98108  0.42902  0.99983  1.0000
  C   C1550     1.0  0.76402  0.04290  0.28361  1.0000
  H   H2452     1.0  0.77100  0.16269  0.33893  1.0000
  H   H2453     1.0  0.79275  0.03263  0.23654  1.0000
  H   H2454     1.0  0.97960  0.27815  0.08834  1.0000
  C   C1551     1.0  0.93821  0.48129  0.02168  1.0000
  H   H2455     1.0  0.82594  0.31611  0.10545  1.0000
  S   S627      1.0  0.77246  0.01470  0.17131  1.0000
  H   H2456     1.0  0.84817  0.28128  0.00200  1.0000
  H   H2457     1.0  0.78314  0.39075  0.39970  1.0000
  H   H2458     1.0  0.98137  0.08447  0.15246  1.0000
  H   H2459     1.0  0.98542  0.23800  0.23935  1.0000
  H   H2460     1.0  0.82443  0.33759  0.06958  1.0000
  S   S628      1.0  0.77354  0.32759  0.03432  1.0000
  N   N157      1.0  0.86681  0.26611  0.24690  1.0000
  C   C1552     1.0  0.87904  0.28047  0.24945  1.0000
  C   C1553     1.0  0.87781  0.25644  0.22859  1.0000
  C   C1554     1.0  0.84587  0.27806  0.24356  1.0000
  C   C1555     1.0  0.86456  0.24947  0.26606  1.0000
  H   H2461     1.0  0.87109  0.28823  0.26299  1.0000
  H   H2462     1.0  0.88123  0.29320  0.23525  1.0000
  H   H2463     1.0  0.89484  0.27190  0.25226  1.0000
  H   H2464     1.0  0.89337  0.24676  0.23096  1.0000
  H   H2465     1.0  0.86877  0.24598  0.22580  1.0000
  H   H2466     1.0  0.88046  0.26863  0.21399  1.0000
  H   H2467     1.0  0.83641  0.26795  0.24080  1.0000
  H   H2468     1.0  0.84696  0.29141  0.22983  1.0000
  H   H2469     1.0  0.83685  0.28476  0.25748  1.0000
  H   H2470     1.0  0.88006  0.24006  0.26909  1.0000
  H   H2471     1.0  0.85524  0.23839  0.26491  1.0000
  H   H2472     1.0  0.85649  0.25628  0.28021  1.0000
  H   H2473     1.0  0.95645  0.40071  0.01814  1.0000
  H   H2474     1.0  0.85581  0.03751  0.41132  1.0000
  H   H2475     1.0  0.75711  0.11606  0.10905  1.0000
  C   C1556     1.0  0.97550  0.26856  0.03435  1.0000
  C   C1557     1.0  0.97775  0.26973  0.10499  1.0000
  H   H2476     1.0  0.97892  0.13882  0.42575  1.0000
  H   H2477     1.0  0.78353  0.03459  0.12917  1.0000
  C   C1558     1.0  0.87937  0.00490  0.39471  1.0000
  H   H2478     1.0  0.99379  0.38891  0.15315  1.0000
  H   H2479     1.0  0.98230  0.03044  0.35025  1.0000
  Fe  Fe315     1.0  0.75618  0.30212  0.03672  1.0000
  H   H2480     1.0  0.75879  0.11685  0.07150  1.0000
  S   S629      1.0  0.86251  0.14245  0.99874  1.0000
  Fe  Fe316     1.0  0.91871  0.22128  0.08360  1.0000
  H   H2481     1.0  0.94216  0.19657  0.11424  1.0000
  H   H2482     1.0  0.95618  0.16921  0.14194  1.0000
  S   S630      1.0  0.91408  0.24339  0.05311  1.0000
  H   H2483     1.0  0.86303  0.13820  0.05332  1.0000
  H   H2484     1.0  0.89720  0.16886  0.19929  1.0000
  H   H2485     1.0  0.88741  0.15770  0.23770  1.0000
  H   H2486     1.0  0.85045  0.17304  0.20125  1.0000
  Fe  Fe317     1.0  0.84374  0.08032  0.17201  1.0000
  C   C1559     1.0  0.80758  0.04841  0.18473  1.0000
  C   C1560     1.0  0.77303  0.05636  0.16587  1.0000
  H   H2487     1.0  0.90298  0.06569  0.20761  1.0000
  C   C1561     1.0  0.79858  0.06910  0.17662  1.0000
  C   C1562     1.0  0.95427  0.11955  0.16115  1.0000
  Fe  Fe318     1.0  0.94109  0.18458  0.06240  1.0000
  S   S631      1.0  0.95173  0.14954  0.07100  1.0000
  H   H2488     1.0  0.88336  0.12480  0.03541  1.0000
  H   H2489     1.0  0.86891  0.11014  0.05796  1.0000
  H   H2490     1.0  0.94419  0.01219  0.25546  1.0000
  H   H2491     1.0  0.77764  0.18800  0.33413  1.0000
  C   C1563     1.0  0.87604  0.12430  0.05230  1.0000
  H   H2492     1.0  0.80986  0.19115  0.34423  1.0000
  H   H2493     1.0  0.97311  0.13587  0.37311  1.0000
  Fe  Fe319     1.0  0.97273  0.46381  0.05103  1.0000
  H   H2494     1.0  0.75785  0.17612  0.30144  1.0000
  H   H2495     1.0  0.75151  0.19717  0.25874  1.0000
  H   H2496     1.0  0.93837  0.12885  0.16616  1.0000
  C   C1564     1.0  0.94052  0.40411  0.02797  1.0000
  H   H2497     1.0  0.94054  0.28197  0.09167  1.0000
  H   H2498     1.0  0.86126  0.18199  0.21858  1.0000
  S   S632      1.0  0.85868  0.05237  0.33562  1.0000
  Fe  Fe320     1.0  0.93648  0.08302  0.44436  1.0000
  S   S633      1.0  0.95264  0.20849  0.07213  1.0000
  C   C1565     1.0  0.88844  0.06262  0.37682  1.0000
  C   C1566     1.0  0.77969  0.37688  0.21242  1.0000
  H   H2499     1.0  0.91673  0.10568  0.04594  1.0000
  H   H2500     1.0  0.90839  0.14444  0.04000  1.0000
  C   C1567     1.0  0.77888  0.19748  0.28740  1.0000
  H   H2501     1.0  0.89235  0.12238  0.09681  1.0000
  C   C1568     1.0  0.74656  0.13154  0.07135  1.0000
  H   H2502     1.0  0.76631  0.22950  0.24996  1.0000
  H   H2503     1.0  0.75905  0.04154  0.00447  1.0000
  S   S634      1.0  0.77619  0.11636  0.02246  1.0000
  H   H2504     1.0  0.88786  0.15758  0.05787  1.0000
  C   C1569     1.0  0.83467  0.34703  0.07218  1.0000
  N   N158      1.0  0.75784  0.37434  0.21569  1.0000
  Fe  Fe321     1.0  0.94761  0.22908  0.04120  1.0000
  C   C1570     1.0  0.91806  0.39658  0.06200  1.0000
  S   S635      1.0  0.76063  0.21887  0.29600  1.0000
  N   N159      1.0  0.89150  0.12389  0.06467  1.0000
  C   C1571     1.0  0.77314  0.22143  0.04430  1.0000
  H   H2505     1.0  0.96174  0.36491  0.04033  1.0000
  C   C1572     1.0  0.90852  0.10527  0.06259  1.0000
  C   C1573     1.0  0.90028  0.14319  0.05676  1.0000
  H   H2506     1.0  0.90241  0.09044  0.06830  1.0000
  C   C1574     1.0  0.82472  0.02115  0.13027  1.0000
  C   C1575     1.0  0.76803  0.38837  0.39777  1.0000
  S   S636      1.0  0.88035  0.09116  0.40291  1.0000
  C   C1576     1.0  0.95420  0.39745  0.05954  1.0000
  H   H2507     1.0  0.80037  0.29381  0.21763  1.0000
  C   C1577     1.0  0.78765  0.16030  0.28628  1.0000
  H   H2508     1.0  0.86816  0.13655  0.08911  1.0000
  H   H2509     1.0  0.98295  0.07190  0.17918  1.0000
  H   H2510     1.0  0.77451  0.08907  0.16065  1.0000
  C   C1578     1.0  0.95611  0.10252  0.19705  1.0000
  H   H2511     1.0  0.87440  0.10836  0.09344  1.0000
  H   H2512     1.0  0.76824  0.17512  0.36054  1.0000
  C   C1579     1.0  0.76394  0.05134  0.98941  1.0000
  C   C1580     1.0  0.77326  0.17784  0.29240  1.0000
  C   C1581     1.0  0.88114  0.12278  0.08699  1.0000
  H   H2513     1.0  0.92039  0.10432  0.07187  1.0000
  H   H2514     1.0  0.91194  0.14344  0.06583  1.0000
  H   H2515     1.0  0.82931  0.15189  0.32713  1.0000
  H   H2516     1.0  0.76829  0.37115  0.40213  1.0000
  H   H2517     1.0  0.95578  0.25886  0.14373  1.0000
  Fe  Fe322     1.0  0.78356  0.14832  0.01657  1.0000
  H   H2518     1.0  0.81525  0.01698  0.14626  1.0000
  H   H2519     1.0  0.89381  0.04076  0.35637  1.0000
  H   H2520     1.0  0.83567  0.16889  0.02753  1.0000
  S   S637      1.0  0.81472  0.28943  0.03883  1.0000
  H   H2521     1.0  0.80008  0.18343  0.00596  1.0000
  C   C1582     1.0  0.75160  0.39294  0.43310  1.0000
  H   H2522     1.0  0.94711  0.30871  0.05861  1.0000
  H   H2523     1.0  0.84889  0.99643  0.44351  1.0000
  S   S638      1.0  0.98015  0.42664  0.12240  1.0000
  C   C1583     1.0  0.86822  0.02760  0.41988  1.0000
  H   H2524     1.0  0.89432  0.47285  0.99182  1.0000
  H   H2525     1.0  0.81210  0.17399  0.31482  1.0000
  H   H2526     1.0  0.97412  0.15602  0.29571  1.0000
  H   H2527     1.0  0.93486  0.36424  0.04206  1.0000
  H   H2528     1.0  0.90297  0.05590  0.38229  1.0000
  S   S639      1.0  0.75767  0.29394  0.21686  1.0000
  H   H2529     1.0  0.97726  0.10519  0.40311  1.0000
  H   H2530     1.0  0.78330  0.14510  0.29084  1.0000
  H   H2531     1.0  0.88636  0.99436  0.44501  1.0000
  Fe  Fe323     1.0  0.83155  0.07061  0.31991  1.0000
  Fe  Fe324     1.0  0.80612  0.06873  0.28871  1.0000
  H   H2532     1.0  0.80490  0.37359  0.09321  1.0000
  H   H2533     1.0  0.80657  0.14825  0.32024  1.0000
  C   C1584     1.0  0.76896  0.32248  0.10271  1.0000
  C   C1585     1.0  0.77973  0.03355  0.24978  1.0000
  H   H2534     1.0  0.76602  0.39611  0.43588  1.0000
  C   C1586     1.0  0.79246  0.19400  0.01665  1.0000
  H   H2535     1.0  0.85117  0.33985  0.06602  1.0000
  C   C1587     1.0  0.96108  0.10593  0.47089  1.0000
  N   N160      1.0  0.95995  0.25881  0.11099  1.0000
  C   C1588     1.0  0.89053  0.18353  0.01205  1.0000
  C   C1589     1.0  0.80364  0.20720  0.02031  1.0000
  H   H2536     1.0  0.81628  0.13314  0.36338  1.0000
  H   H2537     1.0  0.75961  0.05944  0.15865  1.0000
  C   C1590     1.0  0.74596  0.31843  0.40577  1.0000
  Fe  Fe325     1.0  0.79402  0.26777  0.04012  1.0000
  H   H2538     1.0  0.75147  0.31168  0.33261  1.0000
  C   C1591     1.0  0.85433  0.26423  0.00204  1.0000
  C   C1592     1.0  0.75665  0.21788  0.21864  1.0000
  C   C1593     1.0  0.77827  0.17246  0.34516  1.0000
  C   C1594     1.0  0.86872  0.35466  0.99366  1.0000
  H   H2539     1.0  0.94583  0.07058  0.18588  1.0000
  H   H2540     1.0  0.77011  0.07751  0.21295  1.0000
  H   H2541     1.0  0.96564  0.12934  0.16050  1.0000
  H   H2542     1.0  0.92609  0.00102  0.23353  1.0000
  Fe  Fe326     1.0  0.78755  0.30470  0.06025  1.0000
  H   H2543     1.0  0.85273  0.31838  0.10174  1.0000
  S   S640      1.0  0.90698  0.04131  0.44039  1.0000
  H   H2544     1.0  0.74930  0.13519  0.20811  1.0000
  H   H2545     1.0  0.80651  0.01566  0.18945  1.0000
  Fe  Fe327     1.0  0.88341  0.05112  0.18289  1.0000
  H   H2546     1.0  0.75564  0.33615  0.07512  1.0000
  C   C1595     1.0  0.99061  0.15123  0.29583  1.0000
  Fe  Fe328     1.0  0.78594  0.09187  0.32406  1.0000
  H   H2547     1.0  0.82782  0.33104  0.02104  1.0000
  S   S641      1.0  0.94232  0.04989  0.46200  1.0000
  H   H2548     1.0  0.87096  0.26062  0.00371  1.0000
  C   C1596     1.0  0.93376  0.04532  0.24403  1.0000
  H   H2549     1.0  0.92949  0.40047  0.02012  1.0000
  H   H2550     1.0  0.84084  0.00513  0.41859  1.0000
  C   C1597     1.0  0.80917  0.35727  0.10209  1.0000
  N   N161      1.0  0.95812  0.09903  0.17568  1.0000
  H   H2551     1.0  0.94453  0.23976  0.13825  1.0000
  C   C1598     1.0  0.78089  0.04187  0.26654  1.0000
  H   H2552     1.0  0.92650  0.09433  0.18244  1.0000
  H   H2553     1.0  0.83109  0.36306  0.06239  1.0000
  H   H2554     1.0  0.74785  0.07004  0.23181  1.0000
  H   H2555     1.0  0.95017  0.41448  0.06009  1.0000
  S   S642      1.0  0.90152  0.08746  0.45276  1.0000
  H   H2556     1.0  0.95550  0.11765  0.14485  1.0000
  S   S643      1.0  0.81476  0.10333  0.32296  1.0000
  C   C1599     1.0  0.94553  0.36911  0.04937  1.0000
  C   C1600     1.0  0.80919  0.17573  0.35524  1.0000
  S   S644      1.0  0.80236  0.05830  0.32375  1.0000
  H   H2557     1.0  0.84009  0.01002  0.12966  1.0000
  C   C1601     1.0  0.79426  0.22041  0.03459  1.0000
  H   H2558     1.0  0.76750  0.34095  0.21789  1.0000
  H   H2559     1.0  0.82046  0.04531  0.19270  1.0000
  S   S645      1.0  0.86043  0.04869  0.16485  1.0000
  C   C1602     1.0  0.93518  0.02393  0.24508  1.0000
  H   H2560     1.0  0.97782  0.23119  0.09929  1.0000
  C   C1603     1.0  0.75623  0.35254  0.22656  1.0000
  C   C1604     1.0  0.74544  0.32709  0.13568  1.0000
  H   H2561     1.0  0.84187  0.37683  0.08826  1.0000
  H   H2562     1.0  0.95385  0.38846  0.07599  1.0000
  S   S646      1.0  0.89896  0.02441  0.20516  1.0000
  H   H2563     1.0  0.74749  0.42894  0.38777  1.0000
  H   H2564     1.0  0.84798  0.04816  0.25744  1.0000
  H   H2565     1.0  0.76113  0.01998  0.23694  1.0000
  H   H2566     1.0  0.74518  0.40572  0.22132  1.0000
  C   C1605     1.0  0.75167  0.37872  0.19514  1.0000
  H   H2567     1.0  0.98902  0.99371  0.38688  1.0000
  C   C1606     1.0  0.76915  0.14910  0.08059  1.0000
  H   H2568     1.0  0.89406  0.01098  0.38751  1.0000
  H   H2569     1.0  0.84273  0.36141  0.11417  1.0000
  S   S647      1.0  0.76822  0.28068  0.06443  1.0000
  S   S648      1.0  0.78723  0.10121  0.28928  1.0000
  C   C1607     1.0  0.95807  0.28163  0.04404  1.0000
  Fe  Fe329     1.0  0.90753  0.05348  0.46843  1.0000
  H   H2570     1.0  0.84602  0.03051  0.24233  1.0000
  H   H2571     1.0  0.97236  0.23549  0.13570  1.0000
  H   H2572     1.0  0.82020  0.02389  0.08032  1.0000
  C   C1608     1.0  0.96069  0.29853  0.05138  1.0000
  H   H2573     1.0  0.86188  0.35356  0.09221  1.0000
  C   C1609     1.0  0.94268  0.08663  0.17600  1.0000
  C   C1610     1.0  0.87646  0.02101  0.27854  1.0000
  S   S649      1.0  0.82750  0.09929  0.01028  1.0000
  C   C1611     1.0  0.84506  0.36045  0.09739  1.0000
  H   H2574     1.0  0.88146  0.00758  0.29104  1.0000
  H   H2575     1.0  0.79993  0.17897  0.37073  1.0000
  H   H2576     1.0  0.76058  0.23130  0.20577  1.0000
  H   H2577     1.0  0.98824  0.16501  0.32236  1.0000
  Fe  Fe330     1.0  0.96068  0.02528  0.28173  1.0000
  C   C1612     1.0  0.79476  0.03677  0.11391  1.0000
  H   H2578     1.0  0.77775  0.31120  0.13293  1.0000
  C   C1613     1.0  0.91313  0.03262  0.21924  1.0000
  S   S650      1.0  0.74739  0.33647  0.42026  1.0000
  C   C1614     1.0  0.83620  0.32609  0.10694  1.0000
  H   H2579     1.0  0.99150  0.09641  0.16792  1.0000
  H   H2580     1.0  0.97560  0.16067  0.40415  1.0000
  H   H2581     1.0  0.74650  0.36755  0.33440  1.0000
  C   C1615     1.0  0.76267  0.31271  0.38964  1.0000
  H   H2582     1.0  0.94253  0.27894  0.04550  1.0000
  H   H2583     1.0  0.92644  0.26679  0.11423  1.0000
  H   H2584     1.0  0.79832  0.34808  0.10028  1.0000
  H   H2585     1.0  0.80597  0.35788  0.11902  1.0000
  C   C1616     1.0  0.82808  0.02344  0.09319  1.0000
  N   N162      1.0  0.83127  0.34771  0.09465  1.0000
  H   H2586     1.0  0.83381  0.32598  0.12396  1.0000
  C   C1617     1.0  0.80006  0.14164  0.36194  1.0000
  H   H2587     1.0  0.79114  0.14354  0.37795  1.0000
  H   H2588     1.0  0.90660  0.39235  0.05518  1.0000
  H   H2589     1.0  0.75527  0.32459  0.17908  1.0000
  C   C1618     1.0  0.99022  0.03177  0.36240  1.0000
  S   S651      1.0  0.75860  0.17632  0.02351  1.0000
  H   H2590     1.0  0.76297  0.33049  0.31163  1.0000
  C   C1619     1.0  0.77077  0.32212  0.18196  1.0000
  C   C1620     1.0  0.74475  0.02762  0.26685  1.0000
  C   C1621     1.0  0.81259  0.15890  0.32648  1.0000
  S   S652      1.0  0.75476  0.27419  0.30807  1.0000
  H   H2591     1.0  0.91685  0.38773  0.07858  1.0000
  H   H2592     1.0  0.77187  0.15896  0.06451  1.0000
  H   H2593     1.0  0.97063  0.22272  0.27562  1.0000
  H   H2594     1.0  0.90742  0.47408  0.03298  1.0000
  H   H2595     1.0  0.79732  0.99666  0.13403  1.0000
  C   C1622     1.0  0.75290  0.33358  0.09201  1.0000
  S   S653      1.0  0.96174  0.47480  0.08150  1.0000
  Fe  Fe331     1.0  0.98777  0.44887  0.09154  1.0000
  H   H2596     1.0  0.78492  0.37339  0.22763  1.0000
  C   C1623     1.0  0.86681  0.16242  0.00927  1.0000
  S   S654      1.0  0.98349  0.32270  0.06025  1.0000
  C   C1624     1.0  0.77629  0.30751  0.19950  1.0000
  H   H2597     1.0  0.94282  0.08481  0.15992  1.0000
  C   C1625     1.0  0.92492  0.01760  0.23266  1.0000
  Fe  Fe332     1.0  0.96025  0.00637  0.32776  1.0000
  H   H2598     1.0  0.94025  0.11152  0.20275  1.0000
  S   S655      1.0  0.97655  0.03067  0.30498  1.0000
  H   H2599     1.0  0.91304  0.41361  0.06251  1.0000
  C   C1626     1.0  0.85416  0.34657  0.01080  1.0000
  H   H2600     1.0  0.88230  0.03477  0.41363  1.0000
  N   N163      1.0  0.75000  0.40004  0.41077  1.0000
  H   H2601     1.0  0.95005  0.23530  0.10150  1.0000
  H   H2602     1.0  0.93792  0.28695  0.11730  1.0000
  H   H2603     1.0  0.77096  0.11552  0.19897  1.0000
  H   H2604     1.0  0.84239  0.01080  0.09236  1.0000
  C   C1627     1.0  0.74607  0.03559  0.28384  1.0000
  H   H2605     1.0  0.93645  0.42135  0.02758  1.0000
  H   H2606     1.0  0.79830  0.05265  0.11113  1.0000
  C   C1628     1.0  0.94039  0.27432  0.10839  1.0000
  N   N164      1.0  0.74820  0.14372  0.08620  1.0000
  H   H2607     1.0  0.86879  0.03477  0.28609  1.0000
  H   H2608     1.0  0.87041  0.03817  0.23943  1.0000
  H   H2609     1.0  0.74729  0.38572  0.24462  1.0000
  H   H2610     1.0  0.92049  0.01193  0.47853  1.0000
  C   C1629     1.0  0.98870  0.13826  0.37370  1.0000
  H   H2611     1.0  0.76644  0.11929  0.22535  1.0000
  H   H2612     1.0  0.96512  0.25115  0.08060  1.0000
  H   H2613     1.0  0.82766  0.03717  0.12853  1.0000
  C   C1630     1.0  0.98075  0.30227  0.04946  1.0000
  H   H2614     1.0  0.95874  0.08737  0.20854  1.0000
  H   H2615     1.0  0.75250  0.39510  0.18655  1.0000
  C   C1631     1.0  0.97621  0.14347  0.40936  1.0000
  H   H2616     1.0  0.77149  0.20818  0.22308  1.0000
  H   H2617     1.0  0.96752  0.11188  0.19736  1.0000
  C   C1632     1.0  0.95815  0.24772  0.13315  1.0000
  H   H2618     1.0  0.74617  0.13967  0.11936  1.0000
  C   C1633     1.0  0.74995  0.42281  0.40420  1.0000
  C   C1634     1.0  0.96344  0.24343  0.09750  1.0000
  H   H2619     1.0  0.80017  0.99807  0.10643  1.0000
  C   C1635     1.0  0.98127  0.20739  0.27357  1.0000
  N   N165      1.0  0.87294  0.00555  0.41730  1.0000
  H   H2620     1.0  0.98711  0.21396  0.23153  1.0000
  H   H2621     1.0  0.74855  0.14082  0.05499  1.0000
  H   H2622     1.0  0.84678  0.99761  0.29595  1.0000
  N   N166      1.0  0.74493  0.10335  0.21986  1.0000
  H   H2623     1.0  0.89085  0.02490  0.26729  1.0000
  C   C1636     1.0  0.75376  0.32821  0.32804  1.0000
  H   H2624     1.0  0.99173  0.11265  0.45670  1.0000
  C   C1637     1.0  0.87279  0.99727  0.25853  1.0000
  H   H2625     1.0  0.98443  0.19863  0.28925  1.0000
  H   H2626     1.0  0.90489  0.99930  0.42081  1.0000
  S   S656      1.0  0.98663  0.99960  0.27103  1.0000
  N   N167      1.0  0.86221  0.01590  0.26785  1.0000
  H   H2627     1.0  0.89917  0.15947  0.99347  1.0000
  H   H2628     1.0  0.97816  0.03183  0.37721  1.0000
  H   H2629     1.0  0.99157  0.46296  0.99255  1.0000
  C   C1638     1.0  0.75155  0.23849  0.24486  1.0000
  H   H2630     1.0  0.83485  0.02504  0.29076  1.0000
  H   H2631     1.0  0.85252  0.22624  0.99688  1.0000
  H   H2632     1.0  0.74858  0.11978  0.30736  1.0000
  H   H2633     1.0  0.74568  0.20851  0.04844  1.0000
  H   H2634     1.0  0.75542  0.25232  0.23264  1.0000
  C   C1639     1.0  0.84311  0.01138  0.28323  1.0000
  H   H2635     1.0  0.74713  0.09966  0.18847  1.0000
  H   H2636     1.0  0.88727  0.00013  0.24684  1.0000
  C   C1640     1.0  0.74512  0.13093  0.10773  1.0000
  H   H2637     1.0  0.98923  0.15518  0.36740  1.0000
  C   C1641     1.0  0.99267  0.10875  0.40262  1.0000
  H   H2638     1.0  0.99274  0.25850  0.10684  1.0000
  N   N168      1.0  0.99271  0.13146  0.39529  1.0000
  Fe  Fe333     1.0  0.93823  0.41198  0.95910  1.0000
  S   S657      1.0  0.90332  0.41912  0.96812  1.0000
  Fe  Fe334     1.0  0.93761  0.38494  0.92895  1.0000
  S   S658      1.0  0.90259  0.39019  0.93542  1.0000
  S   S659      1.0  0.95701  0.37135  0.90129  1.0000
  Fe  Fe335     1.0  0.90388  0.42362  0.93379  1.0000
  S   S660      1.0  0.88643  0.45292  0.91604  1.0000
  Fe  Fe336     1.0  0.90552  0.38492  0.96914  1.0000
  H   H2639     1.0  0.85343  0.34150  0.95478  1.0000
  S   S661      1.0  0.93855  0.41890  0.92482  1.0000
  C   C1642     1.0  0.77720  0.07636  0.95069  1.0000
  C   C1643     1.0  0.97084  0.48894  0.92901  1.0000
  C   C1644     1.0  0.90084  0.48794  0.89304  1.0000
  H   H2640     1.0  0.86661  0.47971  0.97090  1.0000
  H   H2641     1.0  0.91841  0.48168  0.97995  1.0000
  C   C1645     1.0  0.78076  0.08035  0.96896  1.0000
  H   H2642     1.0  0.82784  0.25906  0.96735  1.0000
  C   C1646     1.0  0.97223  0.47122  0.92093  1.0000
  H   H2643     1.0  0.94768  0.00881  0.52744  1.0000
  C   C1647     1.0  0.95857  0.01836  0.51614  1.0000
  H   H2644     1.0  0.93769  0.48217  0.75864  1.0000
  H   H2645     1.0  0.94773  0.45760  0.85816  1.0000
  S   S662      1.0  0.79372  0.10111  0.96663  1.0000
  C   C1648     1.0  0.83891  0.33501  0.98756  1.0000
  Fe  Fe337     1.0  0.97568  0.48862  0.77409  1.0000
  H   H2646     1.0  0.96906  0.43886  0.92818  1.0000
  N   N169      1.0  0.85233  0.25877  0.98275  1.0000
  C   C1649     1.0  0.90307  0.00726  0.53133  1.0000
  C   C1650     1.0  0.96133  0.17442  0.58349  1.0000
  C   C1651     1.0  0.90608  0.47512  0.97693  1.0000
  H   H2647     1.0  0.97483  0.12561  0.57196  1.0000
  C   C1652     1.0  0.98065  0.41016  0.86844  1.0000
  C   C1653     1.0  0.96128  0.46877  0.96432  1.0000
  H   H2648     1.0  0.95699  0.46784  0.98112  1.0000
  H   H2649     1.0  0.88533  0.46421  0.95383  1.0000
  S   S663      1.0  0.94083  0.37721  0.96273  1.0000
  H   H2650     1.0  0.88063  0.26874  0.96473  1.0000
  C   C1654     1.0  0.96543  0.48768  0.95079  1.0000
  C   C1655     1.0  0.95023  0.10625  0.50823  1.0000
  C   C1656     1.0  0.96775  0.45251  0.93444  1.0000
  H   H2651     1.0  0.97380  0.43750  0.89269  1.0000
  H   H2652     1.0  0.91362  0.45934  0.97322  1.0000
  H   H2653     1.0  0.95157  0.13672  0.58854  1.0000
  C   C1657     1.0  0.96197  0.45131  0.95610  1.0000
  S   S664      1.0  0.89209  0.04190  0.50155  1.0000
  C   C1658     1.0  0.85360  0.34287  0.97045  1.0000
  H   H2654     1.0  0.98848  0.04076  0.50685  1.0000
  H   H2655     1.0  0.96961  0.18538  0.58667  1.0000
  H   H2656     1.0  0.96032  0.04852  0.54924  1.0000
  H   H2657     1.0  0.97463  0.00860  0.51551  1.0000
  H   H2658     1.0  0.86037  0.23145  0.96878  1.0000
  S   S665      1.0  0.95573  0.42800  0.97296  1.0000
  C   C1659     1.0  0.90382  0.46609  0.89610  1.0000
  C   C1660     1.0  0.96116  0.03385  0.54389  1.0000
  S   S666      1.0  0.98389  0.41191  0.81300  1.0000
  N   N170      1.0  0.89642  0.48915  0.95960  1.0000
  H   H2659     1.0  0.86256  0.26797  0.94936  1.0000
  C   C1661     1.0  0.97225  0.05017  0.50770  1.0000
  H   H2660     1.0  0.78265  0.08581  0.93558  1.0000
  S   S667      1.0  0.95526  0.47170  0.80161  1.0000
  H   H2661     1.0  0.89305  0.48343  0.85219  1.0000
  C   C1662     1.0  0.76704  0.06001  0.95173  1.0000
  H   H2662     1.0  0.82281  0.28006  0.98118  1.0000
  C   C1663     1.0  0.98566  0.14420  0.59760  1.0000
  H   H2663     1.0  0.98461  0.31039  0.97128  1.0000
  H   H2664     1.0  0.93354  0.06615  0.52741  1.0000
  H   H2665     1.0  0.93163  0.05493  0.50654  1.0000
  H   H2666     1.0  0.96458  0.41211  0.87828  1.0000
  S   S668      1.0  0.96239  0.00342  0.59441  1.0000
  C   C1664     1.0  0.96436  0.14069  0.57504  1.0000
  H   H2667     1.0  0.95467  0.02108  0.50041  1.0000
  N   N171      1.0  0.97593  0.15477  0.57922  1.0000
  H   H2668     1.0  0.98081  0.39869  0.90956  1.0000
  H   H2669     1.0  0.91879  0.47537  0.93516  1.0000
  C   C1665     1.0  0.91865  0.00506  0.49509  1.0000
  C   C1666     1.0  0.97531  0.34782  0.90507  1.0000
  H   H2670     1.0  0.87972  0.35861  0.96020  1.0000
  C   C1667     1.0  0.99355  0.34507  0.88969  1.0000
  C   C1668     1.0  0.86845  0.35269  0.97348  1.0000
  C   C1669     1.0  0.97217  0.33196  0.92291  1.0000
  N   N172      1.0  0.95686  0.03837  0.52251  1.0000
  H   H2671     1.0  0.95775  0.33375  0.93449  1.0000
  C   C1670     1.0  0.98760  0.31352  0.92543  1.0000
  C   C1671     1.0  0.93487  0.46604  0.86810  1.0000
  S   S669      1.0  0.74803  0.02619  0.97324  1.0000
  H   H2672     1.0  0.76493  0.05682  0.93747  1.0000
  C   C1672     1.0  0.87945  0.48044  0.95677  1.0000
  H   H2673     1.0  0.92344  0.04246  0.53320  1.0000
  H   H2674     1.0  0.95381  0.18277  0.56986  1.0000
  C   C1673     1.0  0.98508  0.03414  0.58597  1.0000
  C   C1674     1.0  0.86373  0.27158  0.96426  1.0000
  H   H2675     1.0  0.76233  0.25197  0.96664  1.0000
  H   H2676     1.0  0.88770  0.46973  0.83499  1.0000
  H   H2677     1.0  0.87786  0.23206  0.98487  1.0000
  S   S670      1.0  0.82052  0.32267  0.98338  1.0000
  Fe  Fe338     1.0  0.98431  0.44637  0.80331  1.0000
  H   H2678     1.0  0.92284  0.43825  0.88545  1.0000
  H   H2679     1.0  0.89276  0.01598  0.54279  1.0000
  C   C1675     1.0  0.89646  0.48154  0.83558  1.0000
  C   C1676     1.0  0.92082  0.45511  0.88355  1.0000
  H   H2680     1.0  0.99074  0.44667  0.86899  1.0000
  C   C1677     1.0  0.93547  0.05105  0.52243  1.0000
  H   H2681     1.0  0.94963  0.02522  0.55554  1.0000
  H   H2682     1.0  0.90802  0.48061  0.74338  1.0000
  H   H2683     1.0  0.97624  0.47215  0.90414  1.0000
  S   S671      1.0  0.80607  0.14563  0.98609  1.0000
  H   H2684     1.0  0.97012  0.04459  0.58946  1.0000
  S   S672      1.0  0.97445  0.11377  0.53199  1.0000
  C   C1678     1.0  0.90524  0.01628  0.50988  1.0000
  H   H2685     1.0  0.93838  0.10507  0.52250  1.0000
  H   H2686     1.0  0.88522  0.48752  0.79835  1.0000
  H   H2687     1.0  0.95729  0.14789  0.56090  1.0000
  H   H2688     1.0  0.94864  0.17122  0.59739  1.0000
  H   H2689     1.0  0.97373  0.14027  0.61199  1.0000
  C   C1679     1.0  0.93220  0.48784  0.86569  1.0000
  H   H2690     1.0  0.98498  0.30094  0.93883  1.0000
  Fe  Fe339     1.0  0.96859  0.48568  0.82097  1.0000
  H   H2691     1.0  0.98445  0.39420  0.86476  1.0000
  C   C1680     1.0  0.76034  0.04740  0.97113  1.0000
  H   H2692     1.0  0.85728  0.28874  0.96361  1.0000
  H   H2693     1.0  0.91346  0.47477  0.83148  1.0000
  H   H2694     1.0  0.98591  0.16732  0.54632  1.0000
  C   C1681     1.0  0.96960  0.11041  0.50848  1.0000
  C   C1682     1.0  0.82998  0.26313  0.98163  1.0000
  H   H2695     1.0  0.97203  0.06488  0.51262  1.0000
  C   C1683     1.0  0.98586  0.01279  0.58737  1.0000
  C   C1684     1.0  0.86118  0.23617  0.98324  1.0000
  H   H2696     1.0  0.97996  0.42163  0.85336  1.0000
  H   H2697     1.0  0.97700  0.02395  0.54474  1.0000
  H   H2698     1.0  0.98412  0.34042  0.98660  1.0000
  H   H2699     1.0  0.96895  0.05470  0.49154  1.0000
  H   H2700     1.0  0.87256  0.48999  0.94307  1.0000
  C   C1685     1.0  0.91248  0.49084  0.94001  1.0000
  C   C1686     1.0  0.99016  0.43448  0.88364  1.0000
  C   C1687     1.0  0.99245  0.15981  0.56070  1.0000
  C   C1688     1.0  0.77394  0.06783  0.98838  1.0000
  C   C1689     1.0  0.74503  0.25742  0.96900  1.0000
  H   H2701     1.0  0.91135  0.49183  0.79401  1.0000
  H   H2702     1.0  0.93112  0.10053  0.48946  1.0000
  C   C1690     1.0  0.98468  0.11224  0.48991  1.0000
  C   C1691     1.0  0.94613  0.10358  0.48958  1.0000
  H   H2703     1.0  0.75658  0.21729  0.98891  1.0000
  H   H2704     1.0  0.97471  0.85721  0.42978  1.0000
  H   H2705     1.0  0.92819  0.51704  0.04477  1.0000
  S   S673      1.0  0.99192  0.62891  0.01301  1.0000
  H   H2706     1.0  0.98558  0.69731  0.03548  1.0000
  H   H2707     1.0  0.99313  0.99174  0.36008  1.0000
  N   N173      1.0  0.95762  0.89497  0.36523  1.0000
  H   H2708     1.0  0.87737  0.98328  0.27068  1.0000
  S   S674      1.0  0.74904  0.52961  0.47033  1.0000
  H   H2709     1.0  0.97452  0.79995  0.47303  1.0000
  C   C1692     1.0  0.93981  0.51594  0.00019  1.0000
  H   H2710     1.0  0.88946  0.50913  0.01622  1.0000
  C   C1693     1.0  0.97302  0.81016  0.40682  1.0000
  H   H2711     1.0  0.93357  0.57328  0.02933  1.0000
  C   C1694     1.0  0.92336  0.55639  0.07020  1.0000
  H   H2712     1.0  0.92564  0.96083  0.46089  1.0000
  H   H2713     1.0  0.74949  0.66290  0.47963  1.0000
  H   H2714     1.0  0.88976  0.54758  0.06198  1.0000
  H   H2715     1.0  0.91887  0.57386  0.06679  1.0000
  H   H2716     1.0  0.98657  0.89050  0.34275  1.0000
  C   C1695     1.0  0.91807  0.52053  0.00234  1.0000
  C   C1696     1.0  0.76986  0.58709  0.47816  1.0000
  C   C1697     1.0  0.95881  0.94887  0.45832  1.0000
  H   H2717     1.0  0.82455  0.73834  0.47716  1.0000
  H   H2718     1.0  0.99247  0.94176  0.45312  1.0000
  S   S675      1.0  0.98648  0.97938  0.32130  1.0000
  H   H2719     1.0  0.95996  0.60940  0.00835  1.0000
  C   C1698     1.0  0.86389  0.73474  0.48184  1.0000
  H   H2720     1.0  0.93935  0.55214  0.07381  1.0000
  C   C1699     1.0  0.95909  0.81434  0.42526  1.0000
  H   H2721     1.0  0.94776  0.80448  0.43309  1.0000
  H   H2722     1.0  0.74581  0.57290  0.44602  1.0000
  C   C1700     1.0  0.95942  0.83149  0.43333  1.0000
  C   C1701     1.0  0.98779  0.82272  0.39677  1.0000
  N   N174      1.0  0.92275  0.54751  0.05237  1.0000
  H   H2723     1.0  0.93581  0.87475  0.37026  1.0000
  S   S676      1.0  0.98192  0.52866  0.06901  1.0000
  C   C1702     1.0  0.94987  0.49643  0.01002  1.0000
  C   C1703     1.0  0.75609  0.55230  0.47332  1.0000
  C   C1704     1.0  0.94334  0.98479  0.44378  1.0000
  C   C1705     1.0  0.98668  0.62289  0.99099  1.0000
  Fe  Fe340     1.0  0.98650  0.49431  0.06919  1.0000
  H   H2724     1.0  0.91839  0.51753  0.07206  1.0000
  C   C1706     1.0  0.98918  0.92817  0.29504  1.0000
  H   H2725     1.0  0.96666  0.49304  0.00836  1.0000
  H   H2726     1.0  0.89626  0.57088  0.04376  1.0000
  H   H2727     1.0  0.87800  0.74062  0.48172  1.0000
  C   C1707     1.0  0.84162  0.76920  0.48071  1.0000
  H   H2728     1.0  0.97857  0.83525  0.47512  1.0000
  H   H2729     1.0  0.90031  0.54691  0.03479  1.0000
  H   H2730     1.0  0.85443  0.77690  0.48089  1.0000
  H   H2731     1.0  0.93329  0.92197  0.35884  1.0000
  Fe  Fe341     1.0  0.92864  0.87036  0.45599  1.0000
  S   S677      1.0  0.89654  0.88407  0.44935  1.0000
  S   S678      1.0  0.94161  0.83626  0.45630  1.0000
  Fe  Fe342     1.0  0.93299  0.91038  0.46573  1.0000
  S   S679      1.0  0.90088  0.92756  0.46085  1.0000
  H   H2732     1.0  0.82223  0.98646  0.11902  1.0000
  C   C1708     1.0  0.76004  0.58877  0.46147  1.0000
  Fe  Fe343     1.0  0.90963  0.91275  0.43258  1.0000
  S   S680      1.0  0.90337  0.92992  0.40091  1.0000
  S   S681      1.0  0.94248  0.89767  0.43620  1.0000
  Fe  Fe344     1.0  0.96959  0.97793  0.29714  1.0000
  H   H2733     1.0  0.99170  0.56855  0.06656  1.0000
  H   H2734     1.0  0.88168  0.85678  0.48658  1.0000
  C   C1709     1.0  0.94108  0.96433  0.45457  1.0000
  H   H2735     1.0  0.94512  0.51929  0.06053  1.0000
  C   C1710     1.0  0.96614  0.90463  0.37793  1.0000
  S   S682      1.0  0.77902  0.60894  0.48025  1.0000
  H   H2736     1.0  0.84112  0.77026  0.46405  1.0000
  C   C1711     1.0  0.92887  0.52434  0.05765  1.0000
  H   H2737     1.0  0.95038  0.86934  0.39070  1.0000
  H   H2738     1.0  0.95387  0.55117  0.03614  1.0000
  H   H2739     1.0  0.98736  0.53465  0.00025  1.0000
  C   C1712     1.0  0.96999  0.61293  0.99312  1.0000
  H   H2740     1.0  0.88234  0.98855  0.39219  1.0000
  C   C1713     1.0  0.97491  0.88139  0.35338  1.0000
  H   H2741     1.0  0.85717  0.97963  0.42467  1.0000
  H   H2742     1.0  0.82667  0.77879  0.48775  1.0000
  H   H2743     1.0  0.92950  0.89189  0.38858  1.0000
  H   H2744     1.0  0.96905  0.87404  0.34345  1.0000
  H   H2745     1.0  0.92965  0.94783  0.41724  1.0000
  H   H2746     1.0  0.97750  0.91439  0.36785  1.0000
  H   H2747     1.0  0.97241  0.79708  0.40044  1.0000
  H   H2748     1.0  0.95737  0.92206  0.33984  1.0000
  H   H2749     1.0  0.95344  0.91508  0.38696  1.0000
  S   S683      1.0  0.95640  0.92390  0.47383  1.0000
  H   H2750     1.0  0.94649  0.97882  0.40177  1.0000
  S   S684      1.0  0.96571  0.94671  0.29401  1.0000
  C   C1714     1.0  0.90633  0.50552  0.01433  1.0000
  S   S685      1.0  0.92233  0.88145  0.48610  1.0000
  C   C1715     1.0  0.93552  0.98577  0.37281  1.0000
  H   H2751     1.0  0.75800  0.60343  0.45017  1.0000
  C   C1716     1.0  0.93749  0.55579  0.03353  1.0000
  C   C1717     1.0  0.97415  0.84420  0.42328  1.0000
  H   H2752     1.0  0.92201  0.98882  0.34611  1.0000
  C   C1718     1.0  0.97874  0.95364  0.45043  1.0000
  H   H2753     1.0  0.86335  0.73517  0.46533  1.0000
  H   H2754     1.0  0.93703  0.54982  0.01966  1.0000
  C   C1719     1.0  0.91630  0.95098  0.39027  1.0000
  C   C1720     1.0  0.91443  0.96246  0.37013  1.0000
  C   C1721     1.0  0.94269  0.88217  0.37928  1.0000
  C   C1722     1.0  0.94672  0.91174  0.35038  1.0000
  C   C1723     1.0  0.93748  0.97428  0.39299  1.0000
  C   C1724     1.0  0.92804  0.95671  0.40167  1.0000
  H   H2755     1.0  0.90526  0.95815  0.36133  1.0000
  H   H2756     1.0  0.98864  0.91796  0.26729  1.0000
  C   C1725     1.0  0.92405  0.97976  0.36142  1.0000
  Fe  Fe345     1.0  0.89093  0.89709  0.47835  1.0000
  C   C1726     1.0  0.98857  0.83963  0.40508  1.0000
  H   H2757     1.0  0.94887  0.52763  0.99158  1.0000
  H   H2758     1.0  0.99197  0.69576  0.07090  1.0000
  C   C1727     1.0  0.96332  0.98945  0.43577  1.0000
  H   H2759     1.0  0.94047  0.90513  0.34015  1.0000
  C   C1728     1.0  0.90132  0.55350  0.04809  1.0000
  H   H2760     1.0  0.91254  0.55038  0.08474  1.0000
  C   C1729     1.0  0.75308  0.57149  0.45910  1.0000
  H   H2761     1.0  0.89346  0.97645  0.42731  1.0000
  C   C1730     1.0  0.98100  0.97373  0.43879  1.0000
  S   S686      1.0  0.90541  0.54519  0.99065  1.0000
  H   H2762     1.0  0.97433  0.89246  0.38947  1.0000
  H   H2763     1.0  0.98333  0.86841  0.36409  1.0000
  H   H2764     1.0  0.86831  0.82592  0.48600  1.0000
  H   H2765     1.0  0.99369  0.72222  0.02617  1.0000
  S   S687      1.0  0.95564  0.57423  0.90346  1.0000
  C   C1731     1.0  0.81147  0.59281  0.66436  1.0000
  C   C1732     1.0  0.76828  0.54060  0.76638  1.0000
  S   S688      1.0  0.97586  0.51239  0.91159  1.0000
  Fe  Fe346     1.0  0.81473  0.58795  0.78049  1.0000
  S   S689      1.0  0.97672  0.60443  0.93353  1.0000
  Fe  Fe347     1.0  0.80978  0.77913  0.80505  1.0000
  S   S690      1.0  0.79412  0.78303  0.77810  1.0000
  S   S691      1.0  0.84450  0.77771  0.79691  1.0000
  Fe  Fe348     1.0  0.76916  0.78148  0.83709  1.0000
  C   C1733     1.0  0.85396  0.85056  0.58036  1.0000
  Fe  Fe349     1.0  0.77577  0.76009  0.80041  1.0000
  Fe  Fe350     1.0  0.77011  0.80746  0.79322  1.0000
  S   S692      1.0  0.82908  0.81342  0.50367  1.0000
  S   S693      1.0  0.79296  0.75423  0.82647  1.0000
  S   S694      1.0  0.78746  0.80594  0.81810  1.0000
  H   H2766     1.0  0.84624  0.63638  0.56019  1.0000
  S   S695      1.0  0.84513  0.59421  0.78343  1.0000
  S   S696      1.0  0.85795  0.56200  0.83707  1.0000
  H   H2767     1.0  0.85655  0.72033  0.63647  1.0000
  S   S697      1.0  0.81170  0.57724  0.75225  1.0000
  Fe  Fe351     1.0  0.82659  0.62595  0.78835  1.0000
  S   S698      1.0  0.83941  0.65540  0.77449  1.0000
  H   H2768     1.0  0.98502  0.55930  0.98164  1.0000
  H   H2769     1.0  0.86405  0.65211  0.56029  1.0000
  S   S699      1.0  0.75448  0.83929  0.77831  1.0000
  H   H2770     1.0  0.83621  0.81902  0.60680  1.0000
  H   H2771     1.0  0.82109  0.55046  0.49946  1.0000
  S   S700      1.0  0.79666  0.80394  0.60601  1.0000
  C   C1734     1.0  0.86815  0.51065  0.82812  1.0000
  H   H2772     1.0  0.91903  0.67299  0.62143  1.0000
  Fe  Fe352     1.0  0.91697  0.68239  0.75739  1.0000
  S   S701      1.0  0.94992  0.68635  0.75332  1.0000
  S   S702      1.0  0.89171  0.68609  0.78603  1.0000
  Fe  Fe353     1.0  0.92626  0.66447  0.71779  1.0000
  H   H2773     1.0  0.88893  0.61141  0.69468  1.0000
  S   S703      1.0  0.91491  0.64990  0.69724  1.0000
  Fe  Fe354     1.0  0.95914  0.65437  0.74494  1.0000
  Fe  Fe355     1.0  0.94762  0.69820  0.71925  1.0000
  S   S704      1.0  0.95771  0.72656  0.69693  1.0000
  S   S705      1.0  0.92628  0.64962  0.75137  1.0000
  S   S706      1.0  0.91371  0.69689  0.72416  1.0000
  S   S707      1.0  0.90847  0.67861  0.57652  1.0000
  S   S708      1.0  0.89898  0.71706  0.61508  1.0000
  S   S709      1.0  0.88534  0.70226  0.52639  1.0000
  C   C1735     1.0  0.78096  0.71075  0.56366  1.0000
  S   S710      1.0  0.97704  0.91938  0.56836  1.0000
  S   S711      1.0  0.95321  0.89982  0.62673  1.0000
  C   C1736     1.0  0.80013  0.67976  0.77346  1.0000
  H   H2774     1.0  0.89360  0.62085  0.55472  1.0000
  Fe  Fe356     1.0  0.82966  0.84512  0.67618  1.0000
  S   S712      1.0  0.83642  0.81251  0.69501  1.0000
  S   S713      1.0  0.80174  0.86943  0.68621  1.0000
  Fe  Fe357     1.0  0.86893  0.83809  0.64307  1.0000
  S   S714      1.0  0.87897  0.80433  0.65860  1.0000
  S   S715      1.0  0.88663  0.85478  0.61278  1.0000
  Fe  Fe358     1.0  0.84509  0.80258  0.66417  1.0000
  S   S716      1.0  0.83611  0.77255  0.66388  1.0000
  Fe  Fe359     1.0  0.86942  0.81681  0.68826  1.0000
  S   S717      1.0  0.88519  0.80374  0.71570  1.0000
  S   S718      1.0  0.83578  0.83504  0.64546  1.0000
  S   S719      1.0  0.86191  0.85069  0.67257  1.0000
  H   H2775     1.0  0.81908  0.75701  0.72346  1.0000
  C   C1737     1.0  0.85319  0.60467  0.72180  1.0000
  S   S720      1.0  0.81368  0.55535  0.57110  1.0000
  C   C1738     1.0  0.75915  0.93295  0.89611  1.0000
  H   H2776     1.0  0.86253  0.71272  0.73651  1.0000
  Fe  Fe360     1.0  0.90722  0.57365  0.66277  1.0000
  S   S721      1.0  0.93201  0.58847  0.66624  1.0000
  S   S722      1.0  0.88547  0.58773  0.64040  1.0000
  C   C1739     1.0  0.88260  0.61085  0.56500  1.0000
  C   C1740     1.0  0.78459  0.69774  0.77631  1.0000
  Fe  Fe361     1.0  0.83437  0.58390  0.81831  1.0000
  H   H2777     1.0  0.92507  0.64679  0.65392  1.0000
  C   C1741     1.0  0.78983  0.56711  0.75241  1.0000
  H   H2778     1.0  0.97269  0.59217  0.56653  1.0000
  C   C1742     1.0  0.83703  0.55342  0.57920  1.0000
  C   C1743     1.0  0.85360  0.56153  0.56502  1.0000
  C   C1744     1.0  0.87212  0.56035  0.57156  1.0000
  C   C1745     1.0  0.87379  0.55200  0.59253  1.0000
  C   C1746     1.0  0.85726  0.54382  0.60669  1.0000
  C   C1747     1.0  0.83906  0.54414  0.59992  1.0000
  H   H2779     1.0  0.85223  0.56856  0.54893  1.0000
  H   H2780     1.0  0.88500  0.56628  0.56039  1.0000
  H   H2781     1.0  0.85860  0.53688  0.62276  1.0000
  H   H2782     1.0  0.82633  0.53769  0.61085  1.0000
  H   H2783     1.0  0.82252  0.88128  0.52311  1.0000
  C   C1748     1.0  0.81134  0.76908  0.67916  1.0000
  C   C1749     1.0  0.79518  0.78622  0.68330  1.0000
  H   H2784     1.0  0.84078  0.80328  0.58765  1.0000
  C   C1750     1.0  0.85622  0.66093  0.51601  1.0000
  C   C1751     1.0  0.78791  0.74527  0.69835  1.0000
  C   C1752     1.0  0.80768  0.74863  0.68697  1.0000
  H   H2785     1.0  0.79790  0.80208  0.67736  1.0000
  S   S723      1.0  0.89788  0.59811  0.89322  1.0000
  H   H2786     1.0  0.78526  0.72939  0.70430  1.0000
  H   H2787     1.0  0.82021  0.73529  0.68443  1.0000
  C   C1753     1.0  0.93481  0.88740  0.62253  1.0000
  C   C1754     1.0  0.92853  0.89230  0.60320  1.0000
  C   C1755     1.0  0.91397  0.88202  0.60023  1.0000
  C   C1756     1.0  0.90536  0.86706  0.61662  1.0000
  C   C1757     1.0  0.91175  0.86210  0.63587  1.0000
  C   C1758     1.0  0.92648  0.87218  0.63877  1.0000
  H   H2788     1.0  0.93491  0.90397  0.59058  1.0000
  H   H2789     1.0  0.90924  0.88574  0.58529  1.0000
  H   H2790     1.0  0.90553  0.85034  0.64850  1.0000
  H   H2791     1.0  0.93132  0.86823  0.65372  1.0000
  C   C1759     1.0  0.88066  0.67932  0.52172  1.0000
  S   S724      1.0  0.88199  0.56626  0.69043  1.0000
  H   H2792     1.0  0.91222  0.66179  0.52115  1.0000
  C   C1760     1.0  0.96810  0.61197  0.61225  1.0000
  C   C1761     1.0  0.96163  0.60151  0.63288  1.0000
  C   C1762     1.0  0.94032  0.60414  0.64205  1.0000
  C   C1763     1.0  0.92556  0.61790  0.63103  1.0000
  C   C1764     1.0  0.93210  0.62885  0.61067  1.0000
  H   H2793     1.0  0.97303  0.59072  0.64135  1.0000
  H   H2794     1.0  0.90912  0.62018  0.63826  1.0000
  H   H2795     1.0  0.92063  0.63908  0.60207  1.0000
  C   C1765     1.0  0.91031  0.66853  0.67445  1.0000
  C   C1766     1.0  0.90326  0.69820  0.63781  1.0000
  C   C1767     1.0  0.89650  0.70402  0.65741  1.0000
  C   C1768     1.0  0.90016  0.68924  0.67569  1.0000
  H   H2796     1.0  0.88855  0.72001  0.65845  1.0000
  H   H2797     1.0  0.89480  0.69381  0.69077  1.0000
  C   C1769     1.0  0.93859  0.74869  0.70238  1.0000
  C   C1770     1.0  0.92475  0.74746  0.72180  1.0000
  C   C1771     1.0  0.90881  0.76471  0.72595  1.0000
  C   C1772     1.0  0.90616  0.78296  0.71051  1.0000
  C   C1773     1.0  0.92002  0.78430  0.69106  1.0000
  C   C1774     1.0  0.93656  0.76733  0.68719  1.0000
  H   H2798     1.0  0.92653  0.73332  0.73377  1.0000
  H   H2799     1.0  0.89836  0.76377  0.74101  1.0000
  H   H2800     1.0  0.91829  0.79857  0.67920  1.0000
  H   H2801     1.0  0.94764  0.76868  0.67243  1.0000
  H   H2802     1.0  0.84553  0.60190  0.58627  1.0000
  C   C1775     1.0  0.85433  0.60745  0.59513  1.0000
  H   H2803     1.0  0.84249  0.64880  0.58202  1.0000
  H   H2804     1.0  0.80952  0.84937  0.52382  1.0000
  H   H2805     1.0  0.92831  0.58570  0.73405  1.0000
  C   C1776     1.0  0.81953  0.50090  0.52779  1.0000
  Fe  Fe362     1.0  0.95542  0.58312  0.93375  1.0000
  C   C1777     1.0  0.89660  0.66157  0.51979  1.0000
  S   S725      1.0  0.76763  0.73458  0.78973  1.0000
  H   H2806     1.0  0.74810  0.60259  0.60797  1.0000
  H   H2807     1.0  0.76947  0.69933  0.77273  1.0000
  H   H2808     1.0  0.89208  0.59602  0.57240  1.0000
  H   H2809     1.0  0.87567  0.50959  0.97946  1.0000
  Fe  Fe363     1.0  0.92065  0.57887  0.91404  1.0000
  C   C1778     1.0  0.78059  0.57359  0.73471  1.0000
  H   H2810     1.0  0.84266  0.61520  0.60728  1.0000
  H   H2811     1.0  0.78574  0.58601  0.72215  1.0000
  H   H2812     1.0  0.86378  0.59320  0.60348  1.0000
  C   C1779     1.0  0.76623  0.84744  0.75217  1.0000
  C   C1780     1.0  0.76601  0.86884  0.74419  1.0000
  C   C1781     1.0  0.77701  0.87550  0.72388  1.0000
  C   C1782     1.0  0.78776  0.86082  0.71137  1.0000
  C   C1783     1.0  0.78701  0.83954  0.71896  1.0000
  C   C1784     1.0  0.77644  0.83280  0.73948  1.0000
  H   H2813     1.0  0.84726  0.73050  0.52380  1.0000
  H   H2814     1.0  0.77734  0.89202  0.71797  1.0000
  H   H2815     1.0  0.79421  0.82830  0.70895  1.0000
  H   H2816     1.0  0.77597  0.81633  0.74536  1.0000
  H   H2817     1.0  0.90494  0.63021  0.51342  1.0000
  S   S726      1.0  0.80486  0.63797  0.50736  1.0000
  H   H2818     1.0  0.87063  0.84468  0.58181  1.0000
  H   H2819     1.0  0.94829  0.73955  0.60775  1.0000
  H   H2820     1.0  0.99303  0.49466  0.84840  1.0000
  H   H2821     1.0  0.77086  0.66797  0.87674  1.0000
  H   H2822     1.0  0.77704  0.81130  0.86293  1.0000
  C   C1785     1.0  0.94732  0.56842  0.56287  1.0000
  N   N175      1.0  0.96058  0.72100  0.63476  1.0000
  C   C1786     1.0  0.86663  0.63411  0.72384  1.0000
  C   C1787     1.0  0.80836  0.71221  0.78762  1.0000
  C   C1788     1.0  0.82414  0.69447  0.78415  1.0000
  C   C1789     1.0  0.81993  0.67805  0.77749  1.0000
  H   H2823     1.0  0.81158  0.72454  0.79335  1.0000
  H   H2824     1.0  0.83950  0.69312  0.78712  1.0000
  C   C1790     1.0  0.85883  0.75210  0.79576  1.0000
  C   C1791     1.0  0.87901  0.74903  0.78340  1.0000
  C   C1792     1.0  0.88957  0.72874  0.78040  1.0000
  C   C1793     1.0  0.88017  0.71148  0.79052  1.0000
  C   C1794     1.0  0.86065  0.71446  0.80405  1.0000
  C   C1795     1.0  0.84984  0.73474  0.80633  1.0000
  H   H2825     1.0  0.88627  0.76243  0.77589  1.0000
  H   H2826     1.0  0.90491  0.72646  0.77035  1.0000
  H   H2827     1.0  0.85363  0.70110  0.81246  1.0000
  H   H2828     1.0  0.83472  0.73683  0.81656  1.0000
  Fe  Fe364     1.0  0.91060  0.69878  0.54425  1.0000
  C   C1796     1.0  0.96835  0.79707  0.49030  1.0000
  C   C1797     1.0  0.82162  0.53326  0.50224  1.0000
  H   H2829     1.0  0.83615  0.51894  0.54971  1.0000
  H   H2830     1.0  0.95087  0.62220  0.71482  1.0000
  C   C1798     1.0  0.88524  0.58654  0.88027  1.0000
  C   C1799     1.0  0.89324  0.56625  0.87628  1.0000
  C   C1800     1.0  0.88409  0.55857  0.86379  1.0000
  C   C1801     1.0  0.86690  0.57098  0.85527  1.0000
  C   C1802     1.0  0.85839  0.59091  0.86001  1.0000
  C   C1803     1.0  0.86759  0.59867  0.87237  1.0000
  H   H2831     1.0  0.90688  0.55677  0.88221  1.0000
  H   H2832     1.0  0.89073  0.54319  0.86022  1.0000
  H   H2833     1.0  0.87667  0.72821  0.74394  1.0000
  H   H2834     1.0  0.86118  0.61429  0.87559  1.0000
  H   H2835     1.0  0.85262  0.72238  0.76044  1.0000
  C   C1804     1.0  0.87952  0.62843  0.59317  1.0000
  H   H2836     1.0  0.89064  0.61488  0.60022  1.0000
  H   H2837     1.0  0.86885  0.63583  0.60607  1.0000
  H   H2838     1.0  0.88893  0.64009  0.58301  1.0000
  H   H2839     1.0  0.87024  0.92689  0.52035  1.0000
  C   C1805     1.0  0.83804  0.83551  0.50493  1.0000
  C   C1806     1.0  0.81169  0.52595  0.67729  1.0000
  H   H2840     1.0  0.97914  0.57674  0.59082  1.0000
  H   H2841     1.0  0.76588  0.90197  0.92964  1.0000
  H   H2842     1.0  0.80627  0.49855  0.52210  1.0000
  H   H2843     1.0  0.79787  0.52714  0.55390  1.0000
  H   H2844     1.0  0.76580  0.85576  0.68063  1.0000
  H   H2845     1.0  0.97193  0.76590  0.58642  1.0000
  C   C1807     1.0  0.82529  0.85095  0.51579  1.0000
  H   H2846     1.0  0.76385  0.52754  0.77854  1.0000
  H   H2847     1.0  0.81162  0.74716  0.50120  1.0000
  H   H2848     1.0  0.84508  0.85463  0.59568  1.0000
  H   H2849     1.0  0.92584  0.49666  0.94183  1.0000
  H   H2850     1.0  0.75126  0.94866  0.88838  1.0000
  H   H2851     1.0  0.96440  0.50126  0.95720  1.0000
  H   H2852     1.0  0.98717  0.86564  0.63616  1.0000
  N   N176      1.0  0.83734  0.83797  0.75249  1.0000
  C   C1808     1.0  0.85549  0.83189  0.76291  1.0000
  C   C1809     1.0  0.81926  0.84971  0.76538  1.0000
  C   C1810     1.0  0.83184  0.81883  0.75019  1.0000
  C   C1811     1.0  0.84273  0.85129  0.73151  1.0000
  H   H2853     1.0  0.86936  0.82288  0.75357  1.0000
  H   H2854     1.0  0.85201  0.82156  0.77868  1.0000
  H   H2855     1.0  0.86019  0.84588  0.76499  1.0000
  H   H2856     1.0  0.80534  0.85443  0.75792  1.0000
  H   H2857     1.0  0.81469  0.83998  0.78125  1.0000
  H   H2858     1.0  0.82282  0.86427  0.76753  1.0000
  H   H2859     1.0  0.81876  0.82269  0.74172  1.0000
  H   H2860     1.0  0.82703  0.80881  0.76574  1.0000
  H   H2861     1.0  0.84539  0.80918  0.74133  1.0000
  H   H2862     1.0  0.82948  0.85587  0.72304  1.0000
  H   H2863     1.0  0.85642  0.84290  0.72149  1.0000
  H   H2864     1.0  0.84684  0.86599  0.73260  1.0000
  N   N177      1.0  0.89558  0.92085  0.53655  1.0000
  S   S727      1.0  0.81889  0.61243  0.55207  1.0000
  S   S728      1.0  0.94235  0.95087  0.53077  1.0000
  H   H2865     1.0  0.90604  0.50210  0.92681  1.0000
  H   H2866     1.0  0.75227  0.60642  0.79743  1.0000
  H   H2867     1.0  0.75784  0.88022  0.75393  1.0000
  Fe  Fe365     1.0  0.79157  0.79567  0.57785  1.0000
  Fe  Fe366     1.0  0.80896  0.58507  0.54704  1.0000
  H   H2868     1.0  0.84823  0.69269  0.52101  1.0000
  Fe  Fe367     1.0  0.95640  0.94982  0.55765  1.0000
  H   H2869     1.0  0.85920  0.84336  0.54212  1.0000
  H   H2870     1.0  0.90134  0.51872  0.83845  1.0000
  C   C1812     1.0  0.89246  0.64376  0.51538  1.0000
  Fe  Fe368     1.0  0.96660  0.97177  0.58677  1.0000
  H   H2871     1.0  0.96050  0.60625  0.68316  1.0000
  H   H2872     1.0  0.94936  0.53635  0.71077  1.0000
  C   C1813     1.0  0.90323  0.51665  0.82213  1.0000
  S   S729      1.0  0.96635  0.51180  0.74574  1.0000
  H   H2873     1.0  0.83226  0.49266  0.70154  1.0000
  H   H2874     1.0  0.76380  0.89086  0.90865  1.0000
  H   H2875     1.0  0.91314  0.98026  0.55453  1.0000
  C   C1814     1.0  0.89456  0.49854  0.79960  1.0000
  H   H2876     1.0  0.97866  0.84049  0.50000  1.0000
  H   H2877     1.0  0.98557  0.60362  0.86044  1.0000
  H   H2878     1.0  0.87250  0.94887  0.52978  1.0000
  H   H2879     1.0  0.85200  0.81814  0.54955  1.0000
  S   S730      1.0  0.75071  0.78079  0.86994  1.0000
  H   H2880     1.0  0.76253  0.79610  0.69697  1.0000
  S   S731      1.0  0.98685  0.50453  0.79355  1.0000
  H   H2881     1.0  0.77229  0.72604  0.56651  1.0000
  H   H2882     1.0  0.94220  0.71383  0.61661  1.0000
  H   H2883     1.0  0.74943  0.85533  0.84212  1.0000
  H   H2884     1.0  0.86479  0.51400  0.84422  1.0000
  H   H2885     1.0  0.81343  0.84690  0.58745  1.0000
  H   H2886     1.0  0.87489  0.82162  0.55645  1.0000
  C   C1815     1.0  0.77507  0.70133  0.84513  1.0000
  H   H2887     1.0  0.77524  0.65367  0.83597  1.0000
  H   H2888     1.0  0.77953  0.56687  0.50572  1.0000
  C   C1816     1.0  0.84644  0.81566  0.59169  1.0000
  H   H2889     1.0  0.98451  0.60941  0.60483  1.0000
  C   C1817     1.0  0.93658  0.58766  0.71734  1.0000
  H   H2890     1.0  0.83244  0.63325  0.69460  1.0000
  H   H2891     1.0  0.83277  0.75688  0.52209  1.0000
  C   C1818     1.0  0.75962  0.63414  0.61728  1.0000
  C   C1819     1.0  0.83264  0.86901  0.51535  1.0000
  N   N178      1.0  0.76570  0.68341  0.84574  1.0000
  S   S732      1.0  0.77814  0.81786  0.55132  1.0000
  H   H2892     1.0  0.96212  0.56663  0.74381  1.0000
  H   H2893     1.0  0.97187  0.78718  0.53032  1.0000
  N   N179      1.0  0.84565  0.83469  0.57484  1.0000
  H   H2894     1.0  0.98167  0.93463  0.49819  1.0000
  H   H2895     1.0  0.86845  0.61604  0.68030  1.0000
  H   H2896     1.0  0.98537  0.59332  0.69013  1.0000
  C   C1820     1.0  0.75922  0.83451  0.88127  1.0000
  S   S733      1.0  0.94914  0.50220  0.84656  1.0000
  C   C1821     1.0  0.98055  0.71156  0.62230  1.0000
  C   C1822     1.0  0.98976  0.89379  0.51625  1.0000
  C   C1823     1.0  0.92789  0.97595  0.52305  1.0000
  C   C1824     1.0  0.85850  0.82917  0.55489  1.0000
  S   S734      1.0  0.75015  0.78495  0.81305  1.0000
  C   C1825     1.0  0.91187  0.50785  0.71870  1.0000
  H   H2897     1.0  0.89914  0.94487  0.55067  1.0000
  C   C1826     1.0  0.85289  0.87142  0.50446  1.0000
  C   C1827     1.0  0.96668  0.60697  0.97569  1.0000
  C   C1828     1.0  0.80326  0.67125  0.55597  1.0000
  H   H2898     1.0  0.76441  0.83731  0.59058  1.0000
  H   H2899     1.0  0.79921  0.55098  0.53481  1.0000
  H   H2900     1.0  0.91324  0.88937  0.54362  1.0000
  S   S735      1.0  0.89120  0.50712  0.70731  1.0000
  H   H2901     1.0  0.77118  0.84387  0.87671  1.0000
  S   S736      1.0  0.78864  0.77631  0.52942  1.0000
  H   H2902     1.0  0.76255  0.67307  0.51516  1.0000
  C   C1829     1.0  0.87219  0.64326  0.51385  1.0000
  H   H2903     1.0  0.89336  0.89230  0.52896  1.0000
  H   H2904     1.0  0.75814  0.64419  0.50149  1.0000
  H   H2905     1.0  0.74800  0.62439  0.58607  1.0000
  H   H2906     1.0  0.75528  0.57991  0.79457  1.0000
  C   C1830     1.0  0.86582  0.85553  0.49438  1.0000
  C   C1831     1.0  0.95593  0.54787  0.59583  1.0000
  S   S737      1.0  0.77348  0.77087  0.58110  1.0000
  C   C1832     1.0  0.79483  0.51684  0.71356  1.0000
  H   H2907     1.0  0.90015  0.51721  0.96689  1.0000
  S   S738      1.0  0.95059  0.69429  0.57880  1.0000
  H   H2908     1.0  0.98627  0.57030  0.72590  1.0000
  Fe  Fe369     1.0  0.80071  0.75772  0.55816  1.0000
  C   C1833     1.0  0.78149  0.67590  0.55858  1.0000
  H   H2909     1.0  0.88614  0.89285  0.55648  1.0000
  C   C1834     1.0  0.94427  0.72744  0.62197  1.0000
  H   H2910     1.0  0.81545  0.54379  0.71910  1.0000
  C   C1835     1.0  0.77511  0.78285  0.69427  1.0000
  N   N180      1.0  0.89061  0.50183  0.82134  1.0000
  C   C1836     1.0  0.85832  0.83784  0.49433  1.0000
  H   H2911     1.0  0.88141  0.62392  0.72796  1.0000
  H   H2912     1.0  0.80763  0.56872  0.62687  1.0000
  H   H2913     1.0  0.78855  0.69626  0.85326  1.0000
  H   H2914     1.0  0.81199  0.65623  0.55265  1.0000
  H   H2915     1.0  0.74618  0.67896  0.78013  1.0000
  C   C1837     1.0  0.76251  0.81614  0.87339  1.0000
  H   H2916     1.0  0.90997  0.94391  0.51253  1.0000
  H   H2917     1.0  0.95156  0.81002  0.52707  1.0000
  C   C1838     1.0  0.74720  0.80379  0.87954  1.0000
  H   H2918     1.0  0.95794  0.74532  0.56876  1.0000
  N   N181      1.0  0.83648  0.73910  0.61545  1.0000
  C   C1839     1.0  0.84551  0.72596  0.59942  1.0000
  C   C1840     1.0  0.81383  0.74681  0.61599  1.0000
  C   C1841     1.0  0.84691  0.75723  0.61016  1.0000
  C   C1842     1.0  0.83965  0.72652  0.63629  1.0000
  H   H2919     1.0  0.86249  0.71946  0.59896  1.0000
  H   H2920     1.0  0.84396  0.73519  0.58341  1.0000
  H   H2921     1.0  0.83753  0.71253  0.60240  1.0000
  H   H2922     1.0  0.80654  0.75681  0.62797  1.0000
  H   H2923     1.0  0.81092  0.75659  0.60062  1.0000
  H   H2924     1.0  0.80540  0.73363  0.61962  1.0000
  H   H2925     1.0  0.86383  0.75207  0.61078  1.0000
  H   H2926     1.0  0.83970  0.76809  0.62132  1.0000
  H   H2927     1.0  0.84568  0.76638  0.59411  1.0000
  H   H2928     1.0  0.83169  0.71292  0.64098  1.0000
  H   H2929     1.0  0.83344  0.73627  0.64848  1.0000
  H   H2930     1.0  0.76348  0.71363  0.85275  1.0000
  S   S739      1.0  0.86716  0.62022  0.50979  1.0000
  C   C1843     1.0  0.77142  0.76232  0.70162  1.0000
  H   H2931     1.0  0.96050  0.54788  0.61067  1.0000
  H   H2932     1.0  0.96522  0.61837  0.89129  1.0000
  Fe  Fe370     1.0  0.79520  0.60836  0.50635  1.0000
  C   C1844     1.0  0.97313  0.74940  0.56218  1.0000
  C   C1845     1.0  0.83252  0.50849  0.70373  1.0000
  H   H2933     1.0  0.79540  0.66175  0.84328  1.0000
  H   H2934     1.0  0.92211  0.57960  0.59763  1.0000
  C   C1846     1.0  0.74879  0.85613  0.68689  1.0000
  H   H2935     1.0  0.75260  0.75787  0.53761  1.0000
  C   C1847     1.0  0.94532  0.50960  0.73589  1.0000
  C   C1848     1.0  0.80277  0.70587  0.56130  1.0000
  H   H2936     1.0  0.96118  0.64404  0.87472  1.0000
  C   C1849     1.0  0.79976  0.53387  0.53673  1.0000
  C   C1850     1.0  0.75977  0.54644  0.74818  1.0000
  H   H2937     1.0  0.81877  0.73910  0.74831  1.0000
  H   H2938     1.0  0.82943  0.72945  0.72442  1.0000
  N   N182      1.0  0.95862  0.58907  0.71504  1.0000
  H   H2939     1.0  0.94834  0.74729  0.64999  1.0000
  S   S740      1.0  0.94031  0.95534  0.58980  1.0000
  C   C1851     1.0  0.96328  0.73964  0.64095  1.0000
  H   H2940     1.0  0.94044  0.97631  0.49031  1.0000
  N   N183      1.0  0.81343  0.52394  0.69926  1.0000
  H   H2941     1.0  0.98246  0.62925  0.84350  1.0000
  H   H2942     1.0  0.97903  0.69744  0.61735  1.0000
  N   N184      1.0  0.95372  0.56905  0.58218  1.0000
  H   H2943     1.0  0.78592  0.53227  0.53151  1.0000
  H   H2944     1.0  0.81104  0.51064  0.67413  1.0000
  H   H2945     1.0  0.95912  0.55733  0.55387  1.0000
  H   H2946     1.0  0.75927  0.56803  0.71846  1.0000
  C   C1852     1.0  0.92982  0.98485  0.50170  1.0000
  H   H2947     1.0  0.91641  0.92009  0.55645  1.0000
  C   C1853     1.0  0.96881  0.80430  0.52360  1.0000
  C   C1854     1.0  0.77249  0.81628  0.61872  1.0000
  H   H2948     1.0  0.93932  0.71231  0.66377  1.0000
  H   H2949     1.0  0.84501  0.60054  0.85382  1.0000
  N   N185      1.0  0.89744  0.62355  0.81130  1.0000
  C   C1855     1.0  0.90052  0.60056  0.81912  1.0000
  C   C1856     1.0  0.88866  0.62901  0.79208  1.0000
  C   C1857     1.0  0.91779  0.63008  0.80667  1.0000
  C   C1858     1.0  0.88270  0.63446  0.82740  1.0000
  H   H2950     1.0  0.88590  0.59486  0.82104  1.0000
  H   H2951     1.0  0.90536  0.59593  0.83462  1.0000
  H   H2952     1.0  0.91274  0.59194  0.80805  1.0000
  H   H2953     1.0  0.88605  0.64624  0.78563  1.0000
  H   H2954     1.0  0.89915  0.62095  0.77960  1.0000
  H   H2955     1.0  0.87315  0.62453  0.79528  1.0000
  H   H2956     1.0  0.92466  0.62607  0.82098  1.0000
  H   H2957     1.0  0.91613  0.64735  0.80084  1.0000
  H   H2958     1.0  0.92937  0.62233  0.79449  1.0000
  H   H2959     1.0  0.88865  0.63064  0.84225  1.0000
  H   H2960     1.0  0.86714  0.62997  0.83123  1.0000
  H   H2961     1.0  0.88013  0.65186  0.82186  1.0000
  N   N186      1.0  0.84906  0.74584  0.73245  1.0000
  C   C1859     1.0  0.86084  0.75105  0.71068  1.0000
  C   C1860     1.0  0.84650  0.76328  0.74322  1.0000
  C   C1861     1.0  0.86072  0.72642  0.74379  1.0000
  C   C1862     1.0  0.82819  0.74269  0.73214  1.0000
  H   H2962     1.0  0.86286  0.73837  0.70195  1.0000
  H   H2963     1.0  0.87670  0.75349  0.71035  1.0000
  H   H2964     1.0  0.85261  0.76575  0.70173  1.0000
  H   H2965     1.0  0.86188  0.76661  0.74321  1.0000
  H   H2966     1.0  0.83719  0.77797  0.73545  1.0000
  H   H2967     1.0  0.83839  0.75955  0.75993  1.0000
  H   H2968     1.0  0.87428  0.60670  0.55465  1.0000
  N   N187      1.0  0.86772  0.62181  0.58097  1.0000
  S   S741      1.0  0.91482  0.72692  0.55404  1.0000
  H   H2969     1.0  0.78535  0.60544  0.68673  1.0000
  S   S742      1.0  0.89639  0.55268  0.60073  1.0000
  H   H2970     1.0  0.79684  0.66739  0.76787  1.0000
  C   C1863     1.0  0.85452  0.64058  0.57047  1.0000
  Fe  Fe371     1.0  0.91582  0.70551  0.58549  1.0000
  C   C1864     1.0  0.95331  0.62550  0.60110  1.0000
  H   H2971     1.0  0.81799  0.49308  0.54469  1.0000
  C   C1865     1.0  0.91692  0.66269  0.65489  1.0000
  C   C1866     1.0  0.91359  0.67755  0.63653  1.0000
  C   C1867     1.0  0.78845  0.71372  0.78386  1.0000
  S   S743      1.0  0.91550  0.54196  0.65429  1.0000
  C   C1868     1.0  0.86059  0.67903  0.51951  1.0000
  Fe  Fe372     1.0  0.86084  0.57721  0.66736  1.0000
  S   S744      1.0  0.83013  0.59902  0.67459  1.0000
  Fe  Fe373     1.0  0.89102  0.55512  0.63457  1.0000
  C   C1869     1.0  0.77550  0.59041  0.66705  1.0000
  C   C1870     1.0  0.79027  0.59725  0.67380  1.0000
  S   S745      1.0  0.81998  0.78064  0.55761  1.0000
  C   C1871     1.0  0.84642  0.74665  0.51405  1.0000
  S   S746      1.0  0.96103  0.63604  0.57448  1.0000
  Fe  Fe374     1.0  0.96295  0.92605  0.60046  1.0000
  S   S747      1.0  0.76367  0.57088  0.64185  1.0000
  Fe  Fe375     1.0  0.94332  0.66913  0.56686  1.0000
  Fe  Fe376     1.0  0.95611  0.54150  0.92276  1.0000
  C   C1872     1.0  0.83923  0.63967  0.70460  1.0000
  C   C1873     1.0  0.75938  0.83217  0.60731  1.0000
  H   H2972     1.0  0.86721  0.59316  0.72625  1.0000
  H   H2973     1.0  0.97191  0.77976  0.49648  1.0000
  H   H2974     1.0  0.82833  0.55050  0.69234  1.0000
  S   S748      1.0  0.94497  0.68713  0.53370  1.0000
  H   H2975     1.0  0.82695  0.64217  0.71885  1.0000
  H   H2976     1.0  0.84647  0.59765  0.71225  1.0000
  H   H2977     1.0  0.84126  0.60624  0.73646  1.0000
  C   C1874     1.0  0.89715  0.89781  0.54164  1.0000
  C   C1875     1.0  0.97949  0.61186  0.95593  1.0000
  H   H2978     1.0  0.94093  0.54214  0.60035  1.0000
  H   H2979     1.0  0.80048  0.55664  0.69902  1.0000
  C   C1876     1.0  0.81379  0.68603  0.55783  1.0000
  S   S749      1.0  0.79739  0.62071  0.78228  1.0000
  S   S750      1.0  0.81808  0.61631  0.82334  1.0000
  H   H2980     1.0  0.78015  0.52803  0.71040  1.0000
  Fe  Fe377     1.0  0.88861  0.53525  0.68088  1.0000
  C   C1877     1.0  0.94021  0.52438  0.71823  1.0000
  H   H2981     1.0  0.91996  0.53513  0.69615  1.0000
  S   S751      1.0  0.76826  0.65708  0.55696  1.0000
  H   H2982     1.0  0.81715  0.83193  0.56772  1.0000
  H   H2983     1.0  0.84253  0.65531  0.69577  1.0000
  H   H2984     1.0  0.89046  0.51359  0.78843  1.0000
  C   C1878     1.0  0.92353  0.52360  0.70979  1.0000
  C   C1879     1.0  0.90023  0.92754  0.55397  1.0000
  H   H2985     1.0  0.95140  0.69136  0.64978  1.0000
  S   S752      1.0  0.86476  0.54535  0.66029  1.0000
  H   H2986     1.0  0.86227  0.92730  0.54787  1.0000
  N   N188      1.0  0.85837  0.62521  0.71030  1.0000
  H   H2987     1.0  0.97679  0.89810  0.50747  1.0000
  N   N189      1.0  0.97743  0.80856  0.50078  1.0000
  H   H2988     1.0  0.75921  0.59361  0.67462  1.0000
  C   C1880     1.0  0.77236  0.56809  0.49268  1.0000
  C   C1881     1.0  0.83740  0.52583  0.53261  1.0000
  C   C1882     1.0  0.91075  0.92662  0.51700  1.0000
  H   H2989     1.0  0.88752  0.49654  0.90236  1.0000
  C   C1883     1.0  0.97203  0.63269  0.88429  1.0000
  S   S753      1.0  0.95921  0.54995  0.95185  1.0000
  H   H2990     1.0  0.95410  0.59893  0.97743  1.0000
  S   S754      1.0  0.81690  0.72391  0.56292  1.0000
  Fe  Fe378     1.0  0.94922  0.71345  0.54646  1.0000
  S   S755      1.0  0.80541  0.57486  0.81492  1.0000
  S   S756      1.0  0.82551  0.58758  0.51340  1.0000
  S   S757      1.0  0.92116  0.54542  0.93097  1.0000
  H   H2991     1.0  0.97221  0.63969  0.89762  1.0000
  H   H2992     1.0  0.98771  0.93220  0.52323  1.0000
  N   N190      1.0  0.81958  0.52348  0.52483  1.0000
  H   H2993     1.0  0.86261  0.80910  0.59457  1.0000
  H   H2994     1.0  0.79724  0.53731  0.67361  1.0000
  H   H2995     1.0  0.87887  0.63760  0.68219  1.0000
  C   C1884     1.0  0.76562  0.56334  0.73258  1.0000
  C   C1885     1.0  0.93766  0.58397  0.59350  1.0000
  H   H2996     1.0  0.75338  0.69914  0.56495  1.0000
  H   H2997     1.0  0.92716  0.91916  0.51863  1.0000
  S   S758      1.0  0.95999  0.66662  0.71044  1.0000
  H   H2998     1.0  0.79042  0.54563  0.78216  1.0000
  H   H2999     1.0  0.75345  0.69716  0.81756  1.0000
  C   C1886     1.0  0.81774  0.58259  0.64736  1.0000
  C   C1887     1.0  0.82372  0.84332  0.57244  1.0000
  H   H3000     1.0  0.83057  0.68224  0.55632  1.0000
  H   H3001     1.0  0.84692  0.51327  0.69328  1.0000
  H   H3002     1.0  0.76873  0.61829  0.62297  1.0000
  H   H3003     1.0  0.84056  0.66073  0.51478  1.0000
  C   C1888     1.0  0.77028  0.69556  0.56272  1.0000
  H   H3004     1.0  0.83793  0.54267  0.53065  1.0000
  H   H3005     1.0  0.76840  0.65009  0.80045  1.0000
  H   H3006     1.0  0.87016  0.64990  0.71588  1.0000
  C   C1889     1.0  0.87432  0.62243  0.69101  1.0000
  C   C1890     1.0  0.96881  0.59185  0.69257  1.0000
  H   H3007     1.0  0.96615  0.70010  0.66378  1.0000
  Fe  Fe379     1.0  0.79016  0.60837  0.81698  1.0000
  C   C1891     1.0  0.78323  0.55093  0.76853  1.0000
  H   H3008     1.0  0.80873  0.53134  0.49570  1.0000
  H   H3009     1.0  0.83403  0.57947  0.63972  1.0000
  S   S759      1.0  0.75789  0.61708  0.83600  1.0000
  H   H3010     1.0  0.76837  0.92441  0.88344  1.0000
  H   H3011     1.0  0.95102  0.80216  0.49269  1.0000
  S   S760      1.0  0.77795  0.60350  0.53988  1.0000
  C   C1892     1.0  0.80283  0.57648  0.64011  1.0000
  Fe  Fe380     1.0  0.83347  0.61661  0.51787  1.0000
  C   C1893     1.0  0.78181  0.57983  0.65033  1.0000
  S   S761      1.0  0.92045  0.59044  0.94287  1.0000
  Fe  Fe381     1.0  0.80547  0.80076  0.53099  1.0000
  H   H3012     1.0  0.98655  0.66125  0.77026  1.0000
  C   C1894     1.0  0.91536  0.49867  0.87838  1.0000
  S   S762      1.0  0.86219  0.89394  0.50396  1.0000
  H   H3013     1.0  0.85520  0.63596  0.73874  1.0000
  Fe  Fe382     1.0  0.92411  0.55647  0.95879  1.0000
  H   H3014     1.0  0.90782  0.92166  0.50361  1.0000
  Fe  Fe383     1.0  0.76249  0.79139  0.55243  1.0000
  C   C1895     1.0  0.87418  0.93145  0.53353  1.0000
  H   H3015     1.0  0.78094  0.70901  0.82870  1.0000
  H   H3016     1.0  0.85317  0.86534  0.56822  1.0000
  H   H3017     1.0  0.92023  0.51092  0.81640  1.0000
  H   H3018     1.0  0.99296  0.90104  0.63470  1.0000
  H   H3019     1.0  0.92882  0.73412  0.63103  1.0000
  N   N191      1.0  0.99329  0.62756  0.87157  1.0000
  H   H3020     1.0  0.94541  0.58422  0.55231  1.0000
  C   C1896     1.0  0.78169  0.66757  0.83548  1.0000
  C   C1897     1.0  0.95934  0.60728  0.72328  1.0000
  H   H3021     1.0  0.98327  0.51698  0.86070  1.0000
  H   H3022     1.0  0.75263  0.69270  0.49446  1.0000
  H   H3023     1.0  0.76782  0.53601  0.50132  1.0000
  H   H3024     1.0  0.88923  0.92329  0.56904  1.0000
  H   H3025     1.0  0.77032  0.93571  0.90435  1.0000
  H   H3026     1.0  0.91344  0.51546  0.87671  1.0000
  S   S763      1.0  0.97379  0.73240  0.52854  1.0000
  Fe  Fe384     1.0  0.78972  0.63142  0.54145  1.0000
  H   H3027     1.0  0.79354  0.50120  0.71175  1.0000
  H   H3028     1.0  0.96799  0.53616  0.58785  1.0000
  H   H3029     1.0  0.77596  0.79713  0.64898  1.0000
  H   H3030     1.0  0.93603  0.60024  0.58389  1.0000
  H   H3031     1.0  0.75899  0.60036  0.77168  1.0000
  C   C1898     1.0  0.91460  0.98713  0.53796  1.0000
  H   H3032     1.0  0.95211  0.60566  0.74028  1.0000
  C   C1899     1.0  0.97392  0.57606  0.57657  1.0000
  H   H3033     1.0  0.88036  0.52129  0.95191  1.0000
  H   H3034     1.0  0.96857  0.75159  0.62703  1.0000
  C   C1900     1.0  0.76564  0.55074  0.49018  1.0000
  H   H3035     1.0  0.82240  0.85803  0.56027  1.0000
  H   H3036     1.0  0.98260  0.89510  0.53283  1.0000
  H   H3037     1.0  0.86632  0.71796  0.49004  1.0000
  H   H3038     1.0  0.74659  0.85048  0.70423  1.0000
  C   C1901     1.0  0.81447  0.54458  0.70259  1.0000
  H   H3039     1.0  0.86305  0.52580  0.81751  1.0000
  H   H3040     1.0  0.93547  0.57407  0.71124  1.0000
  H   H3041     1.0  0.94170  0.58424  0.60848  1.0000
  H   H3042     1.0  0.79522  0.51563  0.73032  1.0000
  H   H3043     1.0  0.89847  0.53249  0.81246  1.0000
  H   H3044     1.0  0.93212  0.56315  0.56661  1.0000
  C   C1902     1.0  0.88772  0.51022  0.96468  1.0000
  H   H3045     1.0  0.86072  0.75200  0.51426  1.0000
  C   C1903     1.0  0.98101  0.76109  0.57207  1.0000
  C   C1904     1.0  0.76595  0.80966  0.64030  1.0000
  H   H3046     1.0  0.75934  0.89295  0.68428  1.0000
  H   H3047     1.0  0.96991  0.55553  0.72077  1.0000
  C   C1905     1.0  0.75477  0.90036  0.92064  1.0000
  S   S764      1.0  0.98014  0.96930  0.55331  1.0000
  C   C1906     1.0  0.96973  0.56957  0.72688  1.0000
  H   H3048     1.0  0.96865  0.57831  0.68586  1.0000
  H   H3049     1.0  0.78764  0.67417  0.81871  1.0000
  S   S765      1.0  0.98803  0.94296  0.60039  1.0000
  C   C1907     1.0  0.98446  0.74402  0.54309  1.0000
  H   H3050     1.0  0.76842  0.64053  0.60151  1.0000
  H   H3051     1.0  0.85265  0.51808  0.52414  1.0000
  H   H3052     1.0  0.75667  0.88443  0.65136  1.0000
  H   H3053     1.0  0.97597  0.81195  0.53220  1.0000
  S   S766      1.0  0.98101  0.62498  0.75751  1.0000
  C   C1908     1.0  0.74800  0.68289  0.51020  1.0000
  C   C1909     1.0  0.75165  0.65236  0.80526  1.0000
  C   C1910     1.0  0.95411  0.70546  0.65380  1.0000
  H   H3054     1.0  0.82517  0.53173  0.66594  1.0000
  C   C1911     1.0  0.99225  0.61810  0.85431  1.0000
  H   H3055     1.0  0.83431  0.50684  0.72015  1.0000
  H   H3056     1.0  0.92788  0.60205  0.70830  1.0000
  N   N192      1.0  0.84459  0.74719  0.49244  1.0000
  H   H3057     1.0  0.82805  0.72166  0.50209  1.0000
  H   H3058     1.0  0.97506  0.73533  0.65116  1.0000
  H   H3059     1.0  0.75924  0.64447  0.62804  1.0000
  H   H3060     1.0  0.85812  0.49969  0.82830  1.0000
  C   C1912     1.0  0.75797  0.67374  0.86781  1.0000
  C   C1913     1.0  0.74934  0.59664  0.78772  1.0000
  S   S767      1.0  0.74654  0.75718  0.71490  1.0000
  H   H3061     1.0  0.83428  0.49253  0.51904  1.0000
  H   H3062     1.0  0.99324  0.70666  0.63147  1.0000
  C   C1914     1.0  0.74804  0.69094  0.83458  1.0000
  H   H3063     1.0  0.98577  0.72291  0.60777  1.0000
  S   S768      1.0  0.74637  0.52601  0.68604  1.0000
  H   H3064     1.0  0.98648  0.56532  0.56783  1.0000
  H   H3065     1.0  0.99240  0.65830  0.85167  1.0000
  H   H3066     1.0  0.74971  0.85097  0.81680  1.0000
  C   C1915     1.0  0.74615  0.81862  0.65051  1.0000
  C   C1916     1.0  0.93364  0.49382  0.74513  1.0000
  C   C1917     1.0  0.91689  0.49293  0.73648  1.0000
  H   H3067     1.0  0.97572  0.60909  0.72152  1.0000
  H   H3068     1.0  0.75097  0.66002  0.86876  1.0000
  H   H3069     1.0  0.74573  0.68519  0.87601  1.0000
  H   H3070     1.0  0.83667  0.52621  0.49283  1.0000
  C   C1918     1.0  0.82642  0.73820  0.49319  1.0000
  H   H3071     1.0  0.95491  0.83724  0.49462  1.0000
  C   C1919     1.0  0.97215  0.83139  0.49231  1.0000
  H   H3072     1.0  0.74448  0.84459  0.68021  1.0000
  C   C1920     1.0  0.74409  0.65472  0.49600  1.0000
