data_image0
_chemical_formula_structural       HFeH2CFeSCHCFeS2FeS2FeSFeS3FeS2H3CH5NCSHC6H5CHC2H2NHSH3C7H8C7H5NCHCH2C2H5CH3CNC4H3SCH2FeCH2SH2CH2FeHCHSC2HFeH3CH2CH2SHCSCH8CSH2SFeSHFeCH3FeSHS3FeS2FeSCFeSFeS3FeS2FeS2CSHFeSFeNS2H3CHSH2C2H2NC6H4C6H4C2H2CH3C6H4C6HSH3SH2C2H3C2SH3S2C2H2NC2HSC2H3FeHC2HNCH4NHCFeSHFeH4CNC4H16CH2CH3C3H4CH5NHCHCH3NHC2HCHC2H4C4H3CH2SHFeS2FeS2FeSFeS3HS2HCHC2H2SH2SHSHCH2NH2SHC7H4C6H4C3HCSH3C6H4CNC4H7CH4NH4CFeC2H4C2HSH3NHSCHCHCHSH2CN2H9C2H4FeH2CH2CH6C2HFeCFeHCFeHFeS2HCFeCS2FeS2FeS2FeSFeS3HFeH2NSFeSCSH2C2H2FeS2HCH5SH5C6H4C6H4SC6H3C3S2H2FeC7H4CHNC4H12FeHCHNH2NC4H6CH5NHC2H2CH3C2HCSHFeSC2H2CSH2CHCHNC4H13SHCH4CFeHSCH2CS2H2CHC2HFeCH2FeCSH3C3HCSFeSHFeS2FeS2FeSFeS3NCHSHCH2S2HC6H4C6H5C2NFeHSH3C6H10FeHCHCHCSNHC2HCH5CHCNC4H5CH6NC4H12C3FeH2FeCHSHSH5FeH7SCH2SH2C2HCH4C2SCFeS3C3FeS2FeSCS2FeS2FeS2FeSFeS2FeS2Fe2H2SCH3CHFeSNH5CHCHC2HCHC8H4C6H4SC6H4CHSHSCFeC3H2C3H6SNCH3NH4C2H8SHCH2SNCNC4H12NC4H12CH4C2H4SH2SHSHC2HC4H4CH3CNH3FeCH4C2FeHC2HFeCSH6CHCFeSHFeS2FeS2FeSFeS3CSC6H4C2H3CH3C7H4C6H5NHCHSCH5CHC2HSNC4H12SHCFeHCH3CSH3SCSH6NH3CH2SH3CSHFeHSH2CHCHCNH5NCH2CHSCHCHCH2CHCHCFeCFeSH3NFeS2FeS2FeSFeS3CSFe2SHFeSFeS2H3S2CHFeSHSCFeSCH4C2SHCH3NHCH6SNH3CHSC2HC3H7C6SHFeC6H4C6H4C6H5CHCHC2HCHCH3CFeH2CH3C2FeH4FeH9SCHCSC2HN2C4H2CHCH4C2HCSNSHC2H3SH3CH2CNFeSCFeS2FeS2FeSFeS3CHCH3NHSCHCHC6H4C3H4C6H4C6H7CH5SH2NHCHCHSH4CH4CH2SFeH2CH3FeHC2H9FeH2CHCNHCHS2C3SHCS2CHSCHSH3CHCHC2H3SFeS2HSHSH2SHFeSFeS2HFeS2FeS2FeSFeS3CFeS2HCFeH2CHCHC6H4SHCNCH2CH3C6H4CHFeC2H4FeCHC2FeHC6H4FeC4HCH5SH3CH2C2HSFeNCHNC3H7NC4H12SCHSH2NCH3C3FeH2C2HCNH5CH3SH2CH2C3NHCFeHCH3SCH2CHCHCH2CSC2NCHCH3SHFeS2FeS2FeSFeS4FeCSCH10C8H4C6H4C2HC2SH2C6H4CH3NHC2SHNCSCH2CSH4C2HCHCH4CH5CHNH5CHCH6CNHNHCHCH8CHCH5SH2SH3CH2FeS2FeNC2S2FeS2FeS2Fe2S3HFeHFeSFeS2FeS2HFeC2FeS5H2C3H4CH3C4HCHCH2C2HC6H4C6H5SHFeSHC3H2Fe3CNH4C6H6C2SNH4CHCFeHC2H2CNHCH4C4NC4H12NC4H12CH2FeHCH5SC2HSH2SC2HCHCHC2H4CHFeHCNHCHCH2SCH2C2H3SH3S2H2CSHCHC2H2FeSHFeS2FeS2FeSFeS4NHCHC6H5C4H2C6H4C6H4CHCHCHCH2C3HSCH2NCH3SHNSH10CHCH2SCH4NHSH2NH3CH3SH2NH2CHC2H5SCHCHC3H5CHCHCH5CH9NH2FeHCH3S2CHC4HC2SCFeS3FeHFeS2FeSHCS2FeS2FeS2FeSFeS3FeS2FeCHCS2C3SHC6H4CHSC3HNCH2CHC6H9C2H3CHC7H4C3H2C3H2SFeH4CH6SHC2FeHNH2CHFeCH8FeHFeH3CH2C2NH6SH3CH4FeH2CH5NH3NC4HSH2C2SHNCHCFeH3FeHCH2CHCH5C3H4SHFeSCNFeS2FeS2FeSFeS3C3H4C6H5C6H4C7H4CHNC4H12NSCNC4H3CH3CH4SH5SHCHCH7SHCFe2H4SCNH2NHCH9FeSFeSCH4CHC2H3FeS2HSC2SH2CFeSFeSCFeSFeS2FeSFeS3FeS2FeHFe3SCSNH2SHSH2CHC6H4C6H6SHSHCHNFeHC7H4C2HC2HSC6H4CH2C3HSH2S2HCNC4H12CH3SCHCH3SCH4CN2HC3HCHCHFeCH2C2NC4H14CH2CH3S2CH6CH3FeH2CHC2HSC2HCHCHSCH3
_chemical_formula_sum              "H1536 Fe192 C960 S384 N96"
_cell_length_a       59.1644
_cell_length_b       59.4521
_cell_length_c       59.7857
_cell_angle_alpha    81.0972
_cell_angle_beta     80.8533
_cell_angle_gamma    80.9497

_space_group_name_H-M_alt    "P 1"
_space_group_IT_number       1

loop_
  _space_group_symop_operation_xyz
  'x, y, z'

loop_
  _atom_site_type_symbol
  _atom_site_label
  _atom_site_symmetry_multiplicity
  _atom_site_fract_x
  _atom_site_fract_y
  _atom_site_fract_z
  _atom_site_occupancy
  H   H1        1.0  0.29255  0.15245  0.03359  1.0000
  Fe  Fe1       1.0  0.28851  0.09538  0.24686  1.0000
  H   H2        1.0  0.26296  0.15011  0.03162  1.0000
  H   H3        1.0  0.23934  0.16811  0.08848  1.0000
  C   C1        1.0  0.30064  0.30695  0.18076  1.0000
  Fe  Fe2       1.0  0.12402  0.21764  0.22642  1.0000
  S   S1        1.0  0.13663  0.19913  0.19599  1.0000
  C   C2        1.0  0.28367  0.17232  0.07217  1.0000
  H   H4        1.0  0.26815  0.13352  0.09371  1.0000
  C   C3        1.0  0.32209  0.33744  0.16155  1.0000
  Fe  Fe3       1.0  0.25939  0.19589  0.12544  1.0000
  S   S2        1.0  0.24645  0.22085  0.15025  1.0000
  S   S3        1.0  0.25430  0.15884  0.13549  1.0000
  Fe  Fe4       1.0  0.27525  0.23223  0.08773  1.0000
  S   S4        1.0  0.26422  0.26083  0.10953  1.0000
  S   S5        1.0  0.29243  0.23641  0.05084  1.0000
  Fe  Fe5       1.0  0.27912  0.23607  0.13756  1.0000
  S   S6        1.0  0.29048  0.24901  0.16698  1.0000
  Fe  Fe6       1.0  0.23244  0.24383  0.12104  1.0000
  S   S7        1.0  0.19795  0.26471  0.12874  1.0000
  S   S8        1.0  0.29362  0.20891  0.11475  1.0000
  S   S9        1.0  0.24193  0.21729  0.09721  1.0000
  Fe  Fe7       1.0  0.40436  0.23582  0.21936  1.0000
  S   S10       1.0  0.42933  0.25968  0.22226  1.0000
  S   S11       1.0  0.39467  0.23264  0.18501  1.0000
  H   H5        1.0  0.04939  0.27333  0.23899  1.0000
  H   H6        1.0  0.17228  0.28270  0.19789  1.0000
  H   H7        1.0  0.28084  0.19071  0.06482  1.0000
  C   C4        1.0  0.27428  0.15973  0.03869  1.0000
  H   H8        1.0  0.20860  0.24807  0.17535  1.0000
  H   H9        1.0  0.34718  0.30469  0.13918  1.0000
  H   H10       1.0  0.29491  0.30219  0.13831  1.0000
  H   H11       1.0  0.18983  0.15611  0.18877  1.0000
  H   H12       1.0  0.33055  0.28200  0.15105  1.0000
  N   N1        1.0  0.21168  0.16353  0.21146  1.0000
  C   C5        1.0  0.33107  0.33200  0.23206  1.0000
  S   S12       1.0  0.48593  0.22443  0.23667  1.0000
  H   H13       1.0  0.20714  0.28766  0.22939  1.0000
  C   C6        1.0  0.31908  0.24160  0.17299  1.0000
  C   C7        1.0  0.32467  0.24724  0.19321  1.0000
  C   C8        1.0  0.34775  0.24407  0.19734  1.0000
  C   C9        1.0  0.36540  0.23533  0.18120  1.0000
  C   C10       1.0  0.35975  0.22945  0.16111  1.0000
  C   C11       1.0  0.33664  0.23244  0.15704  1.0000
  H   H14       1.0  0.31117  0.25442  0.20558  1.0000
  H   H15       1.0  0.35192  0.24883  0.21275  1.0000
  H   H16       1.0  0.37337  0.22272  0.14855  1.0000
  H   H17       1.0  0.33252  0.22823  0.14132  1.0000
  H   H18       1.0  0.30230  0.16598  0.06754  1.0000
  C   C12       1.0  0.27239  0.13467  0.07473  1.0000
  H   H19       1.0  0.28577  0.32002  0.18572  1.0000
  C   C13       1.0  0.27761  0.22941  0.03000  1.0000
  C   C14       1.0  0.25379  0.22881  0.03428  1.0000
  H   H20       1.0  0.23311  0.27853  0.16982  1.0000
  H   H21       1.0  0.22028  0.15081  0.17894  1.0000
  N   N2        1.0  0.31476  0.31533  0.15928  1.0000
  H   H22       1.0  0.24400  0.23389  0.04995  1.0000
  S   S13       1.0  0.30541  0.34241  0.22030  1.0000
  H   H23       1.0  0.27191  0.17776  0.03008  1.0000
  H   H24       1.0  0.24066  0.18653  0.06158  1.0000
  H   H25       1.0  0.26136  0.12388  0.06881  1.0000
  C   C15       1.0  0.24416  0.16838  0.06965  1.0000
  C   C16       1.0  0.15171  0.21757  0.17530  1.0000
  C   C17       1.0  0.14750  0.24131  0.17586  1.0000
  C   C18       1.0  0.16071  0.25594  0.16035  1.0000
  C   C19       1.0  0.17890  0.24676  0.14500  1.0000
  C   C20       1.0  0.18304  0.22302  0.14430  1.0000
  C   C21       1.0  0.16902  0.20850  0.15904  1.0000
  H   H26       1.0  0.13398  0.24845  0.18818  1.0000
  H   H27       1.0  0.15727  0.27429  0.16076  1.0000
  H   H28       1.0  0.19698  0.21587  0.13233  1.0000
  H   H29       1.0  0.17193  0.19022  0.15823  1.0000
  H   H30       1.0  0.28513  0.33142  0.14332  1.0000
  H   H31       1.0  0.22403  0.22113  0.02179  1.0000
  H   H32       1.0  0.29365  0.29109  0.17925  1.0000
  H   H33       1.0  0.04866  0.22675  0.23534  1.0000
  C   C22       1.0  0.33541  0.29832  0.15447  1.0000
  C   C23       1.0  0.29324  0.12802  0.19554  1.0000
  C   C24       1.0  0.27645  0.11655  0.18986  1.0000
  C   C25       1.0  0.26492  0.12573  0.17098  1.0000
  C   C26       1.0  0.26965  0.14673  0.15826  1.0000
  C   C27       1.0  0.28610  0.15836  0.16426  1.0000
  C   C28       1.0  0.29813  0.14884  0.18263  1.0000
  H   H34       1.0  0.27279  0.10035  0.19968  1.0000
  H   H35       1.0  0.25223  0.11665  0.16638  1.0000
  H   H36       1.0  0.28977  0.17463  0.15470  1.0000
  H   H37       1.0  0.31111  0.15776  0.18698  1.0000
  H   H38       1.0  0.28027  0.17153  0.09110  1.0000
  N   N3        1.0  0.26863  0.15876  0.06379  1.0000
  C   C29       1.0  0.24245  0.22182  0.01816  1.0000
  H   H39       1.0  0.18895  0.19532  0.21422  1.0000
  C   C30       1.0  0.23313  0.17386  0.20986  1.0000
  H   H40       1.0  0.19097  0.28919  0.17169  1.0000
  H   H41       1.0  0.33314  0.33539  0.17535  1.0000
  C   C31       1.0  0.16677  0.32412  0.24114  1.0000
  C   C32       1.0  0.21475  0.14010  0.22410  1.0000
  H   H42       1.0  0.31088  0.30278  0.19526  1.0000
  H   H43       1.0  0.22046  0.23502  0.20080  1.0000
  H   H44       1.0  0.34554  0.29400  0.16912  1.0000
  H   H45       1.0  0.23230  0.15851  0.06368  1.0000
  H   H46       1.0  0.30837  0.22399  0.00570  1.0000
  C   C33       1.0  0.28989  0.22367  0.00908  1.0000
  H   H47       1.0  0.18968  0.30531  0.19513  1.0000
  H   H48       1.0  0.22024  0.25817  0.23193  1.0000
  H   H49       1.0  0.23278  0.29543  0.19244  1.0000
  C   C34       1.0  0.34735  0.31545  0.22197  1.0000
  N   N4        1.0  0.20838  0.27115  0.19955  1.0000
  C   C35       1.0  0.20671  0.24812  0.19412  1.0000
  C   C36       1.0  0.23095  0.27808  0.18876  1.0000
  C   C37       1.0  0.20626  0.27048  0.22460  1.0000
  C   C38       1.0  0.18955  0.28785  0.19066  1.0000
  H   H50       1.0  0.06410  0.29339  0.21857  1.0000
  H   H51       1.0  0.19542  0.17928  0.24117  1.0000
  H   H52       1.0  0.01566  0.22517  0.21484  1.0000
  S   S14       1.0  0.15192  0.23157  0.23892  1.0000
  C   C39       1.0  0.19220  0.17773  0.22365  1.0000
  H   H53       1.0  0.18964  0.24259  0.20135  1.0000
  H   H54       1.0  0.19868  0.13193  0.22648  1.0000
  Fe  Fe8       1.0  0.27841  0.35704  0.24704  1.0000
  C   C40       1.0  0.04886  0.29183  0.23200  1.0000
  H   H55       1.0  0.30698  0.35044  0.16611  1.0000
  H   H56       1.0  0.20593  0.17962  0.17773  1.0000
  S   S15       1.0  0.09882  0.24995  0.22829  1.0000
  H   H57       1.0  0.34437  0.30904  0.20696  1.0000
  H   H58       1.0  0.29073  0.12693  0.07087  1.0000
  C   C41       1.0  0.36754  0.30663  0.23159  1.0000
  H   H59       1.0  0.33218  0.34468  0.14547  1.0000
  H   H60       1.0  0.24557  0.26578  0.19501  1.0000
  Fe  Fe9       1.0  0.12576  0.26235  0.24408  1.0000
  H   H61       1.0  0.23182  0.19129  0.19984  1.0000
  C   C42       1.0  0.30081  0.31862  0.14030  1.0000
  H   H62       1.0  0.31092  0.32471  0.12374  1.0000
  S   S16       1.0  0.30837  0.11671  0.21859  1.0000
  C   C43       1.0  0.04894  0.33032  0.24014  1.0000
  C   C44       1.0  0.01240  0.22988  0.23196  1.0000
  H   H63       1.0  0.46546  0.32371  0.22058  1.0000
  Fe  Fe10      1.0  0.44673  0.23026  0.24455  1.0000
  H   H64       1.0  0.23719  0.17531  0.22710  1.0000
  H   H65       1.0  0.21941  0.14030  0.24137  1.0000
  H   H66       1.0  0.17580  0.17015  0.22554  1.0000
  C   C45       1.0  0.20668  0.16243  0.18824  1.0000
  H   H67       1.0  0.24819  0.16322  0.20124  1.0000
  H   H68       1.0  0.22885  0.12869  0.21507  1.0000
  C   C46       1.0  0.03110  0.23073  0.24354  1.0000
  H   H69       1.0  0.18944  0.26512  0.23316  1.0000
  H   H70       1.0  0.03300  0.29683  0.22357  1.0000
  S   S17       1.0  0.42358  0.20550  0.23898  1.0000
  H   H71       1.0  0.46311  0.29381  0.22144  1.0000
  C   C47       1.0  0.45916  0.30848  0.23162  1.0000
  S   S18       1.0  0.13531  0.29800  0.23291  1.0000
  C   C48       1.0  0.15601  0.30430  0.24828  1.0000
  H   H72       1.0  0.37991  0.29371  0.22377  1.0000
  H   H73       1.0  0.16193  0.33583  0.22641  1.0000
  H   H74       1.0  0.34715  0.15594  0.23715  1.0000
  H   H75       1.0  0.25790  0.49813  0.21576  1.0000
  H   H76       1.0  0.06456  0.33261  0.22731  1.0000
  H   H77       1.0  0.03346  0.33675  0.23139  1.0000
  H   H78       1.0  0.49972  0.28270  0.23712  1.0000
  H   H79       1.0  0.43998  0.31223  0.23540  1.0000
  C   C49       1.0  0.49522  0.29750  0.24712  1.0000
  S   S19       1.0  0.24121  0.36923  0.24255  1.0000
  H   H80       1.0  0.50296  0.31230  0.23672  1.0000
  H   H81       1.0  0.19197  0.34422  0.24765  1.0000
  S   S20       1.0  0.26336  0.07066  0.24696  1.0000
  Fe  Fe11      1.0  0.28068  0.04930  0.27554  1.0000
  S   S21       1.0  0.30784  0.07246  0.27282  1.0000
  H   H82       1.0  0.18367  0.04784  0.30514  1.0000
  Fe  Fe12      1.0  0.24228  0.08945  0.27487  1.0000
  C   C50       1.0  0.35576  0.33145  0.26104  1.0000
  H   H83       1.0  0.20413  0.16895  0.30730  1.0000
  H   H84       1.0  0.33683  0.24804  0.43568  1.0000
  H   H85       1.0  0.29757  0.26301  0.32581  1.0000
  Fe  Fe13      1.0  0.28351  0.09142  0.29836  1.0000
  S   S22       1.0  0.30034  0.10320  0.32492  1.0000
  H   H86       1.0  0.25152  0.39285  0.34369  1.0000
  S   S23       1.0  0.25775  0.06644  0.30365  1.0000
  S   S24       1.0  0.16313  0.19882  0.29589  1.0000
  S   S25       1.0  0.11261  0.24860  0.27999  1.0000
  Fe  Fe14      1.0  0.30601  0.22772  0.40031  1.0000
  S   S26       1.0  0.27904  0.23903  0.37723  1.0000
  S   S27       1.0  0.34284  0.23343  0.38850  1.0000
  Fe  Fe15      1.0  0.27226  0.21189  0.44083  1.0000
  S   S28       1.0  0.24194  0.22132  0.42126  1.0000
  C   C51       1.0  0.26900  0.45179  0.25916  1.0000
  Fe  Fe16      1.0  0.26525  0.20623  0.39231  1.0000
  S   S29       1.0  0.24835  0.19121  0.36789  1.0000
  Fe  Fe17      1.0  0.25758  0.25333  0.40730  1.0000
  S   S30       1.0  0.23425  0.28624  0.40033  1.0000
  S   S31       1.0  0.29435  0.19330  0.41311  1.0000
  S   S32       1.0  0.28596  0.24554  0.42912  1.0000
  Fe  Fe18      1.0  0.40049  0.21728  0.26984  1.0000
  S   S33       1.0  0.42531  0.23930  0.27732  1.0000
  S   S34       1.0  0.37887  0.19412  0.29494  1.0000
  Fe  Fe19      1.0  0.23316  0.34717  0.27622  1.0000
  S   S35       1.0  0.23313  0.37558  0.29702  1.0000
  S   S36       1.0  0.21060  0.31905  0.28826  1.0000
  C   C52       1.0  0.34271  0.14917  0.29515  1.0000
  S   S37       1.0  0.28257  0.38581  0.26560  1.0000
  H   H87       1.0  0.27436  0.24321  0.47690  1.0000
  Fe  Fe20      1.0  0.27072  0.36274  0.29723  1.0000
  S   S38       1.0  0.28813  0.35560  0.32884  1.0000
  Fe  Fe21      1.0  0.24472  0.39663  0.26378  1.0000
  N   N5        1.0  0.32732  0.27857  0.30896  1.0000
  S   S39       1.0  0.27016  0.33306  0.27883  1.0000
  S   S40       1.0  0.20405  0.09840  0.27392  1.0000
  H   H88       1.0  0.18609  0.01089  0.28894  1.0000
  H   H89       1.0  0.19993  0.01534  0.34639  1.0000
  H   H90       1.0  0.48025  0.23097  0.28466  1.0000
  C   C53       1.0  0.28158  0.46860  0.26308  1.0000
  H   H91       1.0  0.35896  0.33763  0.27619  1.0000
  S   S41       1.0  0.37972  0.24586  0.24980  1.0000
  H   H92       1.0  0.37143  0.21933  0.42954  1.0000
  H   H93       1.0  0.27801  0.43568  0.25421  1.0000
  C   C54       1.0  0.20242  0.04342  0.30653  1.0000
  C   C55       1.0  0.24611  0.49406  0.27139  1.0000
  H   H94       1.0  0.18375  0.28234  0.29408  1.0000
  H   H95       1.0  0.26118  0.46273  0.31936  1.0000
  N   N6        1.0  0.20960  0.01831  0.30998  1.0000
  C   C56       1.0  0.24929  0.30597  0.38127  1.0000
  C   C57       1.0  0.27299  0.30588  0.38110  1.0000
  C   C58       1.0  0.28477  0.32181  0.36559  1.0000
  C   C59       1.0  0.27308  0.33701  0.34954  1.0000
  C   C60       1.0  0.24947  0.33682  0.34963  1.0000
  C   C61       1.0  0.23751  0.32164  0.36572  1.0000
  H   H96       1.0  0.28211  0.29384  0.39321  1.0000
  H   H97       1.0  0.30296  0.32207  0.36582  1.0000
  H   H98       1.0  0.24024  0.34852  0.33755  1.0000
  H   H99       1.0  0.21918  0.32180  0.36585  1.0000
  C   C62       1.0  0.35331  0.22172  0.36305  1.0000
  C   C63       1.0  0.37374  0.22786  0.34992  1.0000
  C   C64       1.0  0.38170  0.21937  0.32903  1.0000
  C   C65       1.0  0.36945  0.20443  0.32136  1.0000
  C   C66       1.0  0.34926  0.19793  0.33478  1.0000
  C   C67       1.0  0.34105  0.20676  0.35545  1.0000
  H   H100      1.0  0.38332  0.23934  0.35581  1.0000
  H   H101      1.0  0.39750  0.22412  0.31905  1.0000
  H   H102      1.0  0.33974  0.18626  0.32915  1.0000
  H   H103      1.0  0.32530  0.20184  0.36554  1.0000
  C   C68       1.0  0.17911  0.29405  0.27931  1.0000
  C   C69       1.0  0.37085  0.21525  0.44848  1.0000
  H   H104      1.0  0.31447  0.20709  0.46042  1.0000
  H   H105      1.0  0.23891  0.02045  0.32649  1.0000
  C   C70       1.0  0.18986  0.31386  0.27231  1.0000
  H   H106      1.0  0.14624  0.16661  0.27301  1.0000
  H   H107      1.0  0.32341  0.24309  0.32030  1.0000
  H   H108      1.0  0.30303  0.28147  0.28511  1.0000
  C   C71       1.0  0.28590  0.12779  0.33662  1.0000
  C   C72       1.0  0.26416  0.13785  0.33111  1.0000
  C   C73       1.0  0.25286  0.15741  0.34074  1.0000
  C   C74       1.0  0.26326  0.16700  0.35585  1.0000
  C   C75       1.0  0.28517  0.15716  0.36109  1.0000
  C   C76       1.0  0.29645  0.13753  0.35152  1.0000
  H   H109      1.0  0.25584  0.13035  0.31979  1.0000
  H   H110      1.0  0.23587  0.16494  0.33670  1.0000
  H   H111      1.0  0.29331  0.16448  0.37270  1.0000
  H   H112      1.0  0.31327  0.12977  0.35583  1.0000
  C   C77       1.0  0.19242  0.12580  0.28127  1.0000
  C   C78       1.0  0.20426  0.13763  0.29315  1.0000
  C   C79       1.0  0.19502  0.15993  0.29793  1.0000
  C   C80       1.0  0.17413  0.17058  0.29054  1.0000
  C   C81       1.0  0.16240  0.15870  0.27861  1.0000
  C   C82       1.0  0.17140  0.13632  0.27416  1.0000
  H   H113      1.0  0.22034  0.12953  0.29897  1.0000
  S   S42       1.0  0.39633  0.30254  0.26385  1.0000
  H   H114      1.0  0.34747  0.25530  0.45983  1.0000
  H   H115      1.0  0.17770  0.01129  0.33071  1.0000
  H   H116      1.0  0.15425  0.27383  0.27286  1.0000
  S   S43       1.0  0.26588  0.11597  0.27214  1.0000
  H   H117      1.0  0.28601  0.40783  0.35134  1.0000
  H   H118      1.0  0.44172  0.28686  0.27251  1.0000
  C   C83       1.0  0.31807  0.30130  0.31616  1.0000
  C   C84       1.0  0.35263  0.27449  0.30883  1.0000
  H   H119      1.0  0.32853  0.26098  0.27986  1.0000
  H   H120      1.0  0.31915  0.24707  0.46310  1.0000
  H   H121      1.0  0.30667  0.16897  0.27339  1.0000
  C   C85       1.0  0.46449  0.32299  0.26574  1.0000
  C   C86       1.0  0.23348  0.47713  0.26755  1.0000
  S   S44       1.0  0.26965  0.19526  0.47783  1.0000
  H   H122      1.0  0.29029  0.43712  0.34100  1.0000
  H   H123      1.0  0.07036  0.28000  0.26949  1.0000
  H   H124      1.0  0.32045  0.26048  0.34286  1.0000
  S   S45       1.0  0.11014  0.20013  0.26070  1.0000
  S   S46       1.0  0.04993  0.23839  0.28071  1.0000
  C   C87       1.0  0.02702  0.23660  0.26573  1.0000
  C   C88       1.0  0.31669  0.26050  0.32516  1.0000
  H   H125      1.0  0.01207  0.30914  0.25961  1.0000
  H   H126      1.0  0.33728  0.16751  0.29755  1.0000
  N   N7        1.0  0.04900  0.30599  0.25023  1.0000
  C   C89       1.0  0.20487  0.00821  0.29038  1.0000
  C   C90       1.0  0.23460  0.01365  0.31158  1.0000
  H   H127      1.0  0.32285  0.35258  0.25968  1.0000
  S   S47       1.0  0.22866  0.43410  0.25901  1.0000
  C   C91       1.0  0.06999  0.29815  0.26134  1.0000
  C   C92       1.0  0.33718  0.24346  0.45444  1.0000
  H   H128      1.0  0.20603  0.05183  0.32075  1.0000
  H   H129      1.0  0.21479  0.48034  0.26960  1.0000
  H   H130      1.0  0.34578  0.17753  0.25559  1.0000
  Fe  Fe22      1.0  0.40639  0.26692  0.25450  1.0000
  H   H131      1.0  0.46347  0.26801  0.25749  1.0000
  C   C93       1.0  0.27688  0.42564  0.34773  1.0000
  C   C94       1.0  0.49710  0.23503  0.27662  1.0000
  H   H132      1.0  0.46891  0.27786  0.28288  1.0000
  N   N8        1.0  0.34688  0.21915  0.46019  1.0000
  C   C95       1.0  0.32198  0.27799  0.28574  1.0000
  H   H133      1.0  0.33013  0.29118  0.27307  1.0000
  H   H134      1.0  0.28308  0.40219  0.31236  1.0000
  H   H135      1.0  0.32511  0.31549  0.30396  1.0000
  H   H136      1.0  0.35728  0.27368  0.32629  1.0000
  N   N9        1.0  0.33771  0.14466  0.27292  1.0000
  H   H137      1.0  0.21389  0.01618  0.27398  1.0000
  C   C96       1.0  0.24317  0.41102  0.34071  1.0000
  Fe  Fe23      1.0  0.08722  0.23379  0.26394  1.0000
  S   S48       1.0  0.29166  0.01065  0.28054  1.0000
  H   H138      1.0  0.29890  0.30470  0.31724  1.0000
  Fe  Fe24      1.0  0.13662  0.21636  0.27344  1.0000
  H   H139      1.0  0.47222  0.31933  0.28195  1.0000
  H   H140      1.0  0.36107  0.28846  0.29776  1.0000
  H   H141      1.0  0.44545  0.32748  0.27029  1.0000
  H   H142      1.0  0.23883  0.45655  0.34271  1.0000
  C   C97       1.0  0.24489  0.45575  0.26188  1.0000
  N   N10       1.0  0.20706  0.25506  0.35104  1.0000
  C   C98       1.0  0.20046  0.24021  0.33613  1.0000
  C   C99       1.0  0.23192  0.25711  0.34499  1.0000
  C   C100      1.0  0.20245  0.24474  0.37518  1.0000
  C   C101      1.0  0.19353  0.27817  0.34791  1.0000
  H   H143      1.0  0.18177  0.23828  0.34010  1.0000
  H   H144      1.0  0.21036  0.22259  0.33832  1.0000
  H   H145      1.0  0.20386  0.24734  0.31777  1.0000
  H   H146      1.0  0.23753  0.26791  0.35618  1.0000
  H   H147      1.0  0.24263  0.23994  0.34691  1.0000
  H   H148      1.0  0.23591  0.26523  0.32701  1.0000
  H   H149      1.0  0.21243  0.22732  0.37819  1.0000
  H   H150      1.0  0.18385  0.24295  0.38035  1.0000
  H   H151      1.0  0.20739  0.25536  0.38694  1.0000
  H   H152      1.0  0.19792  0.28951  0.35935  1.0000
  H   H153      1.0  0.17464  0.27735  0.35177  1.0000
  H   H154      1.0  0.19713  0.28681  0.33006  1.0000
  H   H155      1.0  0.32251  0.30262  0.33325  1.0000
  H   H156      1.0  0.16217  0.12727  0.26496  1.0000
  H   H157      1.0  0.36039  0.25804  0.30231  1.0000
  H   H158      1.0  0.26112  0.41929  0.29722  1.0000
  C   C102      1.0  0.35060  0.15887  0.25419  1.0000
  H   H159      1.0  0.30249  0.14027  0.28595  1.0000
  H   H160      1.0  0.02792  0.28541  0.27535  1.0000
  C   C103      1.0  0.37178  0.31464  0.25110  1.0000
  H   H161      1.0  0.24467  0.02198  0.29608  1.0000
  H   H162      1.0  0.33916  0.18562  0.45709  1.0000
  H   H163      1.0  0.30026  0.46518  0.26133  1.0000
  C   C104      1.0  0.34481  0.12008  0.27055  1.0000
  C   C105      1.0  0.24863  0.45048  0.32679  1.0000
  C   C106      1.0  0.27318  0.41964  0.30963  1.0000
  H   H164      1.0  0.23348  0.41552  0.35730  1.0000
  H   H165      1.0  0.35665  0.22509  0.49177  1.0000
  H   H166      1.0  0.23619  0.45174  0.31432  1.0000
  H   H167      1.0  0.28581  0.43154  0.30153  1.0000
  C   C107      1.0  0.27023  0.48970  0.26934  1.0000
  H   H168      1.0  0.47124  0.33844  0.25558  1.0000
  H   H169      1.0  0.23033  0.41165  0.32880  1.0000
  H   H170      1.0  0.33348  0.13853  0.30969  1.0000
  H   H171      1.0  0.26792  0.43092  0.36430  1.0000
  H   H172      1.0  0.33305  0.20735  0.43364  1.0000
  N   N11       1.0  0.26044  0.42672  0.33127  1.0000
  H   H173      1.0  0.32873  0.21611  0.49442  1.0000
  C   C108      1.0  0.16232  0.28923  0.26731  1.0000
  H   H174      1.0  0.35411  0.19561  0.49018  1.0000
  C   C109      1.0  0.46062  0.28306  0.26707  1.0000
  H   H175      1.0  0.37864  0.19701  0.45219  1.0000
  H   H176      1.0  0.36152  0.14537  0.29649  1.0000
  H   H177      1.0  0.07096  0.30864  0.27495  1.0000
  N   N12       1.0  0.46990  0.30304  0.25287  1.0000
  H   H178      1.0  0.50386  0.29268  0.26279  1.0000
  C   C110      1.0  0.19666  0.00803  0.33132  1.0000
  C   C111      1.0  0.02827  0.30361  0.26740  1.0000
  H   H179      1.0  0.02781  0.31399  0.28148  1.0000
  C   C112      1.0  0.34666  0.21375  0.48521  1.0000
  H   H180      1.0  0.21193  0.05156  0.29050  1.0000
  C   C113      1.0  0.27868  0.23394  0.49298  1.0000
  C   C114      1.0  0.33280  0.20414  0.45250  1.0000
  H   H181      1.0  0.38204  0.22624  0.45388  1.0000
  H   H182      1.0  0.04893  0.34151  0.25345  1.0000
  H   H183      1.0  0.36365  0.11504  0.27112  1.0000
  H   H184      1.0  0.36958  0.15492  0.25457  1.0000
  C   C115      1.0  0.33526  0.33987  0.25172  1.0000
  C   C116      1.0  0.31266  0.15052  0.27183  1.0000
  C   C117      1.0  0.50406  0.23316  0.25345  1.0000
  C   C118      1.0  0.18380  0.32886  0.25308  1.0000
  H   H185      1.0  0.25597  0.01625  0.25091  1.0000
  H   H186      1.0  0.30821  0.14694  0.25541  1.0000
  H   H187      1.0  0.33554  0.10892  0.28460  1.0000
  C   C119      1.0  0.27684  0.21052  0.49817  1.0000
  H   H188      1.0  0.34090  0.11600  0.25410  1.0000
  H   H189      1.0  0.08600  0.29918  0.24881  1.0000
  S   S49       1.0  0.14494  0.24846  0.69228  1.0000
  H   H190      1.0  0.21356  0.20517  0.54943  1.0000
  Fe  Fe25      1.0  0.26712  0.22370  0.62963  1.0000
  S   S50       1.0  0.26605  0.25716  0.60628  1.0000
  S   S51       1.0  0.23895  0.20185  0.64291  1.0000
  Fe  Fe26      1.0  0.31837  0.21856  0.63012  1.0000
  S   S52       1.0  0.32252  0.25110  0.60629  1.0000
  S   S53       1.0  0.34446  0.19451  0.64882  1.0000
  Fe  Fe27      1.0  0.29062  0.26595  0.62758  1.0000
  S   S54       1.0  0.29144  0.30149  0.63565  1.0000
  Fe  Fe28      1.0  0.29786  0.23999  0.58653  1.0000
  S   S55       1.0  0.30195  0.24891  0.54808  1.0000
  S   S56       1.0  0.28837  0.23423  0.65306  1.0000
  S   S57       1.0  0.29705  0.20572  0.60821  1.0000
  H   H191      1.0  0.30454  0.27481  0.69891  1.0000
  S   S58       1.0  0.27378  0.37952  0.72761  1.0000
  S   S59       1.0  0.24233  0.43984  0.74080  1.0000
  H   H192      1.0  0.28783  0.26357  0.50431  1.0000
  C   C120      1.0  0.20520  0.21328  0.56483  1.0000
  H   H193      1.0  0.29443  0.42151  0.74063  1.0000
  C   C121      1.0  0.31276  0.42443  0.73895  1.0000
  C   C122      1.0  0.28607  0.24550  0.50865  1.0000
  H   H194      1.0  0.26557  0.15039  0.71075  1.0000
  H   H195      1.0  0.19989  0.30889  0.70604  1.0000
  S   S60       1.0  0.39783  0.24966  0.70084  1.0000
  H   H196      1.0  0.34715  0.31586  0.68321  1.0000
  H   H197      1.0  0.30642  0.46904  0.72246  1.0000
  S   S61       1.0  0.42059  0.19758  0.74673  1.0000
  H   H198      1.0  0.19120  0.22691  0.55944  1.0000
  S   S62       1.0  0.23438  0.32998  0.72780  1.0000
  H   H199      1.0  0.25365  0.21091  0.58929  1.0000
  C   C123      1.0  0.19334  0.05464  0.74433  1.0000
  H   H200      1.0  0.37885  0.16715  0.74651  1.0000
  H   H201      1.0  0.29746  0.18164  0.65944  1.0000
  N   N13       1.0  0.17729  0.29612  0.73547  1.0000
  H   H202      1.0  0.21965  0.25524  0.55316  1.0000
  H   H203      1.0  0.19645  0.26796  0.71883  1.0000
  S   S63       1.0  0.10469  0.20821  0.73832  1.0000
  H   H204      1.0  0.30070  0.41616  0.69966  1.0000
  C   C124      1.0  0.35761  0.14213  0.74223  1.0000
  C   C125      1.0  0.35928  0.20969  0.66343  1.0000
  C   C126      1.0  0.36268  0.23235  0.65494  1.0000
  C   C127      1.0  0.37494  0.24430  0.66633  1.0000
  C   C128      1.0  0.38315  0.23394  0.68669  1.0000
  C   C129      1.0  0.37933  0.21143  0.69553  1.0000
  C   C130      1.0  0.36769  0.19918  0.68370  1.0000
  H   H205      1.0  0.35641  0.24049  0.63923  1.0000
  H   H206      1.0  0.37799  0.26164  0.65935  1.0000
  H   H207      1.0  0.38563  0.20335  0.71124  1.0000
  H   H208      1.0  0.36511  0.18165  0.69032  1.0000
  C   C131      1.0  0.27513  0.30917  0.66109  1.0000
  C   C132      1.0  0.27634  0.33063  0.66742  1.0000
  C   C133      1.0  0.26403  0.33701  0.68801  1.0000
  C   C134      1.0  0.25045  0.32195  0.70232  1.0000
  C   C135      1.0  0.24934  0.30041  0.69608  1.0000
  C   C136      1.0  0.26169  0.29400  0.67547  1.0000
  H   H209      1.0  0.28673  0.34238  0.65626  1.0000
  H   H210      1.0  0.26466  0.35377  0.69254  1.0000
  H   H211      1.0  0.23909  0.28855  0.70718  1.0000
  H   H212      1.0  0.26075  0.27741  0.67066  1.0000
  C   C137      1.0  0.29120  0.23389  0.52987  1.0000
  C   C138      1.0  0.28866  0.21061  0.53549  1.0000
  C   C139      1.0  0.28149  0.19894  0.51962  1.0000
  H   H213      1.0  0.19695  0.19993  0.57720  1.0000
  C   C140      1.0  0.34504  0.43862  0.71396  1.0000
  S   S64       1.0  0.33285  0.35830  0.74468  1.0000
  H   H214      1.0  0.29291  0.20148  0.55171  1.0000
  H   H215      1.0  0.28011  0.18079  0.52373  1.0000
  H   H216      1.0  0.31097  0.12973  0.66502  1.0000
  C   C141      1.0  0.17195  0.23559  0.68023  1.0000
  C   C142      1.0  0.17818  0.21179  0.68416  1.0000
  C   C143      1.0  0.19901  0.20158  0.67288  1.0000
  C   C144      1.0  0.21401  0.21520  0.65831  1.0000
  C   C145      1.0  0.20829  0.23911  0.65521  1.0000
  C   C146      1.0  0.18706  0.24925  0.66583  1.0000
  H   H217      1.0  0.16654  0.20119  0.69520  1.0000
  H   H218      1.0  0.20339  0.18308  0.67533  1.0000
  H   H219      1.0  0.21988  0.24974  0.64415  1.0000
  H   H220      1.0  0.18228  0.26768  0.66284  1.0000
  C   C147      1.0  0.30609  0.45692  0.71005  1.0000
  N   N14       1.0  0.29703  0.15468  0.68784  1.0000
  C   C148      1.0  0.30562  0.16805  0.70284  1.0000
  C   C149      1.0  0.28535  0.17060  0.67036  1.0000
  C   C150      1.0  0.28051  0.14001  0.70164  1.0000
  C   C151      1.0  0.31674  0.14006  0.67650  1.0000
  H   H221      1.0  0.31459  0.15656  0.71621  1.0000
  H   H222      1.0  0.29128  0.17935  0.71164  1.0000
  H   H223      1.0  0.31823  0.17920  0.69292  1.0000
  H   H224      1.0  0.27832  0.16122  0.65887  1.0000
  H   H225      1.0  0.27059  0.18218  0.67829  1.0000
  H   H226      1.0  0.30792  0.32443  0.70335  1.0000
  H   H227      1.0  0.28897  0.12751  0.71468  1.0000
  C   C152      1.0  0.31895  0.41895  0.69925  1.0000
  H   H228      1.0  0.27339  0.12992  0.69084  1.0000
  H   H229      1.0  0.36243  0.14358  0.72388  1.0000
  H   H230      1.0  0.32603  0.12793  0.68924  1.0000
  H   H231      1.0  0.32958  0.15059  0.66599  1.0000
  N   N15       1.0  0.32995  0.29227  0.70874  1.0000
  H   H232      1.0  0.32910  0.40174  0.70348  1.0000
  H   H233      1.0  0.19196  0.07174  0.73355  1.0000
  H   H234      1.0  0.23504  0.48834  0.72688  1.0000
  H   H235      1.0  0.27424  0.01569  0.74055  1.0000
  C   C153      1.0  0.24037  0.20417  0.58192  1.0000
  Fe  Fe29      1.0  0.40398  0.23343  0.73615  1.0000
  C   C154      1.0  0.31212  0.31045  0.71733  1.0000
  C   C155      1.0  0.24684  0.48509  0.73949  1.0000
  H   H236      1.0  0.32319  0.40754  0.74365  1.0000
  H   H237      1.0  0.32540  0.42582  0.68138  1.0000
  H   H238      1.0  0.34690  0.45049  0.72606  1.0000
  H   H239      1.0  0.35813  0.31057  0.71017  1.0000
  C   C156      1.0  0.32108  0.28155  0.69176  1.0000
  C   C157      1.0  0.21036  0.23334  0.59542  1.0000
  H   H240      1.0  0.16046  0.16422  0.72973  1.0000
  S   S65       1.0  0.22760  0.10437  0.72293  1.0000
  H   H241      1.0  0.16976  0.31488  0.70315  1.0000
  H   H242      1.0  0.31786  0.29407  0.67634  1.0000
  H   H243      1.0  0.23915  0.04427  0.73604  1.0000
  N   N16       1.0  0.22215  0.22283  0.57506  1.0000
  H   H244      1.0  0.24637  0.24732  0.56485  1.0000
  S   S66       1.0  0.33086  0.11019  0.73695  1.0000
  C   C158      1.0  0.33580  0.27464  0.72801  1.0000
  H   H245      1.0  0.20317  0.02151  0.70135  1.0000
  C   C159      1.0  0.35089  0.30246  0.69783  1.0000
  H   H246      1.0  0.22267  0.24065  0.60359  1.0000
  C   C160      1.0  0.23271  0.24043  0.55810  1.0000
  H   H247      1.0  0.17611  0.03046  0.71804  1.0000
  S   S67       1.0  0.28633  0.06877  0.73828  1.0000
  H   H248      1.0  0.20250  0.22044  0.60873  1.0000
  H   H249      1.0  0.23999  0.02874  0.71234  1.0000
  C   C161      1.0  0.17893  0.27339  0.72780  1.0000
  N   N17       1.0  0.20615  0.03648  0.73107  1.0000
  N   N18       1.0  0.32073  0.43476  0.71551  1.0000
  H   H250      1.0  0.19640  0.24745  0.59107  1.0000
  H   H251      1.0  0.35173  0.44631  0.69645  1.0000
  H   H252      1.0  0.19638  0.14493  0.70914  1.0000
  H   H253      1.0  0.22889  0.05880  0.71031  1.0000
  H   H254      1.0  0.23317  0.19092  0.59526  1.0000
  H   H255      1.0  0.24935  0.19548  0.56712  1.0000
  H   H256      1.0  0.24101  0.23323  0.54219  1.0000
  H   H257      1.0  0.18199  0.33070  0.72062  1.0000
  H   H258      1.0  0.28768  0.45449  0.71069  1.0000
  C   C162      1.0  0.19014  0.13803  0.72646  1.0000
  C   C163      1.0  0.18238  0.31343  0.71543  1.0000
  H   H259      1.0  0.31184  0.46551  0.69264  1.0000
  H   H260      1.0  0.32041  0.26661  0.73670  1.0000
  H   H261      1.0  0.36468  0.28920  0.69112  1.0000
  H   H262      1.0  0.17514  0.25988  0.74243  1.0000
  Fe  Fe30      1.0  0.13224  0.23137  0.72730  1.0000
  H   H263      1.0  0.34280  0.28213  0.74103  1.0000
  H   H264      1.0  0.29575  0.30360  0.72502  1.0000
  C   C164      1.0  0.19382  0.03493  0.71183  1.0000
  H   H265      1.0  0.33360  0.26697  0.68580  1.0000
  H   H266      1.0  0.34925  0.26068  0.72207  1.0000
  C   C165      1.0  0.16986  0.14897  0.73810  1.0000
  H   H267      1.0  0.19209  0.05156  0.70031  1.0000
  H   H268      1.0  0.14049  0.30307  0.73554  1.0000
  H   H269      1.0  0.16638  0.27361  0.71576  1.0000
  H   H270      1.0  0.21204  0.28963  0.74359  1.0000
  H   H271      1.0  0.37497  0.32724  0.73777  1.0000
  H   H272      1.0  0.35641  0.42218  0.71820  1.0000
  C   C166      1.0  0.20787  0.01417  0.74605  1.0000
  C   C167      1.0  0.22957  0.04227  0.72203  1.0000
  H   H273      1.0  0.31802  0.31841  0.73067  1.0000
  Fe  Fe31      1.0  0.25248  0.09023  0.74778  1.0000
  C   C168      1.0  0.20241  0.11839  0.73735  1.0000
  Fe  Fe32      1.0  0.25027  0.35390  0.74442  1.0000
  H   H274      1.0  0.01861  0.18864  0.74609  1.0000
  C   C169      1.0  0.15367  0.30258  0.74705  1.0000
  Fe  Fe33      1.0  0.27964  0.04924  0.77352  1.0000
  H   H275      1.0  0.25105  0.02375  0.83562  1.0000
  Fe  Fe34      1.0  0.26203  0.09220  0.79561  1.0000
  S   S68       1.0  0.26695  0.11597  0.76296  1.0000
  S   S69       1.0  0.24385  0.10285  0.82893  1.0000
  H   H276      1.0  0.28050  0.01870  0.88716  1.0000
  C   C170      1.0  0.36575  0.32183  0.75436  1.0000
  Fe  Fe35      1.0  0.30057  0.09334  0.75567  1.0000
  C   C171      1.0  0.16142  0.13970  0.76027  1.0000
  S   S70       1.0  0.24423  0.06839  0.78110  1.0000
  S   S71       1.0  0.29722  0.07191  0.79011  1.0000
  Fe  Fe36      1.0  0.27087  0.18637  0.89727  1.0000
  S   S72       1.0  0.23836  0.18182  0.92153  1.0000
  S   S73       1.0  0.29621  0.16030  0.87953  1.0000
  Fe  Fe37      1.0  0.26359  0.23771  0.89589  1.0000
  S   S74       1.0  0.23001  0.23827  0.91946  1.0000
  S   S75       1.0  0.28444  0.26633  0.88112  1.0000
  Fe  Fe38      1.0  0.24836  0.20807  0.94015  1.0000
  S   S76       1.0  0.23976  0.20540  0.97875  1.0000
  Fe  Fe39      1.0  0.22235  0.21214  0.89928  1.0000
  S   S77       1.0  0.18695  0.20968  0.89123  1.0000
  S   S78       1.0  0.28263  0.20947  0.91808  1.0000
  S   S79       1.0  0.25416  0.21465  0.87358  1.0000
  H   H277      1.0  0.14934  0.28999  0.76239  1.0000
  Fe  Fe40      1.0  0.39517  0.24591  0.78380  1.0000
  H   H278      1.0  0.42014  0.15230  0.77396  1.0000
  H   H279      1.0  0.44623  0.16849  0.80713  1.0000
  N   N19       1.0  0.27494  0.03537  0.85356  1.0000
  S   S80       1.0  0.13593  0.15248  0.77514  1.0000
  Fe  Fe41      1.0  0.13979  0.23412  0.77592  1.0000
  S   S81       1.0  0.16463  0.24983  0.79175  1.0000
  C   C172      1.0  0.36104  0.15328  0.77878  1.0000
  S   S82       1.0  0.11274  0.21179  0.79160  1.0000
  H   H280      1.0  0.30177  0.03085  0.82512  1.0000
  H   H281      1.0  0.28745  0.06768  0.84088  1.0000
  C   C173      1.0  0.28146  0.29746  0.94332  1.0000
  C   C174      1.0  0.01073  0.25043  0.76185  1.0000
  H   H282      1.0  0.29084  0.00507  0.83849  1.0000
  H   H283      1.0  0.43011  0.10337  0.79740  1.0000
  Fe  Fe42      1.0  0.25297  0.36390  0.79203  1.0000
  S   S83       1.0  0.23567  0.35656  0.82809  1.0000
  S   S84       1.0  0.27739  0.39000  0.77983  1.0000
  H   H284      1.0  0.18587  0.46901  0.79863  1.0000
  C   C175      1.0  0.33314  0.32762  0.78393  1.0000
  H   H285      1.0  0.33364  0.30306  0.81451  1.0000
  H   H286      1.0  0.31708  0.33747  0.79026  1.0000
  H   H287      1.0  0.27374  0.31514  0.94663  1.0000
  H   H288      1.0  0.44287  0.13103  0.76399  1.0000
  H   H289      1.0  0.29146  0.25186  0.95597  1.0000
  S   S85       1.0  0.47556  0.19806  0.77322  1.0000
  H   H290      1.0  0.24067  0.05054  0.84704  1.0000
  H   H291      1.0  0.19386  0.31214  0.75718  1.0000
  H   H292      1.0  0.23117  0.27558  0.94643  1.0000
  H   H293      1.0  0.26190  0.04960  0.82229  1.0000
  H   H294      1.0  0.26386  0.24477  0.95252  1.0000
  C   C176      1.0  0.27032  0.29053  0.86561  1.0000
  C   C177      1.0  0.28356  0.30476  0.84966  1.0000
  C   C178      1.0  0.27287  0.32467  0.83758  1.0000
  C   C179      1.0  0.24896  0.33085  0.84207  1.0000
  C   C180      1.0  0.23569  0.31670  0.85816  1.0000
  C   C181      1.0  0.24631  0.29629  0.86963  1.0000
  H   H295      1.0  0.30214  0.30040  0.84663  1.0000
  H   H296      1.0  0.28321  0.33555  0.82525  1.0000
  H   H297      1.0  0.21716  0.32135  0.86152  1.0000
  H   H298      1.0  0.23596  0.28528  0.88179  1.0000
  C   C182      1.0  0.18040  0.22182  0.86394  1.0000
  C   C183      1.0  0.19570  0.23445  0.84871  1.0000
  C   C184      1.0  0.19048  0.24325  0.82668  1.0000
  C   C185      1.0  0.17010  0.23923  0.81972  1.0000
  C   C186      1.0  0.15469  0.22677  0.83499  1.0000
  C   C187      1.0  0.15981  0.21814  0.85710  1.0000
  H   H299      1.0  0.21145  0.23760  0.85394  1.0000
  H   H300      1.0  0.20234  0.25310  0.81497  1.0000
  H   H301      1.0  0.13875  0.22395  0.82983  1.0000
  H   H302      1.0  0.14787  0.20848  0.86892  1.0000
  S   S86       1.0  0.37358  0.23153  0.76355  1.0000
  C   C188      1.0  0.03514  0.21452  0.75643  1.0000
  C   C189      1.0  0.17353  0.11991  0.77095  1.0000
  C   C190      1.0  0.27756  0.47700  0.77165  1.0000
  C   C191      1.0  0.34555  0.13814  0.78965  1.0000
  C   C192      1.0  0.33588  0.12519  0.77683  1.0000
  C   C193      1.0  0.46583  0.12557  0.80023  1.0000
  H   H303      1.0  0.34099  0.13644  0.80801  1.0000
  H   H304      1.0  0.32390  0.11358  0.78533  1.0000
  H   H305      1.0  0.05163  0.20374  0.75701  1.0000
  C   C194      1.0  0.26681  0.02246  0.87578  1.0000
  C   C195      1.0  0.03219  0.23663  0.76268  1.0000
  C   C196      1.0  0.34480  0.33448  0.76229  1.0000
  S   S87       1.0  0.05391  0.24669  0.77399  1.0000
  S   S88       1.0  0.27280  0.33743  0.77082  1.0000
  H   H306      1.0  0.46980  0.24689  0.77674  1.0000
  H   H307      1.0  0.16692  0.11260  0.78800  1.0000
  Fe  Fe43      1.0  0.39208  0.19743  0.77637  1.0000
  C   C197      1.0  0.25623  0.03995  0.83910  1.0000
  C   C198      1.0  0.25870  0.11911  0.84230  1.0000
  C   C199      1.0  0.24680  0.13023  0.86056  1.0000
  C   C200      1.0  0.25820  0.14325  0.87168  1.0000
  C   C201      1.0  0.28176  0.14455  0.86513  1.0000
  C   C202      1.0  0.29379  0.13317  0.84703  1.0000
  C   C203      1.0  0.28219  0.12071  0.83537  1.0000
  H   H308      1.0  0.22866  0.12895  0.86607  1.0000
  H   H309      1.0  0.24880  0.15194  0.88562  1.0000
  H   H310      1.0  0.31200  0.13421  0.84191  1.0000
  H   H311      1.0  0.29148  0.11223  0.82122  1.0000
  C   C204      1.0  0.50277  0.25376  0.78318  1.0000
  H   H312      1.0  0.28949  0.47385  0.78412  1.0000
  N   N20       1.0  0.19589  0.16590  0.81187  1.0000
  C   C205      1.0  0.20610  0.17719  0.82747  1.0000
  C   C206      1.0  0.18645  0.14531  0.82465  1.0000
  C   C207      1.0  0.21384  0.15905  0.79304  1.0000
  C   C208      1.0  0.17706  0.18200  0.80229  1.0000
  H   H313      1.0  0.21226  0.19351  0.81876  1.0000
  H   H314      1.0  0.22107  0.16592  0.83418  1.0000
  H   H315      1.0  0.19331  0.18151  0.84247  1.0000
  H   H316      1.0  0.17297  0.14987  0.83908  1.0000
  H   H317      1.0  0.17832  0.13661  0.81343  1.0000
  H   H318      1.0  0.20022  0.13264  0.83193  1.0000
  H   H319      1.0  0.20665  0.15046  0.78097  1.0000
  H   H320      1.0  0.22829  0.14678  0.79967  1.0000
  H   H321      1.0  0.22125  0.17422  0.78303  1.0000
  H   H322      1.0  0.16964  0.17434  0.78975  1.0000
  H   H323      1.0  0.18320  0.19826  0.79338  1.0000
  H   H324      1.0  0.16264  0.18660  0.81586  1.0000
  Fe  Fe44      1.0  0.43902  0.21431  0.76852  1.0000
  H   H325      1.0  0.29740  0.29282  0.95166  1.0000
  C   C209      1.0  0.37475  0.30200  0.76782  1.0000
  H   H326      1.0  0.26179  0.00575  0.87351  1.0000
  N   N21       1.0  0.44145  0.13560  0.79924  1.0000
  H   H327      1.0  0.47763  0.13881  0.79389  1.0000
  H   H328      1.0  0.46883  0.11851  0.81803  1.0000
  N   N22       1.0  0.20425  0.43532  0.80738  1.0000
  C   C210      1.0  0.22844  0.42420  0.80685  1.0000
  C   C211      1.0  0.20385  0.45990  0.79802  1.0000
  C   C212      1.0  0.19262  0.43311  0.83123  1.0000
  C   C213      1.0  0.19221  0.42394  0.79334  1.0000
  H   H329      1.0  0.22944  0.40567  0.81401  1.0000
  H   H330      1.0  0.23832  0.43254  0.81684  1.0000
  H   H331      1.0  0.23749  0.42515  0.78907  1.0000
  H   H332      1.0  0.21195  0.46205  0.77981  1.0000
  H   H333      1.0  0.26635  0.06835  0.86574  1.0000
  H   H334      1.0  0.21353  0.46891  0.80761  1.0000
  C   C214      1.0  0.42613  0.11783  0.80782  1.0000
  H   H335      1.0  0.19289  0.41469  0.83873  1.0000
  H   H336      1.0  0.28198  0.25743  0.92846  1.0000
  H   H337      1.0  0.17384  0.43174  0.79341  1.0000
  H   H338      1.0  0.19250  0.40527  0.79974  1.0000
  H   H339      1.0  0.20056  0.42541  0.77518  1.0000
  N   N23       1.0  0.26496  0.28078  0.95180  1.0000
  H   H340      1.0  0.24957  0.29750  0.98111  1.0000
  C   C215      1.0  0.27605  0.25769  0.94701  1.0000
  C   C216      1.0  0.27850  0.21669  0.99286  1.0000
  H   H341      1.0  0.25145  0.03237  0.88486  1.0000
  H   H342      1.0  0.30972  0.01768  0.85238  1.0000
  C   C217      1.0  0.25471  0.21571  0.99743  1.0000
  H   H343      1.0  0.27329  0.27522  0.98619  1.0000
  H   H344      1.0  0.00721  0.23963  0.80894  1.0000
  H   H345      1.0  0.27348  0.44132  0.77382  1.0000
  C   C218      1.0  0.26855  0.45854  0.76575  1.0000
  C   C219      1.0  0.29523  0.02164  0.84200  1.0000
  H   H346      1.0  0.28684  0.29802  0.92449  1.0000
  C   C220      1.0  0.01641  0.20598  0.75030  1.0000
  S   S89       1.0  0.37443  0.27049  0.80647  1.0000
  H   H347      1.0  0.42778  0.11066  0.82589  1.0000
  Fe  Fe45      1.0  0.09127  0.23144  0.76518  1.0000
  S   S90       1.0  0.41151  0.21169  0.79883  1.0000
  C   C221      1.0  0.43840  0.14471  0.77534  1.0000
  C   C222      1.0  0.48722  0.23956  0.77949  1.0000
  H   H348      1.0  0.44958  0.15834  0.76837  1.0000
  H   H349      1.0  0.20130  0.44154  0.84225  1.0000
  C   C223      1.0  0.19426  0.10963  0.75974  1.0000
  S   S91       1.0  0.37334  0.16866  0.79545  1.0000
  H   H350      1.0  0.49723  0.27200  0.78316  1.0000
  H   H351      1.0  0.24576  0.26775  0.98355  1.0000
  C   C224      1.0  0.34254  0.30820  0.79769  1.0000
  H   H352      1.0  0.17423  0.44113  0.83233  1.0000
  C   C225      1.0  0.25810  0.28038  0.97674  1.0000
  H   H353      1.0  0.24881  0.28703  0.92121  1.0000
  N   N24       1.0  0.32894  0.21978  0.83826  1.0000
  C   C226      1.0  0.31838  0.20364  0.82793  1.0000
  C   C227      1.0  0.32013  0.24374  0.82967  1.0000
  C   C228      1.0  0.35430  0.21586  0.83213  1.0000
  C   C229      1.0  0.32302  0.21586  0.86337  1.0000
  H   H354      1.0  0.32459  0.18542  0.83427  1.0000
  H   H355      1.0  0.32278  0.20584  0.80898  1.0000
  H   H356      1.0  0.29922  0.20607  0.83223  1.0000
  H   H357      1.0  0.32779  0.25630  0.83725  1.0000
  H   H358      1.0  0.32455  0.24746  0.81079  1.0000
  H   H359      1.0  0.30102  0.24743  0.83408  1.0000
  H   H360      1.0  0.36288  0.22783  0.83952  1.0000
  H   H361      1.0  0.35926  0.21877  0.81330  1.0000
  H   H362      1.0  0.36157  0.19792  0.83816  1.0000
  H   H363      1.0  0.32920  0.19790  0.87048  1.0000
  H   H364      1.0  0.30402  0.21876  0.86846  1.0000
  H   H365      1.0  0.33058  0.22782  0.87177  1.0000
  H   H366      1.0  0.29543  0.05476  0.86817  1.0000
  S   S92       1.0  0.22865  0.37841  0.76670  1.0000
  H   H367      1.0  0.28821  0.21139  0.97719  1.0000
  C   C230      1.0  0.36325  0.29527  0.78957  1.0000
  H   H368      1.0  0.23584  0.30512  0.94257  1.0000
  H   H369      1.0  0.40761  0.12508  0.80709  1.0000
  H   H370      1.0  0.20351  0.09456  0.76828  1.0000
  H   H371      1.0  0.20217  0.05620  0.75900  1.0000
  C   C231      1.0  0.24428  0.28744  0.94000  1.0000
  Fe  Fe46      1.0  0.12813  0.19031  0.76375  1.0000
  H   H372      1.0  0.43799  0.14834  0.83159  1.0000
  S   S93       1.0  0.11709  0.25604  0.75217  1.0000
  C   C232      1.0  0.49430  0.21604  0.77914  1.0000
  H   H373      1.0  0.01448  0.20352  0.83419  1.0000
  H   H374      1.0  0.19046  0.28270  0.76713  1.0000
  C   C233      1.0  0.28137  0.05742  0.85731  1.0000
  S   S94       1.0  0.28335  0.01152  0.78740  1.0000
  S   S95       1.0  0.42464  0.25047  0.75547  1.0000
  H   H375      1.0  0.41700  0.16209  0.81353  1.0000
  H   H376      1.0  0.47109  0.11141  0.78949  1.0000
  C   C234      1.0  0.43542  0.15444  0.81351  1.0000
  H   H377      1.0  0.21837  0.01422  0.75996  1.0000
  C   C235      1.0  0.25339  0.46252  0.74940  1.0000
  C   C236      1.0  0.34210  0.12696  0.75314  1.0000
  H   H378      1.0  0.31405  0.43572  0.75178  1.0000
  Fe  Fe47      1.0  0.29476  0.36500  0.75580  1.0000
  C   C237      1.0  0.36693  0.15545  0.75502  1.0000
  H   H379      1.0  0.39086  0.29221  0.76155  1.0000
  H   H380      1.0  0.00845  0.26768  0.76633  1.0000
  Fe  Fe48      1.0  0.25452  0.40261  0.75269  1.0000
  C   C238      1.0  0.19412  0.29510  0.75154  1.0000
  S   S96       1.0  0.15690  0.21117  0.75006  1.0000
  H   H381      1.0  0.19055  0.00986  0.75419  1.0000
  H   H382      1.0  0.17546  0.05111  0.75126  1.0000
  H   H383      1.0  0.15178  0.31973  0.75290  1.0000
  C   C239      1.0  0.27111  0.49958  0.76161  1.0000
  C   C240      1.0  0.34937  0.81585  0.22840  1.0000
  C   C241      1.0  0.21261  0.79207  0.20436  1.0000
  H   H384      1.0  0.26532  0.66576  0.08357  1.0000
  C   C242      1.0  0.24830  0.54049  0.22770  1.0000
  S   S97       1.0  0.22038  0.88253  0.24487  1.0000
  Fe  Fe49      1.0  0.25083  0.86213  0.22661  1.0000
  S   S98       1.0  0.24883  0.85982  0.18972  1.0000
  H   H385      1.0  0.32456  0.75230  0.21313  1.0000
  Fe  Fe50      1.0  0.27016  0.74770  0.13373  1.0000
  S   S99       1.0  0.24606  0.76592  0.10934  1.0000
  S   S100      1.0  0.28597  0.76184  0.15958  1.0000
  Fe  Fe51      1.0  0.26742  0.70052  0.12129  1.0000
  S   S101      1.0  0.24237  0.71434  0.09629  1.0000
  S   S102      1.0  0.28369  0.66362  0.12735  1.0000
  Fe  Fe52      1.0  0.26503  0.74203  0.08468  1.0000
  S   S103      1.0  0.27741  0.75342  0.04737  1.0000
  Fe  Fe53      1.0  0.22542  0.73691  0.12276  1.0000
  S   S104      1.0  0.18732  0.74664  0.13218  1.0000
  S   S105      1.0  0.29145  0.72662  0.10791  1.0000
  S   S106      1.0  0.24820  0.72026  0.14896  1.0000
  N   N25       1.0  0.26031  0.53415  0.20551  1.0000
  C   C243      1.0  0.24344  0.53726  0.18914  1.0000
  H   H386      1.0  0.18598  0.80458  0.17095  1.0000
  S   S107      1.0  0.24079  0.60814  0.21908  1.0000
  H   H387      1.0  0.31846  0.69115  0.05696  1.0000
  C   C244      1.0  0.36322  0.66061  0.23557  1.0000
  H   H388      1.0  0.35132  0.82102  0.21011  1.0000
  H   H389      1.0  0.28208  0.89656  0.18685  1.0000
  S   S108      1.0  0.27718  0.88082  0.23636  1.0000
  S   S109      1.0  0.38867  0.78532  0.22019  1.0000
  H   H390      1.0  0.18680  0.74537  0.20202  1.0000
  C   C245      1.0  0.27220  0.64929  0.15371  1.0000
  C   C246      1.0  0.28646  0.63259  0.16630  1.0000
  C   C247      1.0  0.27721  0.62053  0.18701  1.0000
  C   C248      1.0  0.25352  0.62459  0.19469  1.0000
  C   C249      1.0  0.23930  0.64120  0.18205  1.0000
  C   C250      1.0  0.24867  0.65382  0.16183  1.0000
  H   H391      1.0  0.30470  0.62913  0.16012  1.0000
  H   H392      1.0  0.28830  0.60778  0.19670  1.0000
  H   H393      1.0  0.22094  0.64424  0.18783  1.0000
  H   H394      1.0  0.23754  0.66655  0.15215  1.0000
  C   C251      1.0  0.17635  0.72892  0.15636  1.0000
  C   C252      1.0  0.15566  0.73680  0.16940  1.0000
  C   C253      1.0  0.14734  0.72344  0.18955  1.0000
  C   C254      1.0  0.15934  0.70190  0.19636  1.0000
  C   C255      1.0  0.17977  0.69376  0.18303  1.0000
  C   C256      1.0  0.18842  0.70739  0.16316  1.0000
  H   H395      1.0  0.14614  0.75332  0.16404  1.0000
  H   H396      1.0  0.13136  0.72962  0.19952  1.0000
  H   H397      1.0  0.18904  0.67706  0.18820  1.0000
  H   H398      1.0  0.20420  0.70105  0.15291  1.0000
  H   H399      1.0  0.20056  0.79851  0.21895  1.0000
  C   C257      1.0  0.26853  0.74060  0.02612  1.0000
  C   C258      1.0  0.24937  0.72869  0.03083  1.0000
  N   N26       1.0  0.20199  0.77671  0.19312  1.0000
  Fe  Fe54      1.0  0.26212  0.59305  0.24712  1.0000
  H   H400      1.0  0.23944  0.72754  0.04767  1.0000
  S   S110      1.0  0.42049  0.72422  0.21475  1.0000
  H   H401      1.0  0.34857  0.73073  0.21868  1.0000
  H   H402      1.0  0.00833  0.71008  0.15493  1.0000
  H   H403      1.0  0.38235  0.72529  0.18818  1.0000
  C   C259      1.0  0.25857  0.83243  0.18151  1.0000
  C   C260      1.0  0.25470  0.82765  0.16028  1.0000
  C   C261      1.0  0.26259  0.80584  0.15348  1.0000
  C   C262      1.0  0.27446  0.78885  0.16788  1.0000
  C   C263      1.0  0.27808  0.79360  0.18918  1.0000
  C   C264      1.0  0.27018  0.81532  0.19597  1.0000
  H   H404      1.0  0.24577  0.84088  0.14900  1.0000
  H   H405      1.0  0.25998  0.80235  0.13691  1.0000
  H   H406      1.0  0.28715  0.78050  0.20045  1.0000
  H   H407      1.0  0.27350  0.81892  0.21221  1.0000
  H   H408      1.0  0.34620  0.71296  0.18410  1.0000
  H   H409      1.0  0.27103  0.56765  0.19521  1.0000
  H   H410      1.0  0.32096  0.73337  0.18059  1.0000
  H   H411      1.0  0.00644  0.71729  0.18330  1.0000
  H   H412      1.0  0.35162  0.78459  0.17818  1.0000
  H   H413      1.0  0.22382  0.78198  0.16091  1.0000
  Fe  Fe55      1.0  0.13285  0.70935  0.24721  1.0000
  H   H414      1.0  0.28582  0.68926  0.02370  1.0000
  C   C265      1.0  0.37629  0.74269  0.17966  1.0000
  H   H415      1.0  0.21748  0.80729  0.19224  1.0000
  C   C266      1.0  0.18142  0.78960  0.18358  1.0000
  H   H416      1.0  0.23501  0.75868  0.18082  1.0000
  C   C267      1.0  0.36543  0.79856  0.23791  1.0000
  S   S111      1.0  0.14925  0.68552  0.22190  1.0000
  N   N27       1.0  0.35089  0.74810  0.18430  1.0000
  H   H417      1.0  0.38504  0.75525  0.18601  1.0000
  C   C268      1.0  0.34008  0.73065  0.17616  1.0000
  C   C269      1.0  0.34365  0.77115  0.17230  1.0000
  H   H418      1.0  0.23510  0.55548  0.18656  1.0000
  C   C270      1.0  0.33472  0.63403  0.24473  1.0000
  H   H419      1.0  0.29190  0.54649  0.20819  1.0000
  H   H420      1.0  0.35173  0.76061  0.21600  1.0000
  H   H421      1.0  0.29439  0.91477  0.16267  1.0000
  H   H422      1.0  0.34399  0.73112  0.15729  1.0000
  H   H423      1.0  0.34860  0.77189  0.15348  1.0000
  C   C271      1.0  0.19500  0.75722  0.20998  1.0000
  H   H424      1.0  0.32462  0.77586  0.17543  1.0000
  C   C272      1.0  0.34362  0.74794  0.20914  1.0000
  N   N28       1.0  0.29291  0.66942  0.05568  1.0000
  C   C273      1.0  0.26830  0.66801  0.06451  1.0000
  C   C274      1.0  0.29600  0.67290  0.03040  1.0000
  C   C275      1.0  0.30707  0.64788  0.06397  1.0000
  C   C276      1.0  0.30026  0.68892  0.06395  1.0000
  H   H425      1.0  0.26050  0.53798  0.24052  1.0000
  H   H426      1.0  0.26222  0.65330  0.05888  1.0000
  H   H427      1.0  0.25708  0.68390  0.05842  1.0000
  H   H428      1.0  0.31440  0.67383  0.02312  1.0000
  H   H429      1.0  0.29020  0.65876  0.02349  1.0000
  C   C277      1.0  0.27840  0.54909  0.19668  1.0000
  H   H430      1.0  0.30211  0.63275  0.05802  1.0000
  H   H431      1.0  0.30489  0.64483  0.08305  1.0000
  H   H432      1.0  0.32578  0.64845  0.05793  1.0000
  H   H433      1.0  0.29897  0.68642  0.08291  1.0000
  H   H434      1.0  0.28931  0.70533  0.05893  1.0000
  H   H435      1.0  0.25186  0.53266  0.17214  1.0000
  N   N29       1.0  0.26247  0.93003  0.18045  1.0000
  C   C278      1.0  0.25714  0.94716  0.16066  1.0000
  C   C279      1.0  0.27403  0.94044  0.19570  1.0000
  C   C280      1.0  0.27782  0.90991  0.17235  1.0000
  C   C281      1.0  0.24077  0.92258  0.19312  1.0000
  H   H436      1.0  0.24834  0.93983  0.14886  1.0000
  H   H437      1.0  0.27313  0.95318  0.15069  1.0000
  H   H438      1.0  0.24552  0.96251  0.16624  1.0000
  H   H439      1.0  0.26281  0.95554  0.20231  1.0000
  H   H440      1.0  0.27811  0.92805  0.21097  1.0000
  H   H441      1.0  0.29052  0.94624  0.18682  1.0000
  H   H442      1.0  0.24031  0.55881  0.22614  1.0000
  H   H443      1.0  0.38235  0.74294  0.16105  1.0000
  H   H444      1.0  0.26946  0.90143  0.16108  1.0000
  H   H445      1.0  0.24425  0.90974  0.20814  1.0000
  H   H446      1.0  0.23165  0.91430  0.18234  1.0000
  H   H447      1.0  0.22875  0.93720  0.19975  1.0000
  C   C282      1.0  0.24266  0.71867  0.01354  1.0000
  C   C283      1.0  0.28086  0.74251  0.00399  1.0000
  C   C284      1.0  0.34298  0.65344  0.23143  1.0000
  Fe  Fe56      1.0  0.40301  0.75071  0.23705  1.0000
  H   H448      1.0  0.31852  0.83993  0.23513  1.0000
  H   H449      1.0  0.22772  0.70960  0.01726  1.0000
  Fe  Fe57      1.0  0.44348  0.71253  0.24197  1.0000
  C   C285      1.0  0.21889  0.76788  0.17447  1.0000
  H   H450      1.0  0.21165  0.75566  0.16618  1.0000
  S   S112      1.0  0.37314  0.68508  0.21917  1.0000
  H   H451      1.0  0.18221  0.76332  0.22429  1.0000
  S   S113      1.0  0.13922  0.79277  0.24230  1.0000
  H   H452      1.0  0.33364  0.66292  0.21800  1.0000
  H   H453      1.0  0.16807  0.79615  0.19725  1.0000
  H   H454      1.0  0.17333  0.77854  0.17458  1.0000
  H   H455      1.0  0.29578  0.75160  0.00026  1.0000
  H   H456      1.0  0.22861  0.78308  0.21109  1.0000
  Fe  Fe58      1.0  0.39605  0.70177  0.23626  1.0000
  H   H457      1.0  0.21009  0.74697  0.21740  1.0000
  H   H458      1.0  0.19875  0.67784  0.23953  1.0000
  H   H459      1.0  0.31906  0.62856  0.24155  1.0000
  H   H460      1.0  0.28724  0.54549  0.17949  1.0000
  H   H461      1.0  0.23509  0.98770  0.23933  1.0000
  H   H462      1.0  0.07808  0.80112  0.24489  1.0000
  H   H463      1.0  0.16634  0.82978  0.22953  1.0000
  S   S114      1.0  0.10735  0.74124  0.24274  1.0000
  C   C286      1.0  0.27103  0.50986  0.20866  1.0000
  H   H464      1.0  0.22195  0.65424  0.23761  1.0000
  H   H465      1.0  0.19392  0.65142  0.23147  1.0000
  S   S115      1.0  0.29586  0.56966  0.24635  1.0000
  H   H466      1.0  0.22948  0.52632  0.19535  1.0000
  H   H467      1.0  0.28392  0.50710  0.22089  1.0000
  C   C287      1.0  0.20308  0.65882  0.24293  1.0000
  C   C288      1.0  0.16721  0.82344  0.24739  1.0000
  H   H468      1.0  0.28014  0.50431  0.19226  1.0000
  C   C289      1.0  0.33078  0.82652  0.24254  1.0000
  H   H469      1.0  0.03529  0.70149  0.22923  1.0000
  H   H470      1.0  0.23430  0.52982  0.23476  1.0000
  H   H471      1.0  0.01475  0.73764  0.15909  1.0000
  H   H472      1.0  0.47887  0.74584  0.24301  1.0000
  C   C290      1.0  0.49552  0.73677  0.24656  1.0000
  C   C291      1.0  0.02862  0.71147  0.24310  1.0000
  S   S116      1.0  0.48137  0.69835  0.23572  1.0000
  C   C292      1.0  0.50114  0.71348  0.24410  1.0000
  Fe  Fe59      1.0  0.22525  0.85588  0.27505  1.0000
  S   S117      1.0  0.19808  0.83774  0.29833  1.0000
  S   S118      1.0  0.30647  0.83442  0.28454  1.0000
  S   S119      1.0  0.24872  0.87506  0.28865  1.0000
  C   C293      1.0  0.05098  0.82811  0.27399  1.0000
  C   C294      1.0  0.36283  0.79190  0.26154  1.0000
  C   C295      1.0  0.00468  0.71748  0.24853  1.0000
  Fe  Fe60      1.0  0.09280  0.73050  0.27912  1.0000
  S   S120      1.0  0.11610  0.69669  0.28222  1.0000
  S   S121      1.0  0.05447  0.73883  0.29036  1.0000
  Fe  Fe61      1.0  0.14060  0.71608  0.29412  1.0000
  S   S122      1.0  0.16564  0.69662  0.31717  1.0000
  C   C296      1.0  0.27755  0.99083  0.27064  1.0000
  S   S123      1.0  0.11579  0.74874  0.29477  1.0000
  S   S124      1.0  0.27116  0.61464  0.27107  1.0000
  Fe  Fe62      1.0  0.23554  0.72270  0.40304  1.0000
  S   S125      1.0  0.24686  0.69018  0.42555  1.0000
  S   S126      1.0  0.19878  0.73579  0.39685  1.0000
  Fe  Fe63      1.0  0.28393  0.73438  0.38863  1.0000
  S   S127      1.0  0.29962  0.70291  0.40936  1.0000
  S   S128      1.0  0.30211  0.75944  0.36268  1.0000
  Fe  Fe64      1.0  0.27523  0.68446  0.39644  1.0000
  S   S129      1.0  0.28871  0.65007  0.38464  1.0000
  Fe  Fe65      1.0  0.27032  0.71120  0.43711  1.0000
  S   S130      1.0  0.26222  0.71517  0.37319  1.0000
  S   S131      1.0  0.25640  0.74446  0.41709  1.0000
  Fe  Fe66      1.0  0.25446  0.59007  0.29843  1.0000
  S   S132      1.0  0.28685  0.56563  0.30265  1.0000
  S   S133      1.0  0.23078  0.60834  0.32504  1.0000
  Fe  Fe67      1.0  0.30295  0.58892  0.27344  1.0000
  Fe  Fe68      1.0  0.27732  0.54790  0.27554  1.0000
  H   H473      1.0  0.34565  0.83579  0.30656  1.0000
  H   H474      1.0  0.20255  0.68481  0.40639  1.0000
  S   S134      1.0  0.24296  0.57002  0.27450  1.0000
  C   C297      1.0  0.01164  0.73681  0.27926  1.0000
  H   H475      1.0  0.19014  0.84698  0.25111  1.0000
  H   H476      1.0  0.19375  0.67146  0.43469  1.0000
  H   H477      1.0  0.05569  0.80551  0.31598  1.0000
  C   C298      1.0  0.04405  0.71806  0.25573  1.0000
  H   H478      1.0  0.31128  0.80720  0.35813  1.0000
  Fe  Fe69      1.0  0.40400  0.71699  0.28036  1.0000
  S   S135      1.0  0.39746  0.70999  0.31867  1.0000
  N   N30       1.0  0.46988  0.70939  0.31599  1.0000
  H   H479      1.0  0.23414  0.65344  0.40151  1.0000
  H   H480      1.0  0.44005  0.73468  0.31189  1.0000
  H   H481      1.0  0.31661  0.81035  0.32756  1.0000
  H   H482      1.0  0.17661  0.65762  0.38170  1.0000
  H   H483      1.0  0.20481  0.67923  0.27982  1.0000
  C   C299      1.0  0.34579  0.82913  0.36404  1.0000
  H   H484      1.0  0.36660  0.81804  0.32248  1.0000
  C   C300      1.0  0.28325  0.96722  0.27767  1.0000
  H   H485      1.0  0.20572  0.66332  0.37347  1.0000
  C   C301      1.0  0.07063  0.79250  0.26172  1.0000
  C   C302      1.0  0.09003  0.81445  0.28162  1.0000
  H   H486      1.0  0.35956  0.81407  0.36538  1.0000
  C   C303      1.0  0.19484  0.65115  0.38433  1.0000
  H   H487      1.0  0.39117  0.65345  0.25577  1.0000
  C   C304      1.0  0.22266  0.64098  0.41097  1.0000
  C   C305      1.0  0.49529  0.70846  0.31321  1.0000
  C   C306      1.0  0.32853  0.74567  0.35039  1.0000
  C   C307      1.0  0.34178  0.72875  0.36360  1.0000
  C   C308      1.0  0.36304  0.71803  0.35377  1.0000
  C   C309      1.0  0.37105  0.72408  0.33065  1.0000
  C   C310      1.0  0.35784  0.74107  0.31742  1.0000
  C   C311      1.0  0.33659  0.75186  0.32729  1.0000
  H   H488      1.0  0.33598  0.72434  0.38157  1.0000
  H   H489      1.0  0.37329  0.70506  0.36414  1.0000
  H   H490      1.0  0.36407  0.74612  0.29968  1.0000
  H   H491      1.0  0.32633  0.76486  0.31697  1.0000
  C   C312      1.0  0.27325  0.63931  0.36683  1.0000
  C   C313      1.0  0.25492  0.65297  0.35703  1.0000
  C   C314      1.0  0.24209  0.64340  0.34394  1.0000
  C   C315      1.0  0.24773  0.62038  0.34036  1.0000
  C   C316      1.0  0.26667  0.60704  0.34932  1.0000
  C   C317      1.0  0.27930  0.61645  0.36267  1.0000
  H   H492      1.0  0.25050  0.67075  0.35975  1.0000
  H   H493      1.0  0.22780  0.65374  0.33646  1.0000
  H   H494      1.0  0.27124  0.58925  0.34648  1.0000
  H   H495      1.0  0.29361  0.60585  0.37003  1.0000
  S   S136      1.0  0.23826  0.93883  0.24922  1.0000
  C   C318      1.0  0.17525  0.71054  0.33700  1.0000
  C   C319      1.0  0.16087  0.72742  0.34845  1.0000
  C   C320      1.0  0.16833  0.73561  0.36655  1.0000
  C   C321      1.0  0.19016  0.72702  0.37305  1.0000
  C   C322      1.0  0.20471  0.71088  0.36092  1.0000
  C   C323      1.0  0.19732  0.70278  0.34294  1.0000
  H   H496      1.0  0.14370  0.73341  0.34402  1.0000
  H   H497      1.0  0.15695  0.74814  0.37589  1.0000
  H   H498      1.0  0.22130  0.70385  0.36594  1.0000
  H   H499      1.0  0.20855  0.69003  0.33385  1.0000
  C   C324      1.0  0.03558  0.73062  0.27395  1.0000
  H   H500      1.0  0.20397  0.65384  0.30029  1.0000
  S   S137      1.0  0.15845  0.72696  0.25916  1.0000
  H   H501      1.0  0.44201  0.70152  0.34241  1.0000
  S   S138      1.0  0.28709  0.50949  0.27511  1.0000
  C   C325      1.0  0.32853  0.82022  0.26624  1.0000
  Fe  Fe70      1.0  0.27679  0.85423  0.26749  1.0000
  C   C326      1.0  0.32486  0.80979  0.34314  1.0000
  C   C327      1.0  0.36729  0.62868  0.26583  1.0000
  C   C328      1.0  0.34453  0.80282  0.27567  1.0000
  H   H502      1.0  0.08847  0.82583  0.29506  1.0000
  H   H503      1.0  0.34287  0.79773  0.29391  1.0000
  C   C329      1.0  0.18136  0.82557  0.28284  1.0000
  C   C330      1.0  0.16883  0.80785  0.29373  1.0000
  C   C331      1.0  0.15625  0.79734  0.28125  1.0000
  H   H504      1.0  0.24111  0.99492  0.31310  1.0000
  H   H505      1.0  0.46558  0.74042  0.29238  1.0000
  H   H506      1.0  0.19707  0.61764  0.28893  1.0000
  H   H507      1.0  0.16900  0.80206  0.31176  1.0000
  H   H508      1.0  0.14711  0.78333  0.28967  1.0000
  H   H509      1.0  0.07056  0.77908  0.30675  1.0000
  S   S139      1.0  0.33706  0.59755  0.27907  1.0000
  N   N31       1.0  0.06753  0.80749  0.27982  1.0000
  C   C332      1.0  0.27157  0.95099  0.27102  1.0000
  H   H510      1.0  0.22864  0.62435  0.40407  1.0000
  H   H511      1.0  0.22784  0.65550  0.27777  1.0000
  H   H512      1.0  0.24221  0.73853  0.48318  1.0000
  N   N32       1.0  0.19813  0.64928  0.40857  1.0000
  H   H513      1.0  0.21093  0.98938  0.29187  1.0000
  H   H514      1.0  0.46334  0.74483  0.32170  1.0000
  H   H515      1.0  0.33272  0.82694  0.37956  1.0000
  H   H516      1.0  0.50063  0.71936  0.32447  1.0000
  C   C333      1.0  0.45923  0.73340  0.31026  1.0000
  C   C334      1.0  0.31709  0.85102  0.34173  1.0000
  H   H517      1.0  0.36202  0.84872  0.32253  1.0000
  H   H518      1.0  0.32431  0.86729  0.34135  1.0000
  H   H519      1.0  0.30873  0.85268  0.32600  1.0000
  H   H520      1.0  0.30323  0.84964  0.35662  1.0000
  H   H521      1.0  0.35371  0.84479  0.36461  1.0000
  H   H522      1.0  0.22571  0.63853  0.42913  1.0000
  H   H523      1.0  0.44475  0.69456  0.30267  1.0000
  H   H524      1.0  0.19970  0.63431  0.37763  1.0000
  S   S140      1.0  0.28156  0.70342  0.47244  1.0000
  H   H525      1.0  0.47216  0.67680  0.30366  1.0000
  C   C335      1.0  0.35321  0.83345  0.32280  1.0000
  H   H526      1.0  0.33802  0.79421  0.34398  1.0000
  H   H527      1.0  0.17336  0.67923  0.41446  1.0000
  S   S141      1.0  0.37725  0.72886  0.25700  1.0000
  N   N33       1.0  0.33524  0.83087  0.34292  1.0000
  C   C336      1.0  0.46119  0.70087  0.33987  1.0000
  N   N34       1.0  0.23612  0.78286  0.33574  1.0000
  C   C337      1.0  0.25036  0.76259  0.32681  1.0000
  C   C338      1.0  0.23669  0.78112  0.36058  1.0000
  C   C339      1.0  0.21202  0.78372  0.33157  1.0000
  C   C340      1.0  0.24535  0.80396  0.32398  1.0000
  H   H528      1.0  0.24331  0.74646  0.33472  1.0000
  H   H529      1.0  0.26850  0.76090  0.33043  1.0000
  H   H530      1.0  0.25089  0.76376  0.30798  1.0000
  H   H531      1.0  0.22572  0.79590  0.36797  1.0000
  H   H532      1.0  0.23018  0.76520  0.36989  1.0000
  H   H533      1.0  0.25456  0.78071  0.36442  1.0000
  H   H534      1.0  0.20085  0.79906  0.33773  1.0000
  H   H535      1.0  0.20435  0.76822  0.34049  1.0000
  H   H536      1.0  0.21096  0.78483  0.31300  1.0000
  H   H537      1.0  0.23503  0.81963  0.33033  1.0000
  H   H538      1.0  0.24475  0.80602  0.30524  1.0000
  H   H539      1.0  0.26366  0.80374  0.32646  1.0000
  N   N35       1.0  0.33607  0.66390  0.32207  1.0000
  C   C341      1.0  0.32769  0.64352  0.31653  1.0000
  C   C342      1.0  0.34704  0.65757  0.34313  1.0000
  C   C343      1.0  0.31641  0.68226  0.32569  1.0000
  C   C344      1.0  0.35317  0.67226  0.30299  1.0000
  H   H540      1.0  0.31951  0.64747  0.30057  1.0000
  H   H541      1.0  0.31466  0.63682  0.33049  1.0000
  H   H542      1.0  0.34203  0.62921  0.31386  1.0000
  H   H543      1.0  0.36185  0.64363  0.34110  1.0000
  H   H544      1.0  0.35368  0.67252  0.34774  1.0000
  H   H545      1.0  0.33455  0.65135  0.35793  1.0000
  H   H546      1.0  0.32215  0.69782  0.33010  1.0000
  H   H547      1.0  0.30320  0.67647  0.33998  1.0000
  H   H548      1.0  0.30775  0.68748  0.31012  1.0000
  H   H549      1.0  0.34571  0.67654  0.28663  1.0000
  H   H550      1.0  0.36855  0.65906  0.30025  1.0000
  H   H551      1.0  0.35945  0.68795  0.30634  1.0000
  C   C345      1.0  0.18343  0.63290  0.42248  1.0000
  H   H552      1.0  0.16483  0.63862  0.42093  1.0000
  H   H553      1.0  0.18541  0.63112  0.44091  1.0000
  H   H554      1.0  0.18802  0.61551  0.41695  1.0000
  H   H555      1.0  0.37691  0.61890  0.27893  1.0000
  C   C346      1.0  0.20182  0.62483  0.27074  1.0000
  C   C347      1.0  0.19161  0.67212  0.41643  1.0000
  H   H556      1.0  0.04823  0.83984  0.28729  1.0000
  H   H557      1.0  0.00498  0.74648  0.29336  1.0000
  H   H558      1.0  0.03384  0.82337  0.27251  1.0000
  H   H559      1.0  0.27597  0.93287  0.27668  1.0000
  S   S142      1.0  0.42046  0.68745  0.26164  1.0000
  H   H560      1.0  0.46908  0.70139  0.28237  1.0000
  H   H561      1.0  0.29665  0.96148  0.28847  1.0000
  S   S143      1.0  0.42842  0.74140  0.26240  1.0000
  H   H562      1.0  0.46870  0.68271  0.34469  1.0000
  S   S144      1.0  0.25333  0.83368  0.25583  1.0000
  H   H563      1.0  0.46556  0.71136  0.35207  1.0000
  C   C348      1.0  0.17110  0.65661  0.27342  1.0000
  C   C349      1.0  0.25405  0.95834  0.25733  1.0000
  H   H564      1.0  0.16637  0.67558  0.27092  1.0000
  C   C350      1.0  0.34695  0.62162  0.26188  1.0000
  C   C351      1.0  0.05847  0.79478  0.30185  1.0000
  C   C352      1.0  0.37534  0.64824  0.25281  1.0000
  C   C353      1.0  0.46372  0.69487  0.30054  1.0000
  H   H565      1.0  0.08259  0.77665  0.26597  1.0000
  H   H566      1.0  0.04176  0.78879  0.30090  1.0000
  H   H567      1.0  0.10293  0.79927  0.28596  1.0000
  H   H568      1.0  0.37524  0.77866  0.26895  1.0000
  C   C354      1.0  0.24854  0.98192  0.25005  1.0000
  H   H569      1.0  0.22063  0.61947  0.26614  1.0000
  H   H570      1.0  0.16529  0.65051  0.29169  1.0000
  H   H571      1.0  0.23719  0.51018  0.27650  1.0000
  C   C355      1.0  0.20882  0.66015  0.28186  1.0000
  N   N36       1.0  0.19621  0.65011  0.26723  1.0000
  H   H572      1.0  0.20179  0.98908  0.33436  1.0000
  H   H573      1.0  0.05404  0.78687  0.25975  1.0000
  H   H574      1.0  0.09759  0.82372  0.26516  1.0000
  Fe  Fe71      1.0  0.13145  0.75766  0.25842  1.0000
  C   C356      1.0  0.15531  0.80525  0.25810  1.0000
  H   H575      1.0  0.05729  0.83797  0.25738  1.0000
  H   H576      1.0  0.16098  0.64948  0.26264  1.0000
  H   H577      1.0  0.50227  0.71477  0.29532  1.0000
  H   H578      1.0  0.06246  0.71314  0.25154  1.0000
  C   C357      1.0  0.18065  0.83324  0.25960  1.0000
  C   C358      1.0  0.26028  0.99813  0.25663  1.0000
  Fe  Fe72      1.0  0.24676  0.90001  0.25631  1.0000
  H   H579      1.0  0.19270  0.61665  0.25990  1.0000
  C   C359      1.0  0.27338  0.72028  0.49505  1.0000
  C   C360      1.0  0.25298  0.73579  0.49663  1.0000
  H   H580      1.0  0.50398  0.69061  0.31728  1.0000
  Fe  Fe73      1.0  0.26129  0.85902  0.73354  1.0000
  C   C361      1.0  0.19299  0.74833  0.71618  1.0000
  S   S145      1.0  0.28245  0.83734  0.70780  1.0000
  H   H581      1.0  0.28692  0.69107  0.57997  1.0000
  H   H582      1.0  0.21504  0.72155  0.68469  1.0000
  H   H583      1.0  0.31964  0.86445  0.62178  1.0000
  H   H584      1.0  0.49819  0.71007  0.70747  1.0000
  H   H585      1.0  0.29897  0.86645  0.64718  1.0000
  H   H586      1.0  0.23011  0.75884  0.51746  1.0000
  C   C362      1.0  0.26225  0.98392  0.73745  1.0000
  H   H587      1.0  0.48287  0.76507  0.65464  1.0000
  C   C363      1.0  0.28573  0.67635  0.57096  1.0000
  Fe  Fe74      1.0  0.25037  0.59741  0.72447  1.0000
  S   S146      1.0  0.24427  0.60749  0.68793  1.0000
  H   H588      1.0  0.18430  0.75132  0.73361  1.0000
  Fe  Fe75      1.0  0.26273  0.74987  0.64129  1.0000
  S   S147      1.0  0.27263  0.77530  0.61096  1.0000
  S   S148      1.0  0.23823  0.76279  0.67096  1.0000
  Fe  Fe76      1.0  0.29329  0.71042  0.62063  1.0000
  S   S149      1.0  0.30629  0.73273  0.58895  1.0000
  S   S150      1.0  0.30770  0.67313  0.62330  1.0000
  Fe  Fe77      1.0  0.30860  0.75723  0.61324  1.0000
  S   S151      1.0  0.33777  0.77836  0.60858  1.0000
  Fe  Fe78      1.0  0.26922  0.74835  0.58957  1.0000
  S   S152      1.0  0.24978  0.75658  0.55891  1.0000
  S   S153      1.0  0.29897  0.73336  0.64493  1.0000
  S   S154      1.0  0.25588  0.72432  0.61993  1.0000
  C   C364      1.0  0.24584  0.69080  0.56712  1.0000
  S   S155      1.0  0.41484  0.75659  0.67420  1.0000
  C   C365      1.0  0.35859  0.77150  0.62747  1.0000
  C   C366      1.0  0.37869  0.78196  0.62196  1.0000
  C   C367      1.0  0.39572  0.77717  0.63646  1.0000
  C   C368      1.0  0.39273  0.76208  0.65677  1.0000
  C   C369      1.0  0.37247  0.75178  0.66257  1.0000
  C   C370      1.0  0.35542  0.75643  0.64787  1.0000
  H   H589      1.0  0.38124  0.79365  0.60628  1.0000
  H   H590      1.0  0.41130  0.78522  0.63189  1.0000
  H   H591      1.0  0.36996  0.74031  0.67833  1.0000
  H   H592      1.0  0.33981  0.74860  0.65247  1.0000
  C   C371      1.0  0.25979  0.74347  0.53389  1.0000
  C   C372      1.0  0.25532  0.66300  0.59944  1.0000
  H   H593      1.0  0.29167  0.68123  0.55249  1.0000
  H   H594      1.0  0.29823  0.66171  0.57748  1.0000
  H   H595      1.0  0.14964  0.73827  0.72452  1.0000
  C   C373      1.0  0.28053  0.72853  0.53191  1.0000
  H   H596      1.0  0.21619  0.99981  0.73630  1.0000
  H   H597      1.0  0.46953  0.74370  0.71621  1.0000
  H   H598      1.0  0.29135  0.72581  0.54529  1.0000
  C   C374      1.0  0.04728  0.83904  0.73546  1.0000
  C   C375      1.0  0.26316  0.62587  0.67217  1.0000
  C   C376      1.0  0.25776  0.64973  0.67175  1.0000
  C   C377      1.0  0.27159  0.66447  0.65701  1.0000
  C   C378      1.0  0.29076  0.65527  0.64271  1.0000
  C   C379      1.0  0.29641  0.63146  0.64348  1.0000
  C   C380      1.0  0.28253  0.61678  0.65808  1.0000
  H   H599      1.0  0.24260  0.65674  0.68248  1.0000
  H   H600      1.0  0.26728  0.68288  0.65658  1.0000
  H   H601      1.0  0.31125  0.62431  0.63247  1.0000
  H   H602      1.0  0.28655  0.59836  0.65822  1.0000
  C   C381      1.0  0.26964  0.81484  0.70123  1.0000
  C   C382      1.0  0.24562  0.81541  0.70405  1.0000
  C   C383      1.0  0.23594  0.79887  0.69547  1.0000
  C   C384      1.0  0.25026  0.78202  0.68380  1.0000
  C   C385      1.0  0.27423  0.78105  0.68184  1.0000
  C   C386      1.0  0.28387  0.79717  0.69083  1.0000
  H   H603      1.0  0.23449  0.82902  0.71209  1.0000
  H   H604      1.0  0.21736  0.79969  0.69712  1.0000
  H   H605      1.0  0.28544  0.76791  0.67336  1.0000
  H   H606      1.0  0.30245  0.79615  0.68930  1.0000
  H   H607      1.0  0.31153  0.80394  0.64477  1.0000
  N   N37       1.0  0.26194  0.67044  0.57481  1.0000
  H   H608      1.0  0.29875  0.81403  0.60583  1.0000
  C   C387      1.0  0.48734  0.74618  0.65925  1.0000
  H   H609      1.0  0.08986  0.81667  0.72361  1.0000
  S   S156      1.0  0.42978  0.69993  0.71421  1.0000
  C   C388      1.0  0.26096  0.65159  0.56167  1.0000
  H   H610      1.0  0.24689  0.70577  0.57587  1.0000
  H   H611      1.0  0.24979  0.69630  0.54841  1.0000
  H   H612      1.0  0.24326  0.64665  0.56419  1.0000
  H   H613      1.0  0.27300  0.63600  0.56699  1.0000
  H   H614      1.0  0.26588  0.65670  0.54299  1.0000
  C   C389      1.0  0.27414  0.83471  0.64033  1.0000
  H   H615      1.0  0.16847  0.65213  0.72640  1.0000
  C   C390      1.0  0.30175  0.83197  0.60615  1.0000
  C   C391      1.0  0.31457  0.82217  0.64323  1.0000
  H   H616      1.0  0.20736  0.70294  0.72455  1.0000
  S   S157      1.0  0.37599  0.72318  0.72622  1.0000
  N   N38       1.0  0.35183  0.67368  0.67205  1.0000
  C   C392      1.0  0.35374  0.69135  0.68627  1.0000
  C   C393      1.0  0.36963  0.65365  0.67618  1.0000
  C   C394      1.0  0.35527  0.68343  0.64766  1.0000
  C   C395      1.0  0.32868  0.66622  0.67810  1.0000
  H   H617      1.0  0.35081  0.68473  0.70479  1.0000
  H   H618      1.0  0.34085  0.70688  0.68319  1.0000
  H   H619      1.0  0.37124  0.69686  0.68270  1.0000
  H   H620      1.0  0.38727  0.65878  0.67353  1.0000
  H   H621      1.0  0.36662  0.64493  0.69402  1.0000
  H   H622      1.0  0.36956  0.64060  0.66472  1.0000
  H   H623      1.0  0.35396  0.67056  0.63639  1.0000
  H   H624      1.0  0.37250  0.68941  0.64264  1.0000
  H   H625      1.0  0.34197  0.69839  0.64380  1.0000
  H   H626      1.0  0.32523  0.65950  0.69661  1.0000
  H   H627      1.0  0.32702  0.65222  0.66833  1.0000
  H   H628      1.0  0.31476  0.68059  0.67426  1.0000
  S   S158      1.0  0.38698  0.65572  0.73003  1.0000
  H   H629      1.0  0.18955  0.71268  0.67786  1.0000
  C   C396      1.0  0.08355  0.81595  0.74224  1.0000
  Fe  Fe79      1.0  0.43682  0.71094  0.74640  1.0000
  H   H630      1.0  0.30304  0.70498  0.51146  1.0000
  C   C397      1.0  0.28714  0.71680  0.51270  1.0000
  H   H631      1.0  0.15511  0.75179  0.69569  1.0000
  H   H632      1.0  0.18215  0.69350  0.71776  1.0000
  H   H633      1.0  0.05240  0.84042  0.71660  1.0000
  C   C398      1.0  0.19606  0.72641  0.68475  1.0000
  S   S159      1.0  0.27990  0.88386  0.74571  1.0000
  H   H634      1.0  0.19816  0.84177  0.74153  1.0000
  H   H635      1.0  0.47307  0.73799  0.65510  1.0000
  H   H636      1.0  0.25071  0.52087  0.73758  1.0000
  S   S160      1.0  0.28510  0.58585  0.73626  1.0000
  C   C399      1.0  0.17336  0.81948  0.73909  1.0000
  S   S161      1.0  0.13411  0.68743  0.74306  1.0000
  H   H637      1.0  0.23739  0.65860  0.60315  1.0000
  H   H638      1.0  0.25976  0.98889  0.71974  1.0000
  H   H639      1.0  0.21195  0.74454  0.71668  1.0000
  H   H640      1.0  0.31308  0.82678  0.66081  1.0000
  H   H641      1.0  0.15169  0.72168  0.70160  1.0000
  H   H642      1.0  0.26118  0.84559  0.63029  1.0000
  N   N39       1.0  0.29804  0.83764  0.62979  1.0000
  H   H643      1.0  0.02807  0.84049  0.73886  1.0000
  H   H644      1.0  0.19361  0.74256  0.67263  1.0000
  H   H645      1.0  0.17959  0.70953  0.74115  1.0000
  C   C400      1.0  0.35018  0.80880  0.73774  1.0000
  H   H646      1.0  0.36643  0.81655  0.73223  1.0000
  H   H647      1.0  0.36381  0.61614  0.73360  1.0000
  S   S162      1.0  0.14192  0.79102  0.73640  1.0000
  H   H648      1.0  0.31984  0.83323  0.59788  1.0000
  H   H649      1.0  0.03174  0.79779  0.74247  1.0000
  H   H650      1.0  0.28955  0.87389  0.61953  1.0000
  C   C401      1.0  0.30173  0.86170  0.62951  1.0000
  S   S163      1.0  0.41863  0.74678  0.73889  1.0000
  H   H651      1.0  0.27095  0.81654  0.64158  1.0000
  Fe  Fe80      1.0  0.40915  0.73470  0.70831  1.0000
  H   H652      1.0  0.22760  0.68731  0.57058  1.0000
  S   S164      1.0  0.24508  0.94464  0.73387  1.0000
  H   H653      1.0  0.28988  0.84349  0.59533  1.0000
  H   H654      1.0  0.27055  0.83951  0.65795  1.0000
  C   C402      1.0  0.24616  0.74725  0.51608  1.0000
  H   H655      1.0  0.18058  0.81634  0.72188  1.0000
  C   C403      1.0  0.49600  0.71509  0.68912  1.0000
  H   H656      1.0  0.25630  0.67668  0.60986  1.0000
  C   C404      1.0  0.25562  0.50357  0.74559  1.0000
  N   N40       1.0  0.49015  0.74026  0.68368  1.0000
  H   H657      1.0  0.26704  0.64757  0.60577  1.0000
  H   H658      1.0  0.31870  0.84677  0.73347  1.0000
  H   H659      1.0  0.33276  0.82287  0.63506  1.0000
  H   H660      1.0  0.05248  0.85411  0.74135  1.0000
  H   H661      1.0  0.01883  0.73062  0.72398  1.0000
  N   N41       1.0  0.18418  0.72958  0.70797  1.0000
  C   C405      1.0  0.35195  0.62926  0.74169  1.0000
  H   H662      1.0  0.34442  0.85345  0.74202  1.0000
  H   H663      1.0  0.18992  0.76488  0.70476  1.0000
  C   C406      1.0  0.18859  0.70797  0.72354  1.0000
  H   H664      1.0  0.45401  0.73932  0.69446  1.0000
  S   S165      1.0  0.22813  0.88335  0.73263  1.0000
  C   C407      1.0  0.15907  0.73560  0.70732  1.0000
  H   H665      1.0  0.34110  0.81023  0.72252  1.0000
  C   C408      1.0  0.46825  0.74794  0.69771  1.0000
  H   H666      1.0  0.48210  0.70585  0.68590  1.0000
  C   C409      1.0  0.35911  0.65042  0.74276  1.0000
  H   H667      1.0  0.05594  0.79797  0.71996  1.0000
  H   H668      1.0  0.50343  0.74046  0.64801  1.0000
  C   C410      1.0  0.05081  0.79771  0.73872  1.0000
  H   H669      1.0  0.46295  0.76680  0.69402  1.0000
  C   C411      1.0  0.32892  0.84458  0.74797  1.0000
  H   H670      1.0  0.35515  0.79019  0.74324  1.0000
  C   C412      1.0  0.01270  0.73852  0.73936  1.0000
  Fe  Fe81      1.0  0.39730  0.68926  0.73496  1.0000
  C   C413      1.0  0.16508  0.64827  0.74481  1.0000
  Fe  Fe82      1.0  0.24605  0.90688  0.74809  1.0000
  S   S166      1.0  0.23286  0.56886  0.74590  1.0000
  H   H671      1.0  0.19030  0.61790  0.74617  1.0000
  H   H672      1.0  0.04694  0.73728  0.74828  1.0000
  H   H673      1.0  0.05875  0.78099  0.74711  1.0000
  N   N42       1.0  0.05812  0.81719  0.74711  1.0000
  Fe  Fe83      1.0  0.24897  0.71771  0.88390  1.0000
  S   S167      1.0  0.22875  0.73748  0.91125  1.0000
  S   S168      1.0  0.23646  0.70267  0.85652  1.0000
  Fe  Fe84      1.0  0.29499  0.72785  0.89326  1.0000
  S   S169      1.0  0.27911  0.74893  0.92134  1.0000
  S   S170      1.0  0.33316  0.71877  0.88242  1.0000
  Fe  Fe85      1.0  0.25653  0.72116  0.93274  1.0000
  S   S171      1.0  0.24566  0.70833  0.97000  1.0000
  Fe  Fe86      1.0  0.25270  0.76363  0.89808  1.0000
  S   S172      1.0  0.23706  0.80060  0.89322  1.0000
  S   S173      1.0  0.27457  0.69863  0.90646  1.0000
  S   S174      1.0  0.27058  0.74533  0.86890  1.0000
  C   C414      1.0  0.02863  0.74225  0.75310  1.0000
  S   S175      1.0  0.09722  0.71402  0.79932  1.0000
  Fe  Fe87      1.0  0.12003  0.71477  0.76538  1.0000
  Fe  Fe88      1.0  0.26668  0.55886  0.75977  1.0000
  S   S176      1.0  0.10109  0.76941  0.79437  1.0000
  H   H674      1.0  0.34165  0.68118  0.80017  1.0000
  Fe  Fe89      1.0  0.12132  0.73631  0.80780  1.0000
  S   S177      1.0  0.13193  0.73434  0.84274  1.0000
  Fe  Fe90      1.0  0.07865  0.74710  0.78333  1.0000
  S   S178      1.0  0.04001  0.75783  0.79062  1.0000
  S   S179      1.0  0.14573  0.73392  0.77532  1.0000
  H   H675      1.0  0.34811  0.65644  0.83630  1.0000
  H   H676      1.0  0.30460  0.70640  0.84882  1.0000
  H   H677      1.0  0.05916  0.80002  0.78140  1.0000
  S   S180      1.0  0.23464  0.89277  0.78457  1.0000
  S   S181      1.0  0.29129  0.85308  0.80629  1.0000
  C   C415      1.0  0.19058  0.77883  0.81637  1.0000
  H   H678      1.0  0.17605  0.77174  0.82814  1.0000
  Fe  Fe91      1.0  0.22415  0.59298  0.77226  1.0000
  S   S182      1.0  0.18981  0.60047  0.79399  1.0000
  H   H679      1.0  0.28396  0.73378  0.96979  1.0000
  S   S183      1.0  0.25644  0.58065  0.78825  1.0000
  C   C416      1.0  0.26145  0.95551  0.77111  1.0000
  Fe  Fe92      1.0  0.26704  0.86763  0.78079  1.0000
  S   S184      1.0  0.35957  0.75395  0.77828  1.0000
  C   C417      1.0  0.05082  0.81603  0.77205  1.0000
  H   H680      1.0  0.21029  0.66490  0.85503  1.0000
  H   H681      1.0  0.09222  0.79962  0.75070  1.0000
  H   H682      1.0  0.24107  0.65632  0.79698  1.0000
  H   H683      1.0  0.21552  0.81304  0.79876  1.0000
  C   C418      1.0  0.31442  0.64152  0.76232  1.0000
  C   C419      1.0  0.27389  0.99258  0.77200  1.0000
  S   S185      1.0  0.18561  0.85623  0.78662  1.0000
  H   H684      1.0  0.18144  0.82209  0.82696  1.0000
  C   C420      1.0  0.22289  0.80014  0.81222  1.0000
  H   H685      1.0  0.19982  0.81560  0.96353  1.0000
  H   H686      1.0  0.22784  0.61800  0.80594  1.0000
  H   H687      1.0  0.18295  0.79105  0.80262  1.0000
  N   N43       1.0  0.20443  0.79022  0.82862  1.0000
  H   H688      1.0  0.23146  0.64025  0.86007  1.0000
  C   C421      1.0  0.26975  0.97063  0.78281  1.0000
  H   H689      1.0  0.34119  0.68104  0.85140  1.0000
  H   H690      1.0  0.00837  0.65858  0.76188  1.0000
  H   H691      1.0  0.19923  0.81758  0.84932  1.0000
  H   H692      1.0  0.17503  0.80200  0.85207  1.0000
  H   H693      1.0  0.26379  0.80891  0.96037  1.0000
  H   H694      1.0  0.34899  0.68382  0.75371  1.0000
  S   S186      1.0  0.23869  0.62238  0.74968  1.0000
  N   N44       1.0  0.23236  0.79378  0.96473  1.0000
  H   H695      1.0  0.30934  0.67610  0.77050  1.0000
  H   H696      1.0  0.20152  0.63687  0.86144  1.0000
  H   H697      1.0  0.23470  0.78669  0.80349  1.0000
  C   C422      1.0  0.30633  0.65918  0.82266  1.0000
  H   H698      1.0  0.25915  0.79689  0.93597  1.0000
  S   S187      1.0  0.25082  0.84125  0.76850  1.0000
  C   C423      1.0  0.49194  0.72138  0.75427  1.0000
  C   C424      1.0  0.18330  0.83388  0.75017  1.0000
  H   H699      1.0  0.36393  0.82633  0.77156  1.0000
  C   C425      1.0  0.17299  0.62359  0.77975  1.0000
  C   C426      1.0  0.15583  0.63754  0.79226  1.0000
  C   C427      1.0  0.14398  0.65740  0.78114  1.0000
  H   H700      1.0  0.31985  0.64782  0.81285  1.0000
  H   H701      1.0  0.28858  0.68259  0.85779  1.0000
  H   H702      1.0  0.15196  0.63321  0.81057  1.0000
  H   H703      1.0  0.13104  0.66837  0.79089  1.0000
  H   H704      1.0  0.20141  0.76574  0.85907  1.0000
  H   H705      1.0  0.29299  0.66630  0.81131  1.0000
  H   H706      1.0  0.28436  0.70096  0.83158  1.0000
  C   C428      1.0  0.02077  0.75233  0.77306  1.0000
  C   C429      1.0  0.32137  0.66289  0.76282  1.0000
  C   C430      1.0  0.31420  0.80888  0.76326  1.0000
  C   C431      1.0  0.34787  0.81815  0.77616  1.0000
  C   C432      1.0  0.15446  0.82808  0.78333  1.0000
  C   C433      1.0  0.14859  0.66272  0.75738  1.0000
  S   S188      1.0  0.09951  0.74597  0.74867  1.0000
  H   H707      1.0  0.31459  0.69954  0.79797  1.0000
  Fe  Fe93      1.0  0.38702  0.73226  0.75757  1.0000
  C   C434      1.0  0.34268  0.73097  0.85451  1.0000
  C   C435      1.0  0.36318  0.72103  0.84246  1.0000
  C   C436      1.0  0.36917  0.72857  0.81910  1.0000
  C   C437      1.0  0.35468  0.74615  0.80792  1.0000
  C   C438      1.0  0.33501  0.75699  0.82033  1.0000
  C   C439      1.0  0.32907  0.74946  0.84358  1.0000
  H   H708      1.0  0.37401  0.70699  0.85098  1.0000
  H   H709      1.0  0.38460  0.72041  0.80967  1.0000
  H   H710      1.0  0.32400  0.77092  0.81187  1.0000
  H   H711      1.0  0.31398  0.75802  0.85302  1.0000
  C   C440      1.0  0.20773  0.71312  0.85250  1.0000
  C   C441      1.0  0.19120  0.71882  0.87090  1.0000
  C   C442      1.0  0.16798  0.72552  0.86766  1.0000
  C   C443      1.0  0.16122  0.72645  0.84607  1.0000
  C   C444      1.0  0.17789  0.72121  0.82760  1.0000
  C   C445      1.0  0.20111  0.71471  0.83078  1.0000
  H   H712      1.0  0.19611  0.71743  0.88778  1.0000
  H   H713      1.0  0.15513  0.72958  0.88202  1.0000
  H   H714      1.0  0.17290  0.72200  0.81091  1.0000
  H   H715      1.0  0.21388  0.71092  0.81633  1.0000
  C   C446      1.0  0.25239  0.81541  0.86941  1.0000
  C   C447      1.0  0.27545  0.80734  0.86194  1.0000
  C   C448      1.0  0.28750  0.81916  0.84272  1.0000
  C   C449      1.0  0.27631  0.83868  0.83060  1.0000
  C   C450      1.0  0.25313  0.84650  0.83786  1.0000
  C   C451      1.0  0.24132  0.83513  0.85751  1.0000
  H   H716      1.0  0.28418  0.79226  0.87121  1.0000
  H   H717      1.0  0.30543  0.81305  0.83715  1.0000
  H   H718      1.0  0.24446  0.86164  0.82862  1.0000
  H   H719      1.0  0.22357  0.84156  0.86335  1.0000
  H   H720      1.0  0.24089  0.61180  0.83168  1.0000
  C   C452      1.0  0.49816  0.76055  0.75542  1.0000
  H   H721      1.0  0.29804  0.64817  0.83747  1.0000
  C   C453      1.0  0.17372  0.83831  0.77225  1.0000
  H   H722      1.0  0.46457  0.74941  0.75911  1.0000
  C   C454      1.0  0.14495  0.81322  0.77252  1.0000
  C   C455      1.0  0.29761  0.69253  0.84260  1.0000
  H   H723      1.0  0.18314  0.64530  0.82586  1.0000
  C   C456      1.0  0.15425  0.80904  0.75031  1.0000
  H   H724      1.0  0.23693  0.80415  0.99650  1.0000
  C   C457      1.0  0.22393  0.77458  0.95696  1.0000
  H   H725      1.0  0.31851  0.79027  0.76943  1.0000
  H   H726      1.0  0.26791  0.77833  0.96071  1.0000
  H   H727      1.0  0.22001  0.81874  0.93780  1.0000
  C   C458      1.0  0.21848  0.81565  0.95684  1.0000
  Fe  Fe94      1.0  0.21930  0.86753  0.76909  1.0000
  H   H728      1.0  0.27270  0.96536  0.80037  1.0000
  H   H729      1.0  0.23455  0.75789  0.96180  1.0000
  C   C459      1.0  0.27410  0.73255  0.98667  1.0000
  H   H730      1.0  0.25791  0.93878  0.77971  1.0000
  H   H731      1.0  0.33433  0.70595  0.81489  1.0000
  H   H732      1.0  0.20127  0.76438  0.80822  1.0000
  C   C460      1.0  0.32962  0.62481  0.75144  1.0000
  C   C461      1.0  0.34371  0.66733  0.75319  1.0000
  Fe  Fe95      1.0  0.27175  0.60856  0.76367  1.0000
  H   H733      1.0  0.35287  0.79994  0.78312  1.0000
  H   H734      1.0  0.22427  0.83054  0.96247  1.0000
  H   H735      1.0  0.19317  0.67280  0.81911  1.0000
  H   H736      1.0  0.22573  0.78121  0.85547  1.0000
  Fe  Fe96      1.0  0.12366  0.76512  0.76110  1.0000
  H   H737      1.0  0.13014  0.80540  0.78124  1.0000
  H   H738      1.0  0.21062  0.61001  0.83254  1.0000
  H   H739      1.0  0.32440  0.60825  0.75104  1.0000
  H   H740      1.0  0.03182  0.81595  0.77650  1.0000
  H   H741      1.0  0.22612  0.75876  0.83845  1.0000
  H   H742      1.0  0.30267  0.81685  0.77736  1.0000
  H   H743      1.0  0.20011  0.65248  0.79884  1.0000
  H   H744      1.0  0.23570  0.67501  0.81876  1.0000
  H   H745      1.0  0.31831  0.85371  0.76179  1.0000
  S   S189      1.0  0.28717  0.63577  0.77656  1.0000
  C   C462      1.0  0.33363  0.66750  0.84527  1.0000
  H   H746      1.0  0.20574  0.77293  0.96452  1.0000
  C   C463      1.0  0.18934  0.80877  0.83976  1.0000
  S   S190      1.0  0.40577  0.69720  0.76794  1.0000
  C   C464      1.0  0.21488  0.77322  0.84616  1.0000
  C   C465      1.0  0.48307  0.74425  0.75654  1.0000
  H   H747      1.0  0.23355  0.80908  0.82086  1.0000
  N   N45       1.0  0.31618  0.67769  0.83009  1.0000
  N   N46       1.0  0.21926  0.64446  0.82746  1.0000
  C   C466      1.0  0.23861  0.65675  0.81580  1.0000
  C   C467      1.0  0.19801  0.65426  0.81738  1.0000
  C   C468      1.0  0.21550  0.64667  0.85210  1.0000
  C   C469      1.0  0.22493  0.61996  0.82441  1.0000
  H   H748      1.0  0.25517  0.64879  0.82197  1.0000
  H   H749      1.0  0.32592  0.65685  0.86072  1.0000
  C   C470      1.0  0.32718  0.69163  0.80986  1.0000
  H   H750      1.0  0.14696  0.83156  0.80038  1.0000
  C   C471      1.0  0.17748  0.62890  0.75600  1.0000
  H   H751      1.0  0.05553  0.83073  0.77896  1.0000
  H   H752      1.0  0.24003  0.77370  0.99641  1.0000
  H   H753      1.0  0.33697  0.82658  0.79036  1.0000
  H   H754      1.0  0.22464  0.77699  0.93806  1.0000
  C   C472      1.0  0.23017  0.79033  0.98997  1.0000
  C   C473      1.0  0.25688  0.79452  0.95503  1.0000
  H   H755      1.0  0.49120  0.77826  0.75710  1.0000
  C   C474      1.0  0.25490  0.72069  0.99137  1.0000
  S   S191      1.0  0.47367  0.70071  0.75402  1.0000
  N   N47       1.0  0.33532  0.82006  0.75629  1.0000
  S   S192      1.0  0.28322  0.52220  0.76899  1.0000
  H   H756      1.0  0.21186  0.79004  0.99789  1.0000
  C   C475      1.0  0.27034  0.99911  0.74920  1.0000
  C   C476      1.0  0.25739  0.96225  0.74847  1.0000
  H   H757      1.0  0.30406  0.81038  0.74878  1.0000
  H   H758      1.0  0.08985  0.83020  0.74851  1.0000
  H   H759      1.0  0.80475  0.16209  0.17036  1.0000
  S   S193      1.0  0.85172  0.27165  0.21649  1.0000
  H   H760      1.0  0.78643  0.42924  0.18882  1.0000
  H   H761      1.0  0.73442  0.43201  0.20310  1.0000
  H   H762      1.0  0.83741  0.26102  0.07427  1.0000
  C   C477      1.0  0.76688  0.42869  0.15106  1.0000
  H   H763      1.0  0.74909  0.45371  0.18544  1.0000
  H   H764      1.0  0.83677  0.15900  0.20533  1.0000
  C   C478      1.0  0.77779  0.41403  0.18831  1.0000
  N   N48       1.0  0.83203  0.23373  0.05661  1.0000
  Fe  Fe97      1.0  0.77002  0.10513  0.22363  1.0000
  S   S194      1.0  0.77812  0.11475  0.18578  1.0000
  C   C479      1.0  0.77911  0.17717  0.20850  1.0000
  Fe  Fe98      1.0  0.78894  0.24215  0.12953  1.0000
  S   S195      1.0  0.75817  0.24341  0.15656  1.0000
  S   S196      1.0  0.82467  0.22695  0.13683  1.0000
  Fe  Fe99      1.0  0.76123  0.26183  0.09104  1.0000
  S   S197      1.0  0.72750  0.26511  0.11442  1.0000
  S   S198      1.0  0.76843  0.27350  0.05302  1.0000
  Fe  Fe100     1.0  0.74698  0.27804  0.13801  1.0000
  S   S199      1.0  0.72714  0.30456  0.15937  1.0000
  Fe  Fe101     1.0  0.74062  0.23037  0.13169  1.0000
  S   S200      1.0  0.71673  0.20518  0.14879  1.0000
  S   S201      1.0  0.77965  0.27829  0.11317  1.0000
  S   S202      1.0  0.77256  0.22561  0.10614  1.0000
  C   C480      1.0  0.83736  0.21566  0.07572  1.0000
  H   H765      1.0  0.81880  0.21098  0.03860  1.0000
  C   C481      1.0  0.85297  0.23582  0.03972  1.0000
  H   H766      1.0  0.81372  0.14207  0.20709  1.0000
  H   H767      1.0  0.71266  0.22557  0.19322  1.0000
  H   H768      1.0  0.77730  0.27894  0.00412  1.0000
  N   N49       1.0  0.80379  0.17857  0.20010  1.0000
  H   H769      1.0  0.77528  0.17748  0.22731  1.0000
  S   S203      1.0  0.78421  0.35568  0.21172  1.0000
  C   C482      1.0  0.80798  0.17857  0.17506  1.0000
  H   H770      1.0  0.75257  0.43335  0.14044  1.0000
  C   C483      1.0  0.68832  0.26062  0.16958  1.0000
  H   H771      1.0  0.77410  0.16093  0.20505  1.0000
  C   C484      1.0  0.74333  0.31777  0.17450  1.0000
  C   C485      1.0  0.76745  0.31532  0.16994  1.0000
  C   C486      1.0  0.77992  0.32680  0.18167  1.0000
  C   C487      1.0  0.76835  0.34037  0.19829  1.0000
  C   C488      1.0  0.74428  0.34238  0.20324  1.0000
  C   C489      1.0  0.73178  0.33132  0.19115  1.0000
  H   H772      1.0  0.77647  0.30494  0.15707  1.0000
  H   H773      1.0  0.79856  0.32520  0.17779  1.0000
  H   H774      1.0  0.73522  0.35271  0.21611  1.0000
  H   H775      1.0  0.71312  0.33328  0.19466  1.0000
  C   C490      1.0  0.75962  0.25900  0.03292  1.0000
  C   C491      1.0  0.74604  0.24126  0.03977  1.0000
  C   C492      1.0  0.73932  0.23013  0.02325  1.0000
  H   H776      1.0  0.79654  0.19268  0.16618  1.0000
  H   H777      1.0  0.74045  0.23632  0.05775  1.0000
  H   H778      1.0  0.72857  0.21660  0.02862  1.0000
  H   H779      1.0  0.86720  0.24042  0.04755  1.0000
  C   C493      1.0  0.75964  0.13839  0.17456  1.0000
  C   C494      1.0  0.73810  0.14546  0.18669  1.0000
  C   C495      1.0  0.72458  0.16570  0.17839  1.0000
  C   C496      1.0  0.73280  0.17905  0.15821  1.0000
  C   C497      1.0  0.75419  0.17180  0.14599  1.0000
  C   C498      1.0  0.76738  0.15128  0.15393  1.0000
  H   H780      1.0  0.73177  0.13529  0.20233  1.0000
  H   H781      1.0  0.70794  0.17118  0.18774  1.0000
  H   H782      1.0  0.76039  0.18178  0.13017  1.0000
  H   H783      1.0  0.78386  0.14567  0.14432  1.0000
  C   C499      1.0  0.84459  0.25880  0.19446  1.0000
  C   C500      1.0  0.85907  0.24029  0.18569  1.0000
  C   C501      1.0  0.85312  0.23076  0.16767  1.0000
  C   C502      1.0  0.83251  0.23947  0.15871  1.0000
  C   C503      1.0  0.81793  0.25777  0.16770  1.0000
  C   C504      1.0  0.82404  0.26749  0.18543  1.0000
  H   H784      1.0  0.87506  0.23365  0.19245  1.0000
  H   H785      1.0  0.86446  0.21664  0.16073  1.0000
  H   H786      1.0  0.80204  0.26465  0.16085  1.0000
  H   H787      1.0  0.81281  0.28182  0.19214  1.0000
  H   H788      1.0  0.79738  0.22630  0.05759  1.0000
  H   H789      1.0  0.82872  0.20120  0.20027  1.0000
  H   H790      1.0  0.77543  0.44426  0.15022  1.0000
  C   C505      1.0  0.74123  0.43796  0.18506  1.0000
  H   H791      1.0  0.77181  0.40719  0.20625  1.0000
  H   H792      1.0  0.77976  0.41549  0.14298  1.0000
  H   H793      1.0  0.81509  0.15775  0.23005  1.0000
  H   H794      1.0  0.99627  0.14835  0.24474  1.0000
  H   H795      1.0  0.69647  0.26358  0.22398  1.0000
  S   S204      1.0  0.73003  0.39612  0.24217  1.0000
  H   H796      1.0  0.75968  0.38521  0.16810  1.0000
  H   H797      1.0  0.80829  0.25486  0.07819  1.0000
  N   N50       1.0  0.68532  0.25401  0.19461  1.0000
  H   H798      1.0  0.84944  0.24941  0.02515  1.0000
  C   C506      1.0  0.66056  0.25816  0.20379  1.0000
  H   H799      1.0  0.85937  0.21943  0.03253  1.0000
  C   C507      1.0  0.81801  0.15848  0.21113  1.0000
  H   H800      1.0  0.65779  0.25320  0.22263  1.0000
  S   S205      1.0  0.90387  0.21998  0.23197  1.0000
  H   H801      1.0  0.85083  0.21994  0.08484  1.0000
  H   H802      1.0  0.79100  0.40045  0.18127  1.0000
  H   H803      1.0  0.76775  0.19161  0.19997  1.0000
  H   H804      1.0  0.53152  0.23677  0.22534  1.0000
  C   C508      1.0  0.69401  0.22934  0.19997  1.0000
  H   H805      1.0  0.68464  0.21843  0.19205  1.0000
  H   H806      1.0  0.70682  0.25774  0.16226  1.0000
  H   H807      1.0  0.67776  0.15990  0.22002  1.0000
  H   H808      1.0  0.67897  0.25033  0.16096  1.0000
  C   C509      1.0  0.58176  0.19742  0.24112  1.0000
  H   H809      1.0  0.84354  0.19868  0.06970  1.0000
  H   H810      1.0  0.73244  0.40296  0.16514  1.0000
  S   S206      1.0  0.96661  0.23224  0.22787  1.0000
  Fe  Fe102     1.0  0.87951  0.25238  0.23640  1.0000
  H   H811      1.0  0.69442  0.32077  0.23344  1.0000
  H   H812      1.0  0.81974  0.31525  0.23220  1.0000
  C   C510      1.0  0.81003  0.19997  0.20569  1.0000
  H   H813      1.0  0.72618  0.44295  0.17546  1.0000
  H   H814      1.0  0.65351  0.27669  0.20043  1.0000
  H   H815      1.0  0.54738  0.17385  0.23822  1.0000
  Fe  Fe103     1.0  0.76439  0.37378  0.24058  1.0000
  H   H816      1.0  0.71712  0.26553  0.19827  1.0000
  C   C511      1.0  0.74718  0.39929  0.17521  1.0000
  C   C512      1.0  0.82412  0.25588  0.06554  1.0000
  H   H817      1.0  0.56731  0.20782  0.23280  1.0000
  H   H818      1.0  0.82187  0.21363  0.08873  1.0000
  H   H819      1.0  0.69971  0.12393  0.23682  1.0000
  H   H820      1.0  0.65014  0.24806  0.19617  1.0000
  H   H821      1.0  0.69213  0.28665  0.20136  1.0000
  H   H822      1.0  0.80648  0.20090  0.22437  1.0000
  H   H823      1.0  0.80022  0.21547  0.19687  1.0000
  H   H824      1.0  0.80913  0.24101  0.03100  1.0000
  H   H825      1.0  0.82612  0.18102  0.16793  1.0000
  Fe  Fe104     1.0  0.92956  0.23716  0.24513  1.0000
  H   H826      1.0  0.68211  0.27918  0.16488  1.0000
  H   H827      1.0  0.69171  0.22366  0.21871  1.0000
  C   C513      1.0  0.69838  0.26793  0.20506  1.0000
  H   H828      1.0  0.74041  0.39230  0.19293  1.0000
  C   C514      1.0  0.81362  0.22766  0.04546  1.0000
  N   N51       1.0  0.75825  0.42000  0.17490  1.0000
  H   H829      1.0  0.96891  0.18104  0.22959  1.0000
  C   C515      1.0  0.76679  0.26523  0.00953  1.0000
  H   H830      1.0  0.81966  0.26997  0.05169  1.0000
  S   S207      1.0  0.80015  0.09763  0.24340  1.0000
  S   S208      1.0  0.74233  0.45830  0.24209  1.0000
  C   C516      1.0  0.75476  0.50032  0.24492  1.0000
  C   C517      1.0  0.74640  0.23642  0.99984  1.0000
  C   C518      1.0  0.95574  0.17574  0.24417  1.0000
  S   S209      1.0  0.90624  0.27079  0.24574  1.0000
  H   H831      1.0  0.77222  0.02914  0.23831  1.0000
  C   C519      1.0  0.67445  0.15424  0.23818  1.0000
  S   S210      1.0  0.74942  0.12993  0.24603  1.0000
  S   S211      1.0  0.75248  0.07517  0.24161  1.0000
  C   C520      1.0  0.98955  0.23488  0.24245  1.0000
  H   H832      1.0  0.94545  0.16412  0.23843  1.0000
  S   S212      1.0  0.64296  0.19295  0.23997  1.0000
  C   C521      1.0  0.56262  0.16372  0.24561  1.0000
  H   H833      1.0  0.57479  0.15674  0.23133  1.0000
  S   S213      1.0  0.65660  0.29458  0.24559  1.0000
  H   H834      1.0  0.59525  0.19131  0.22732  1.0000
  H   H835      1.0  0.86018  0.31600  0.23719  1.0000
  H   H836      1.0  0.83149  0.35161  0.23829  1.0000
  C   C522      1.0  0.52615  0.23803  0.24332  1.0000
  H   H837      1.0  0.94386  0.19155  0.24781  1.0000
  C   C523      1.0  0.68683  0.13386  0.24767  1.0000
  H   H838      1.0  0.55809  0.24878  0.24828  1.0000
  C   C524      1.0  0.68217  0.12617  0.27103  1.0000
  C   C525      1.0  0.71530  0.17645  0.27978  1.0000
  H   H839      1.0  0.77699  0.44940  0.27292  1.0000
  H   H840      1.0  0.00090  0.24628  0.29335  1.0000
  H   H841      1.0  0.82944  0.25808  0.44934  1.0000
  S   S214      1.0  0.79739  0.03301  0.27523  1.0000
  Fe  Fe105     1.0  0.89358  0.25663  0.28170  1.0000
  S   S215      1.0  0.88169  0.28171  0.30688  1.0000
  S   S216      1.0  0.91918  0.22441  0.28215  1.0000
  H   H842      1.0  0.72649  0.05899  0.29780  1.0000
  S   S217      1.0  0.76213  0.09163  0.28940  1.0000
  H   H843      1.0  0.79325  0.22800  0.47147  1.0000
  S   S218      1.0  0.60992  0.21424  0.29843  1.0000
  H   H844      1.0  0.99348  0.18641  0.25766  1.0000
  H   H845      1.0  0.96822  0.19717  0.27562  1.0000
  S   S219      1.0  0.61489  0.26815  0.30181  1.0000
  H   H846      1.0  0.81891  0.17801  0.32156  1.0000
  Fe  Fe106     1.0  0.63495  0.23330  0.31003  1.0000
  S   S220      1.0  0.64754  0.22070  0.34403  1.0000
  Fe  Fe107     1.0  0.59147  0.24922  0.28737  1.0000
  S   S221      1.0  0.55249  0.25512  0.29623  1.0000
  S   S222      1.0  0.65840  0.23457  0.27671  1.0000
  H   H847      1.0  0.64128  0.17015  0.28656  1.0000
  Fe  Fe108     1.0  0.75533  0.24446  0.38998  1.0000
  S   S223      1.0  0.73252  0.26425  0.41613  1.0000
  S   S224      1.0  0.74790  0.23477  0.35708  1.0000
  Fe  Fe109     1.0  0.79939  0.24960  0.40798  1.0000
  S   S225      1.0  0.78083  0.27059  0.43505  1.0000
  S   S226      1.0  0.83746  0.23698  0.40335  1.0000
  Fe  Fe110     1.0  0.75577  0.24495  0.44125  1.0000
  S   S227      1.0  0.74448  0.22905  0.47746  1.0000
  Fe  Fe111     1.0  0.75924  0.28827  0.40824  1.0000
  S   S228      1.0  0.74680  0.32600  0.40281  1.0000
  S   S229      1.0  0.77598  0.22250  0.41575  1.0000
  S   S230      1.0  0.78043  0.26994  0.38043  1.0000
  C   C526      1.0  0.81430  0.18572  0.33780  1.0000
  Fe  Fe112     1.0  0.77237  0.38201  0.28701  1.0000
  S   S231      1.0  0.79926  0.36871  0.30995  1.0000
  S   S232      1.0  0.73890  0.40540  0.29305  1.0000
  H   H848      1.0  0.82659  0.12237  0.28681  1.0000
  C   C527      1.0  0.77416  0.46769  0.26726  1.0000
  Fe  Fe113     1.0  0.78107  0.06919  0.26330  1.0000
  H   H849      1.0  0.58875  0.14904  0.27929  1.0000
  H   H850      1.0  0.86482  0.22600  0.47602  1.0000
  C   C528      1.0  0.78665  0.48250  0.27504  1.0000
  H   H851      1.0  0.79544  0.18547  0.34335  1.0000
  C   C529      1.0  0.65465  0.31949  0.28121  1.0000
  H   H852      1.0  0.79901  0.47549  0.28670  1.0000
  C   C530      1.0  0.76279  0.33957  0.37871  1.0000
  C   C531      1.0  0.75233  0.35926  0.36627  1.0000
  C   C532      1.0  0.76360  0.36834  0.34518  1.0000
  C   C533      1.0  0.78574  0.35831  0.33695  1.0000
  C   C534      1.0  0.79672  0.33932  0.34994  1.0000
  C   C535      1.0  0.78513  0.32979  0.37071  1.0000
  H   H853      1.0  0.73523  0.36714  0.37261  1.0000
  H   H854      1.0  0.75526  0.38329  0.33544  1.0000
  H   H855      1.0  0.81396  0.33173  0.34374  1.0000
  H   H856      1.0  0.79354  0.31499  0.38060  1.0000
  S   S233      1.0  0.69119  0.36610  0.29609  1.0000
  H   H857      1.0  0.75853  0.27309  0.48073  1.0000
  C   C536      1.0  0.53424  0.24662  0.27944  1.0000
  N   N52       1.0  0.71284  0.02905  0.29266  1.0000
  C   C537      1.0  0.84153  0.18471  0.27163  1.0000
  H   H858      1.0  0.85574  0.22139  0.44998  1.0000
  H   H859      1.0  0.50660  0.24338  0.30745  1.0000
  C   C538      1.0  0.59388  0.16406  0.26705  1.0000
  H   H860      1.0  0.73330  0.17185  0.27140  1.0000
  H   H861      1.0  0.80943  0.35389  0.26242  1.0000
  H   H862      1.0  0.82795  0.29651  0.29336  1.0000
  C   C539      1.0  0.67441  0.22735  0.34810  1.0000
  C   C540      1.0  0.68922  0.23711  0.32984  1.0000
  C   C541      1.0  0.71165  0.23969  0.33291  1.0000
  C   C542      1.0  0.71909  0.23325  0.35439  1.0000
  C   C543      1.0  0.70394  0.22459  0.37293  1.0000
  C   C544      1.0  0.68173  0.22134  0.36969  1.0000
  H   H863      1.0  0.68360  0.24211  0.31324  1.0000
  H   H864      1.0  0.72333  0.24648  0.31854  1.0000
  H   H865      1.0  0.70958  0.21959  0.38956  1.0000
  H   H866      1.0  0.67028  0.21386  0.38388  1.0000
  C   C545      1.0  0.68145  0.34651  0.28180  1.0000
  H   H867      1.0  0.82368  0.17426  0.35089  1.0000
  Fe  Fe114     1.0  0.73496  0.09937  0.26623  1.0000
  C   C546      1.0  0.85857  0.16685  0.27813  1.0000
  C   C547      1.0  0.72110  0.14847  0.31291  1.0000
  H   H868      1.0  0.63965  0.31144  0.28907  1.0000
  H   H869      1.0  0.81463  0.22146  0.44784  1.0000
  H   H870      1.0  0.73908  0.14256  0.30525  1.0000
  H   H871      1.0  0.98799  0.17366  0.28694  1.0000
  Fe  Fe115     1.0  0.74774  0.42058  0.25641  1.0000
  C   C548      1.0  0.66536  0.13903  0.28494  1.0000
  H   H872      1.0  0.86630  0.13039  0.28833  1.0000
  C   C549      1.0  0.69323  0.34085  0.26081  1.0000
  C   C550      1.0  0.75914  0.26242  0.49702  1.0000
  Fe  Fe116     1.0  0.89208  0.20935  0.26903  1.0000
  H   H873      1.0  0.56436  0.19906  0.28479  1.0000
  C   C551      1.0  0.87033  0.26937  0.33407  1.0000
  C   C552      1.0  0.85204  0.28190  0.34672  1.0000
  C   C553      1.0  0.84213  0.27209  0.36816  1.0000
  C   C554      1.0  0.85085  0.24992  0.37727  1.0000
  C   C555      1.0  0.86954  0.23755  0.36488  1.0000
  C   C556      1.0  0.87912  0.24718  0.34315  1.0000
  H   H874      1.0  0.84542  0.29916  0.33985  1.0000
  H   H875      1.0  0.82798  0.28189  0.37779  1.0000
  H   H876      1.0  0.87636  0.22041  0.37192  1.0000
  H   H877      1.0  0.89344  0.23757  0.33352  1.0000
  Fe  Fe117     1.0  0.72404  0.37917  0.27845  1.0000
  C   C557      1.0  0.73096  0.03998  0.29955  1.0000
  C   C558      1.0  0.66618  0.31416  0.26000  1.0000
  C   C559      1.0  0.81350  0.15787  0.27712  1.0000
  C   C560      1.0  0.69052  0.03554  0.30671  1.0000
  H   H878      1.0  0.67644  0.02752  0.30206  1.0000
  C   C561      1.0  0.65374  0.15996  0.27562  1.0000
  H   H879      1.0  0.65286  0.34030  0.30814  1.0000
  H   H880      1.0  0.70941  0.19465  0.27321  1.0000
  H   H881      1.0  0.66179  0.13312  0.30303  1.0000
  H   H882      1.0  0.70421  0.16563  0.27403  1.0000
  H   H883      1.0  0.74788  0.03615  0.28880  1.0000
  S   S234      1.0  0.75682  0.35460  0.27550  1.0000
  H   H884      1.0  0.60247  0.17442  0.27629  1.0000
  H   H885      1.0  0.72042  0.14527  0.33183  1.0000
  H   H886      1.0  0.68532  0.05454  0.30430  1.0000
  C   C562      1.0  0.81114  0.21957  0.46683  1.0000
  H   H887      1.0  0.81146  0.20093  0.47314  1.0000
  H   H888      1.0  0.55637  0.14892  0.25748  1.0000
  C   C563      1.0  0.97964  0.18115  0.27155  1.0000
  C   C564      1.0  0.85317  0.14432  0.28339  1.0000
  H   H889      1.0  0.67784  0.16949  0.31134  1.0000
  S   S235      1.0  0.78473  0.15338  0.27812  1.0000
  Fe  Fe118     1.0  0.63656  0.26803  0.26734  1.0000
  N   N53       1.0  0.82800  0.22980  0.47651  1.0000
  C   C565      1.0  0.75820  0.47654  0.25214  1.0000
  H   H890      1.0  0.78836  0.22460  0.32253  1.0000
  N   N54       1.0  0.82024  0.20933  0.33486  1.0000
  C   C566      1.0  0.81395  0.21879  0.35680  1.0000
  C   C567      1.0  0.80737  0.22399  0.31744  1.0000
  C   C568      1.0  0.84532  0.20895  0.32742  1.0000
  H   H891      1.0  0.82384  0.20869  0.37027  1.0000
  H   H892      1.0  0.79526  0.21880  0.36327  1.0000
  H   H893      1.0  0.81757  0.23684  0.35498  1.0000
  H   H894      1.0  0.81132  0.24199  0.31499  1.0000
  H   H895      1.0  0.85561  0.19892  0.34058  1.0000
  H   H896      1.0  0.85014  0.22662  0.32411  1.0000
  H   H897      1.0  0.85094  0.20106  0.31140  1.0000
  N   N55       1.0  0.71463  0.31148  0.34509  1.0000
  C   C569      1.0  0.70839  0.33606  0.34783  1.0000
  C   C570      1.0  0.73986  0.30504  0.34436  1.0000
  C   C571      1.0  0.70766  0.30734  0.32358  1.0000
  C   C572      1.0  0.70262  0.29746  0.36463  1.0000
  H   H898      1.0  0.71213  0.33948  0.36456  1.0000
  H   H899      1.0  0.68970  0.34193  0.34688  1.0000
  H   H900      1.0  0.71820  0.34714  0.33415  1.0000
  H   H901      1.0  0.74551  0.30735  0.36060  1.0000
  H   H902      1.0  0.74524  0.28670  0.34184  1.0000
  H   H903      1.0  0.74953  0.31588  0.33034  1.0000
  H   H904      1.0  0.71243  0.28907  0.32074  1.0000
  H   H905      1.0  0.71596  0.31816  0.30856  1.0000
  H   H906      1.0  0.68865  0.31159  0.32377  1.0000
  H   H907      1.0  0.70717  0.27879  0.36334  1.0000
  H   H908      1.0  0.68351  0.30168  0.36553  1.0000
  H   H909      1.0  0.70737  0.30043  0.38114  1.0000
  S   S236      1.0  0.86551  0.24027  0.27248  1.0000
  C   C573      1.0  0.82508  0.31540  0.28809  1.0000
  H   H910      1.0  0.80568  0.19435  0.26733  1.0000
  S   S237      1.0  0.88618  0.17264  0.28098  1.0000
  H   H911      1.0  0.86722  0.31917  0.26478  1.0000
  H   H912      1.0  0.70628  0.05601  0.26507  1.0000
  N   N56       1.0  0.71405  0.17301  0.30495  1.0000
  C   C574      1.0  0.81895  0.18031  0.27162  1.0000
  H   H913      1.0  0.93610  0.17381  0.28807  1.0000
  H   H914      1.0  0.96793  0.24482  0.27281  1.0000
  H   H915      1.0  0.70964  0.13738  0.30807  1.0000
  C   C575      1.0  0.69012  0.18010  0.31541  1.0000
  C   C576      1.0  0.98547  0.24088  0.26459  1.0000
  C   C577      1.0  0.72974  0.18705  0.31166  1.0000
  Fe  Fe119     1.0  0.63163  0.21895  0.26428  1.0000
  H   H916      1.0  0.83873  0.35480  0.26579  1.0000
  H   H917      1.0  0.68861  0.17857  0.33439  1.0000
  C   C578      1.0  0.66209  0.33589  0.29194  1.0000
  C   C579      1.0  0.94828  0.15844  0.28339  1.0000
  H   H918      1.0  0.81184  0.21751  0.30059  1.0000
  C   C580      1.0  0.51207  0.24197  0.28950  1.0000
  N   N57       1.0  0.83086  0.32128  0.26308  1.0000
  H   H919      1.0  0.83603  0.32320  0.29752  1.0000
  H   H920      1.0  0.95570  0.14997  0.29904  1.0000
  H   H921      1.0  0.72841  0.18587  0.33060  1.0000
  H   H922      1.0  0.69720  0.02917  0.26250  1.0000
  H   H923      1.0  0.68395  0.19829  0.30923  1.0000
  C   C581      1.0  0.83072  0.13976  0.28254  1.0000
  H   H924      1.0  0.72729  0.03230  0.25716  1.0000
  H   H925      1.0  0.85357  0.19990  0.47464  1.0000
  H   H926      1.0  0.83884  0.26296  0.47511  1.0000
  S   S238      1.0  0.69822  0.10125  0.28318  1.0000
  H   H927      1.0  0.60719  0.15747  0.25333  1.0000
  H   H928      1.0  0.84561  0.20201  0.26699  1.0000
  C   C582      1.0  0.54121  0.24477  0.25626  1.0000
  H   H929      1.0  0.74810  0.18146  0.30495  1.0000
  H   H930      1.0  0.80677  0.32193  0.29407  1.0000
  C   C583      1.0  0.71080  0.03697  0.26829  1.0000
  C   C584      1.0  0.78709  0.00957  0.26706  1.0000
  C   C585      1.0  0.82758  0.34652  0.25706  1.0000
  N   N58       1.0  0.57381  0.17804  0.25753  1.0000
  H   H931      1.0  0.80864  0.26366  0.47398  1.0000
  C   C586      1.0  0.82616  0.25472  0.46838  1.0000
  Fe  Fe120     1.0  0.77822  0.12058  0.26726  1.0000
  H   H932      1.0  0.72558  0.20549  0.30488  1.0000
  C   C587      1.0  0.85160  0.21876  0.46901  1.0000
  H   H933      1.0  0.85813  0.29307  0.26032  1.0000
  H   H934      1.0  0.69149  0.03010  0.32524  1.0000
  H   H935      1.0  0.99091  0.13540  0.27395  1.0000
  S   S239      1.0  0.78260  0.39950  0.25182  1.0000
  C   C588      1.0  0.85519  0.31208  0.25600  1.0000
  H   H936      1.0  0.70823  0.34889  0.25296  1.0000
  H   H937      1.0  0.73356  0.03390  0.31764  1.0000
  C   C589      1.0  0.77463  0.01258  0.24858  1.0000
  H   H938      1.0  0.54105  0.19645  0.26992  1.0000
  C   C590      1.0  0.98238  0.14402  0.25898  1.0000
  H   H939      1.0  0.55167  0.17287  0.28965  1.0000
  C   C591      1.0  0.81566  0.31117  0.25114  1.0000
  H   H940      1.0  0.79715  0.31792  0.25579  1.0000
  H   H941      1.0  0.81776  0.29211  0.25512  1.0000
  C   C592      1.0  0.55704  0.18697  0.27629  1.0000
  S   S240      1.0  0.61135  0.25241  0.25208  1.0000
  C   C593      1.0  0.65808  0.16743  0.25216  1.0000
  C   C594      1.0  0.68544  0.32490  0.24981  1.0000
  N   N59       1.0  0.96651  0.16482  0.26454  1.0000
  C   C595      1.0  0.71910  0.00380  0.29609  1.0000
  H   H942      1.0  0.58952  0.20908  0.24969  1.0000
  C   C596      1.0  0.00416  0.24168  0.27619  1.0000
  H   H943      1.0  0.93766  0.14655  0.27852  1.0000
  H   H944      1.0  0.97302  0.13136  0.25360  1.0000
  H   H945      1.0  0.72390  0.27283  0.57588  1.0000
  S   S241      1.0  0.72248  0.13077  0.73219  1.0000
  H   H946      1.0  0.58171  0.21467  0.69469  1.0000
  Fe  Fe121     1.0  0.76639  0.25635  0.64606  1.0000
  S   S242      1.0  0.74494  0.27818  0.62098  1.0000
  S   S243      1.0  0.78094  0.26537  0.67571  1.0000
  Fe  Fe122     1.0  0.75916  0.21203  0.63065  1.0000
  S   S244      1.0  0.73662  0.22959  0.60444  1.0000
  S   S245      1.0  0.77121  0.17423  0.63722  1.0000
  Fe  Fe123     1.0  0.76272  0.25428  0.59579  1.0000
  S   S246      1.0  0.77388  0.26934  0.55929  1.0000
  Fe  Fe124     1.0  0.72061  0.25195  0.63132  1.0000
  S   S247      1.0  0.68293  0.26544  0.63786  1.0000
  S   S248      1.0  0.78675  0.23492  0.61998  1.0000
  S   S249      1.0  0.74048  0.23199  0.65847  1.0000
  S   S250      1.0  0.89837  0.30750  0.74737  1.0000
  Fe  Fe125     1.0  0.76818  0.37539  0.73125  1.0000
  C   C597      1.0  0.70204  0.25997  0.54500  1.0000
  S   S251      1.0  0.77647  0.36740  0.69492  1.0000
  C   C598      1.0  0.71336  0.28691  0.56608  1.0000
  H   H947      1.0  0.71159  0.24218  0.71787  1.0000
  H   H948      1.0  0.67369  0.31223  0.55608  1.0000
  H   H949      1.0  0.71450  0.27184  0.74127  1.0000
  H   H950      1.0  0.83381  0.20142  0.65747  1.0000
  H   H951      1.0  0.82416  0.30389  0.68312  1.0000
  H   H952      1.0  0.80664  0.49000  0.73692  1.0000
  H   H953      1.0  0.73518  0.27323  0.70133  1.0000
  H   H954      1.0  0.81804  0.27978  0.70414  1.0000
  H   H955      1.0  0.66518  0.29221  0.54038  1.0000
  H   H956      1.0  0.68761  0.25344  0.53923  1.0000
  C   C599      1.0  0.80170  0.20821  0.70901  1.0000
  C   C600      1.0  0.67848  0.26985  0.57981  1.0000
  C   C601      1.0  0.77617  0.29424  0.68058  1.0000
  C   C602      1.0  0.77848  0.31202  0.66249  1.0000
  C   C603      1.0  0.77789  0.33462  0.66705  1.0000
  C   C604      1.0  0.77433  0.33956  0.68964  1.0000
  C   C605      1.0  0.77062  0.32193  0.70764  1.0000
  C   C606      1.0  0.77201  0.29926  0.70315  1.0000
  H   H957      1.0  0.78183  0.30825  0.64503  1.0000
  H   H958      1.0  0.78068  0.34824  0.65305  1.0000
  H   H959      1.0  0.76751  0.32563  0.72506  1.0000
  H   H960      1.0  0.77023  0.28554  0.71722  1.0000
  C   C607      1.0  0.66865  0.24873  0.66089  1.0000
  C   C608      1.0  0.67700  0.22554  0.66670  1.0000
  C   C609      1.0  0.66662  0.21294  0.68644  1.0000
  C   C610      1.0  0.64842  0.22371  0.70074  1.0000
  C   C611      1.0  0.63994  0.24681  0.69473  1.0000
  C   C612      1.0  0.64971  0.25916  0.67458  1.0000
  H   H961      1.0  0.69151  0.21732  0.65606  1.0000
  H   H962      1.0  0.67308  0.19500  0.69092  1.0000
  H   H963      1.0  0.62587  0.25522  0.70557  1.0000
  H   H964      1.0  0.64316  0.27707  0.67008  1.0000
  C   C613      1.0  0.76584  0.25774  0.53679  1.0000
  C   C614      1.0  0.76583  0.27099  0.51524  1.0000
  H   H965      1.0  0.72515  0.29375  0.55099  1.0000
  C   C615      1.0  0.75280  0.22707  0.52165  1.0000
  C   C616      1.0  0.75942  0.23568  0.53993  1.0000
  S   S252      1.0  0.85141  0.21804  0.74634  1.0000
  H   H966      1.0  0.74787  0.20997  0.52419  1.0000
  H   H967      1.0  0.75971  0.22516  0.55638  1.0000
  C   C617      1.0  0.73593  0.14222  0.70552  1.0000
  C   C618      1.0  0.72465  0.16168  0.69342  1.0000
  C   C619      1.0  0.73527  0.17138  0.67224  1.0000
  C   C620      1.0  0.75699  0.16134  0.66289  1.0000
  C   C621      1.0  0.76803  0.14151  0.67472  1.0000
  C   C622      1.0  0.75769  0.13218  0.69622  1.0000
  H   H968      1.0  0.70773  0.16931  0.70051  1.0000
  H   H969      1.0  0.72642  0.18634  0.66295  1.0000
  H   H970      1.0  0.78477  0.13361  0.66745  1.0000
  H   H971      1.0  0.76631  0.11696  0.70536  1.0000
  C   C623      1.0  0.68030  0.29782  0.54587  1.0000
  H   H972      1.0  0.69700  0.24943  0.69321  1.0000
  H   H973      1.0  0.55416  0.22476  0.68494  1.0000
  H   H974      1.0  0.77071  0.28810  0.51270  1.0000
  N   N60       1.0  0.69841  0.27802  0.71060  1.0000
  H   H975      1.0  0.66161  0.28705  0.71198  1.0000
  C   C624      1.0  0.69943  0.28241  0.73407  1.0000
  C   C625      1.0  0.69682  0.25343  0.71078  1.0000
  S   S253      1.0  0.97063  0.20724  0.74617  1.0000
  H   H976      1.0  0.68354  0.27845  0.74578  1.0000
  N   N61       1.0  0.55698  0.23328  0.71797  1.0000
  C   C626      1.0  0.53172  0.23662  0.72518  1.0000
  S   S254      1.0  0.78524  0.40149  0.74380  1.0000
  C   C627      1.0  0.75266  0.24039  0.50013  1.0000
  H   H977      1.0  0.68057  0.24843  0.72115  1.0000
  H   H978      1.0  0.87532  0.30044  0.69192  1.0000
  C   C628      1.0  0.83190  0.29010  0.69563  1.0000
  S   S255      1.0  0.63694  0.20844  0.72644  1.0000
  H   H979      1.0  0.87152  0.35080  0.73460  1.0000
  H   H980      1.0  0.68798  0.25534  0.59025  1.0000
  H   H981      1.0  0.72161  0.30236  0.69529  1.0000
  H   H982      1.0  0.79351  0.19676  0.72352  1.0000
  C   C629      1.0  0.56475  0.25572  0.70860  1.0000
  C   C630      1.0  0.71952  0.28402  0.69555  1.0000
  H   H983      1.0  0.56066  0.26787  0.72162  1.0000
  C   C631      1.0  0.82307  0.22618  0.50175  1.0000
  H   H984      1.0  0.84514  0.27854  0.68584  1.0000
  C   C632      1.0  0.56270  0.21764  0.70031  1.0000
  H   H985      1.0  0.84249  0.16779  0.68644  1.0000
  H   H986      1.0  0.84521  0.18649  0.70653  1.0000
  H   H987      1.0  0.71189  0.24512  0.55466  1.0000
  H   H988      1.0  0.78769  0.22122  0.70264  1.0000
  C   C633      1.0  0.67796  0.29218  0.70195  1.0000
  H   H989      1.0  0.80923  0.30735  0.73312  1.0000
  H   H990      1.0  0.69188  0.43047  0.74731  1.0000
  H   H991      1.0  0.81354  0.21750  0.71579  1.0000
  H   H992      1.0  0.86907  0.31998  0.71263  1.0000
  H   H993      1.0  0.69124  0.30477  0.53016  1.0000
  C   C634      1.0  0.85076  0.28105  0.72946  1.0000
  H   H994      1.0  0.81085  0.22381  0.66439  1.0000
  N   N62       1.0  0.84200  0.29983  0.71245  1.0000
  H   H995      1.0  0.83523  0.23394  0.50972  1.0000
  H   H996      1.0  0.52524  0.22015  0.73294  1.0000
  H   H997      1.0  0.82436  0.20757  0.50855  1.0000
  H   H998      1.0  0.71922  0.28126  0.67759  1.0000
  H   H999      1.0  0.67190  0.28338  0.59112  1.0000
  C   C635      1.0  0.79038  0.49933  0.73097  1.0000
  H   H1000     1.0  0.83675  0.22034  0.67735  1.0000
  C   C636      1.0  0.86122  0.31219  0.70050  1.0000
  H   H1001     1.0  0.55620  0.26393  0.69353  1.0000
  H   H1002     1.0  0.55701  0.20057  0.70691  1.0000
  H   H1003     1.0  0.66328  0.26346  0.57537  1.0000
  H   H1004     1.0  0.58378  0.25385  0.70318  1.0000
  H   H1005     1.0  0.56300  0.20647  0.74585  1.0000
  H   H1006     1.0  0.52687  0.24866  0.73823  1.0000
  C   C637      1.0  0.83266  0.17798  0.69984  1.0000
  N   N63       1.0  0.69353  0.27864  0.55919  1.0000
  H   H1007     1.0  0.58790  0.21988  0.73295  1.0000
  N   N64       1.0  0.81416  0.19498  0.69075  1.0000
  H   H1008     1.0  0.85524  0.32634  0.68738  1.0000
  C   C638      1.0  0.79777  0.18292  0.68248  1.0000
  H   H1009     1.0  0.80643  0.17278  0.66856  1.0000
  C   C639      1.0  0.82440  0.21082  0.67165  1.0000
  H   H1010     1.0  0.82549  0.16558  0.71412  1.0000
  H   H1011     1.0  0.67775  0.31072  0.70314  1.0000
  H   H1012     1.0  0.52211  0.24390  0.71057  1.0000
  H   H1013     1.0  0.78964  0.17082  0.69642  1.0000
  H   H1014     1.0  0.78356  0.19522  0.67548  1.0000
  H   H1015     1.0  0.71377  0.26588  0.52944  1.0000
  H   H1016     1.0  0.70764  0.30073  0.57717  1.0000
  H   H1017     1.0  0.70093  0.30076  0.73452  1.0000
  C   C640      1.0  0.82415  0.31599  0.72422  1.0000
  H   H1018     1.0  0.86435  0.26856  0.72126  1.0000
  C   C641      1.0  0.56886  0.22314  0.73786  1.0000
  H   H1019     1.0  0.67753  0.29045  0.68375  1.0000
  H   H1020     1.0  0.83113  0.32328  0.73734  1.0000
  H   H1021     1.0  0.66815  0.34666  0.73611  1.0000
  H   H1022     1.0  0.78741  0.49163  0.71604  1.0000
  H   H1023     1.0  0.80527  0.23414  0.50784  1.0000
  S   S256      1.0  0.91029  0.24523  0.73501  1.0000
  H   H1024     1.0  0.81745  0.33073  0.71201  1.0000
  H   H1025     1.0  0.66197  0.43072  0.74500  1.0000
  S   S257      1.0  0.73222  0.39049  0.74405  1.0000
  H   H1026     1.0  0.85847  0.28781  0.74242  1.0000
  H   H1027     1.0  0.77608  0.49573  0.74495  1.0000
  H   H1028     1.0  0.83677  0.27128  0.73879  1.0000
  C   C642      1.0  0.68987  0.14156  0.78876  1.0000
  H   H1029     1.0  0.70884  0.13605  0.78630  1.0000
  H   H1030     1.0  0.97515  0.18929  0.81465  1.0000
  Fe  Fe126     1.0  0.90196  0.23197  0.80097  1.0000
  S   S258      1.0  0.87426  0.25285  0.78212  1.0000
  S   S259      1.0  0.89763  0.22045  0.83879  1.0000
  Fe  Fe127     1.0  0.62433  0.23150  0.75342  1.0000
  N   N65       1.0  0.67123  0.24046  0.94865  1.0000
  C   C643      1.0  0.65940  0.32060  0.76409  1.0000
  C   C644      1.0  0.73798  0.47321  0.76900  1.0000
  S   S260      1.0  0.90874  0.20418  0.77845  1.0000
  S   S261      1.0  0.93014  0.25164  0.78219  1.0000
  Fe  Fe128     1.0  0.78337  0.25161  0.90264  1.0000
  S   S262      1.0  0.78861  0.21828  0.92589  1.0000
  S   S263      1.0  0.80871  0.27610  0.88775  1.0000
  Fe  Fe129     1.0  0.73473  0.24612  0.89698  1.0000
  S   S264      1.0  0.73578  0.21195  0.91898  1.0000
  S   S265      1.0  0.70462  0.26667  0.88126  1.0000
  Fe  Fe130     1.0  0.75228  0.22878  0.94232  1.0000
  Fe  Fe131     1.0  0.77170  0.20447  0.90076  1.0000
  S   S266      1.0  0.78841  0.17185  0.88695  1.0000
  S   S267      1.0  0.74879  0.26355  0.92138  1.0000
  S   S268      1.0  0.76901  0.23708  0.87644  1.0000
  H   H1031     1.0  0.96923  0.21534  0.79590  1.0000
  Fe  Fe132     1.0  0.62663  0.27810  0.76689  1.0000
  H   H1032     1.0  0.97557  0.25267  0.75536  1.0000
  Fe  Fe133     1.0  0.76806  0.06666  0.78133  1.0000
  S   S269      1.0  0.73295  0.08768  0.78576  1.0000
  Fe  Fe134     1.0  0.74869  0.10891  0.80548  1.0000
  S   S270      1.0  0.72712  0.12604  0.83412  1.0000
  S   S271      1.0  0.78245  0.08573  0.80438  1.0000
  Fe  Fe135     1.0  0.62916  0.23556  0.80205  1.0000
  S   S272      1.0  0.60699  0.27003  0.80187  1.0000
  S   S273      1.0  0.64827  0.21416  0.82943  1.0000
  H   H1033     1.0  0.98845  0.25311  0.83112  1.0000
  Fe  Fe136     1.0  0.90308  0.26993  0.76090  1.0000
  C   C645      1.0  0.99466  0.21946  0.75050  1.0000
  C   C646      1.0  0.85899  0.14857  0.75928  1.0000
  Fe  Fe137     1.0  0.58387  0.25432  0.78376  1.0000
  S   S274      1.0  0.54497  0.26354  0.78881  1.0000
  S   S275      1.0  0.65071  0.24504  0.76859  1.0000
  S   S276      1.0  0.60439  0.21913  0.78692  1.0000
  S   S277      1.0  0.75074  0.39215  0.79248  1.0000
  S   S278      1.0  0.81160  0.36308  0.79967  1.0000
  H   H1034     1.0  0.88164  0.17474  0.75156  1.0000
  H   H1035     1.0  0.99856  0.20322  0.79840  1.0000
  C   C647      1.0  0.75768  0.48577  0.79664  1.0000
  C   C648      1.0  0.75298  0.46812  0.78551  1.0000
  C   C649      1.0  0.66532  0.44617  0.78403  1.0000
  H   H1036     1.0  0.66106  0.44711  0.80270  1.0000
  H   H1037     1.0  0.68580  0.22537  0.91819  1.0000
  H   H1038     1.0  0.76924  0.48172  0.80946  1.0000
  H   H1039     1.0  0.81764  0.03810  0.80949  1.0000
  C   C650      1.0  0.68755  0.25755  0.94465  1.0000
  H   H1040     1.0  0.65668  0.22042  0.92882  1.0000
  H   H1041     1.0  0.69738  0.35967  0.75479  1.0000
  H   H1042     1.0  0.52243  0.18851  0.78296  1.0000
  C   C651      1.0  0.69216  0.33571  0.78544  1.0000
  C   C652      1.0  0.68000  0.31781  0.79660  1.0000
  C   C653      1.0  0.66381  0.31007  0.78583  1.0000
  C   C654      1.0  0.86853  0.02902  0.77452  1.0000
  H   H1043     1.0  0.95004  0.20756  0.84598  1.0000
  C   C655      1.0  0.52555  0.24461  0.78641  1.0000
  H   H1044     1.0  0.80031  0.15884  0.76643  1.0000
  C   C656      1.0  0.53248  0.22096  0.78669  1.0000
  H   H1045     1.0  0.65147  0.16711  0.80701  1.0000
  H   H1046     1.0  0.54983  0.21367  0.78974  1.0000
  C   C657      1.0  0.82292  0.18497  0.75898  1.0000
  C   C658      1.0  0.84475  0.35617  0.76297  1.0000
  H   H1047     1.0  0.69139  0.19503  0.80151  1.0000
  C   C659      1.0  0.69014  0.25196  0.86578  1.0000
  C   C660      1.0  0.69426  0.22800  0.86714  1.0000
  C   C661      1.0  0.68134  0.21652  0.85588  1.0000
  C   C662      1.0  0.66467  0.22898  0.84281  1.0000
  C   C663      1.0  0.66103  0.25297  0.84094  1.0000
  C   C664      1.0  0.67356  0.26441  0.85263  1.0000
  H   H1048     1.0  0.70712  0.21827  0.87712  1.0000
  H   H1049     1.0  0.68423  0.19796  0.85731  1.0000
  H   H1050     1.0  0.64819  0.26268  0.83092  1.0000
  H   H1051     1.0  0.67033  0.28295  0.85153  1.0000
  C   C665      1.0  0.77090  0.15917  0.87276  1.0000
  C   C666      1.0  0.74753  0.16776  0.87234  1.0000
  C   C667      1.0  0.73401  0.15735  0.86068  1.0000
  C   C668      1.0  0.74400  0.13878  0.84893  1.0000
  C   C669      1.0  0.76745  0.13049  0.84905  1.0000
  C   C670      1.0  0.78077  0.14044  0.86124  1.0000
  H   H1052     1.0  0.73982  0.18225  0.88113  1.0000
  H   H1053     1.0  0.71588  0.16379  0.86061  1.0000
  H   H1054     1.0  0.77520  0.11608  0.84019  1.0000
  H   H1055     1.0  0.79880  0.13367  0.86163  1.0000
  H   H1056     1.0  0.94507  0.23410  0.82770  1.0000
  S   S279      1.0  0.78051  0.02834  0.78587  1.0000
  H   H1057     1.0  0.76583  0.25890  0.97505  1.0000
  Fe  Fe138     1.0  0.78515  0.37650  0.77623  1.0000
  S   S280      1.0  0.73711  0.22248  0.97959  1.0000
  H   H1058     1.0  0.76092  0.45061  0.78978  1.0000
  C   C671      1.0  0.83610  0.34802  0.78540  1.0000
  C   C672      1.0  0.84701  0.32767  0.79647  1.0000
  C   C673      1.0  0.86625  0.31517  0.78492  1.0000
  H   H1059     1.0  0.84047  0.32148  0.81391  1.0000
  H   H1060     1.0  0.87461  0.29947  0.79352  1.0000
  Fe  Fe139     1.0  0.74924  0.41492  0.75898  1.0000
  Fe  Fe140     1.0  0.93524  0.22536  0.75802  1.0000
  Fe  Fe141     1.0  0.88324  0.22667  0.75785  1.0000
  C   C674      1.0  0.68006  0.22027  0.96420  1.0000
  N   N66       1.0  0.98087  0.21983  0.82702  1.0000
  H   H1061     1.0  0.64962  0.25650  0.97579  1.0000
  H   H1062     1.0  0.68322  0.30978  0.81354  1.0000
  H   H1063     1.0  0.63566  0.23843  0.96237  1.0000
  H   H1064     1.0  0.68255  0.13404  0.77601  1.0000
  C   C675      1.0  0.87395  0.23670  0.85310  1.0000
  C   C676      1.0  0.86566  0.25882  0.84344  1.0000
  C   C677      1.0  0.84598  0.27119  0.85449  1.0000
  C   C678      1.0  0.83420  0.26119  0.87488  1.0000
  C   C679      1.0  0.84253  0.23908  0.88455  1.0000
  C   C680      1.0  0.86265  0.22702  0.87390  1.0000
  H   H1065     1.0  0.87461  0.26659  0.82765  1.0000
  H   H1066     1.0  0.83973  0.28836  0.84707  1.0000
  H   H1067     1.0  0.83365  0.23138  0.90042  1.0000
  H   H1068     1.0  0.86912  0.21000  0.88155  1.0000
  H   H1069     1.0  0.64524  0.40993  0.80659  1.0000
  H   H1070     1.0  0.69723  0.21196  0.95678  1.0000
  C   C681      1.0  0.98097  0.20630  0.80823  1.0000
  C   C682      1.0  0.51692  0.20674  0.78295  1.0000
  S   S281      1.0  0.71219  0.34529  0.79924  1.0000
  N   N67       1.0  0.68455  0.16688  0.78598  1.0000
  H   H1071     1.0  0.68639  0.40988  0.80967  1.0000
  H   H1072     1.0  0.68179  0.27290  0.93264  1.0000
  H   H1073     1.0  0.70578  0.41934  0.78502  1.0000
  H   H1074     1.0  0.65076  0.16688  0.77695  1.0000
  C   C683      1.0  0.72779  0.49601  0.76367  1.0000
  H   H1075     1.0  0.68798  0.16921  0.82083  1.0000
  C   C684      1.0  0.69499  0.17594  0.80305  1.0000
  Fe  Fe142     1.0  0.79347  0.10853  0.77229  1.0000
  H   H1076     1.0  0.66816  0.20702  0.96784  1.0000
  C   C685      1.0  0.66892  0.23326  0.92661  1.0000
  C   C686      1.0  0.83394  0.02816  0.80204  1.0000
  H   H1077     1.0  0.65470  0.19259  0.78722  1.0000
  H   H1078     1.0  0.80891  0.19905  0.75903  1.0000
  C   C687      1.0  0.67639  0.42176  0.75430  1.0000
  N   N68       1.0  0.67051  0.42208  0.77924  1.0000
  H   H1079     1.0  0.68257  0.22520  0.98080  1.0000
  C   C688      1.0  0.99646  0.20696  0.84303  1.0000
  H   H1080     1.0  0.73372  0.02943  0.77486  1.0000
  H   H1081     1.0  0.65046  0.45561  0.77562  1.0000
  H   H1082     1.0  0.83073  0.22367  0.84453  1.0000
  H   H1083     1.0  0.86285  0.07366  0.78067  1.0000
  C   C689      1.0  0.65924  0.17358  0.78943  1.0000
  C   C690      1.0  0.65022  0.40996  0.78783  1.0000
  C   C691      1.0  0.81802  0.16222  0.76330  1.0000
  C   C692      1.0  0.74260  0.01205  0.77511  1.0000
  N   N69       1.0  0.76508  0.31933  0.84480  1.0000
  C   C693      1.0  0.76947  0.32191  0.81958  1.0000
  C   C694      1.0  0.78418  0.32708  0.85353  1.0000
  C   C695      1.0  0.76366  0.29496  0.85386  1.0000
  C   C696      1.0  0.74300  0.33338  0.85213  1.0000
  H   H1084     1.0  0.75561  0.31589  0.81235  1.0000
  H   H1085     1.0  0.78634  0.31212  0.81337  1.0000
  H   H1086     1.0  0.77009  0.34023  0.81235  1.0000
  H   H1087     1.0  0.78163  0.32523  0.87255  1.0000
  H   H1088     1.0  0.80107  0.31676  0.84828  1.0000
  H   H1089     1.0  0.78591  0.34539  0.84685  1.0000
  H   H1090     1.0  0.76064  0.29243  0.87289  1.0000
  H   H1091     1.0  0.78002  0.28385  0.84858  1.0000
  H   H1092     1.0  0.74923  0.28857  0.84789  1.0000
  H   H1093     1.0  0.72829  0.32788  0.84573  1.0000
  H   H1094     1.0  0.74339  0.35188  0.84539  1.0000
  H   H1095     1.0  0.73912  0.33183  0.87109  1.0000
  N   N70       1.0  0.83330  0.19301  0.82885  1.0000
  C   C697      1.0  0.84618  0.17813  0.84612  1.0000
  C   C698      1.0  0.81773  0.17974  0.82087  1.0000
  C   C699      1.0  0.84977  0.20148  0.80932  1.0000
  C   C700      1.0  0.81951  0.21276  0.83912  1.0000
  H   H1096     1.0  0.83427  0.17165  0.86129  1.0000
  H   H1097     1.0  0.85822  0.18764  0.85233  1.0000
  H   H1098     1.0  0.85665  0.16297  0.83901  1.0000
  H   H1099     1.0  0.80795  0.19038  0.80763  1.0000
  H   H1100     1.0  0.82747  0.16447  0.81331  1.0000
  H   H1101     1.0  0.80483  0.17353  0.83519  1.0000
  H   H1102     1.0  0.84068  0.21320  0.79620  1.0000
  H   H1103     1.0  0.86024  0.18708  0.80090  1.0000
  H   H1104     1.0  0.86199  0.21120  0.81491  1.0000
  H   H1105     1.0  0.80765  0.20690  0.85455  1.0000
  H   H1106     1.0  0.80883  0.22390  0.82691  1.0000
  H   H1107     1.0  0.65462  0.29610  0.79445  1.0000
  C   C701      1.0  0.69029  0.41039  0.79078  1.0000
  H   H1108     1.0  0.68990  0.26336  0.96087  1.0000
  H   H1109     1.0  0.68310  0.13376  0.80621  1.0000
  Fe  Fe143     1.0  0.73693  0.36663  0.77632  1.0000
  H   H1110     1.0  0.95636  0.23369  0.85384  1.0000
  C   C702      1.0  0.67144  0.33861  0.75300  1.0000
  H   H1111     1.0  0.86454  0.01437  0.76693  1.0000
  H   H1112     1.0  0.99702  0.21676  0.85732  1.0000
  H   H1113     1.0  0.69505  0.39233  0.78716  1.0000
  H   H1114     1.0  0.64139  0.26618  0.94783  1.0000
  H   H1115     1.0  0.68045  0.45563  0.77762  1.0000
  S   S282      1.0  0.77145  0.34935  0.76227  1.0000
  C   C703      1.0  0.68798  0.34599  0.76355  1.0000
  C   C704      1.0  0.69408  0.17639  0.76268  1.0000
  H   H1116     1.0  0.70484  0.25011  0.93693  1.0000
  S   S283      1.0  0.73162  0.45181  0.75441  1.0000
  H   H1117     1.0  0.86373  0.05591  0.80790  1.0000
  H   H1118     1.0  0.63496  0.41812  0.77934  1.0000
  S   S284      1.0  0.76101  0.13346  0.77547  1.0000
  C   C705      1.0  0.98901  0.24209  0.81756  1.0000
  C   C706      1.0  0.76549  0.00716  0.77959  1.0000
  H   H1119     1.0  0.71314  0.17145  0.75938  1.0000
  C   C707      1.0  0.95712  0.22395  0.83922  1.0000
  H   H1120     1.0  0.87970  0.02181  0.78795  1.0000
  C   C708      1.0  0.64844  0.25085  0.95915  1.0000
  H   H1121     1.0  0.97823  0.25188  0.80465  1.0000
  C   C709      1.0  0.87502  0.32339  0.76253  1.0000
  C   C710      1.0  0.86389  0.17133  0.75509  1.0000
  H   H1122     1.0  0.71406  0.17085  0.80124  1.0000
  H   H1123     1.0  0.66268  0.24815  0.91431  1.0000
  H   H1124     1.0  0.82791  0.03799  0.75777  1.0000
  H   H1125     1.0  0.81669  0.06224  0.77230  1.0000
  C   C711      1.0  0.83296  0.05199  0.76557  1.0000
  H   H1126     1.0  0.99080  0.19009  0.85057  1.0000
  Fe  Fe144     1.0  0.74709  0.11121  0.75547  1.0000
  H   H1127     1.0  0.82879  0.01365  0.79510  1.0000
  C   C712      1.0  0.99204  0.24190  0.75580  1.0000
  N   N71       1.0  0.84716  0.04280  0.78401  1.0000
  H   H1128     1.0  0.84406  0.02080  0.81624  1.0000
  C   C713      1.0  0.86454  0.34414  0.75175  1.0000
  H   H1129     1.0  0.87304  0.13451  0.75912  1.0000
  C   C714      1.0  0.83606  0.14396  0.76302  1.0000
  H   H1130     1.0  0.68656  0.16977  0.74942  1.0000
  H   H1131     1.0  0.83724  0.07293  0.80097  1.0000
  S   S285      1.0  0.83060  0.11529  0.76646  1.0000
  C   C715      1.0  0.84584  0.18955  0.75444  1.0000
  H   H1132     1.0  0.69029  0.19546  0.75993  1.0000
  H   H1133     1.0  0.83652  0.37204  0.75448  1.0000
  C   C716      1.0  0.85308  0.06209  0.79386  1.0000
  C   C717      1.0  0.76031  0.25390  0.99304  1.0000
  H   H1134     1.0  0.65387  0.39164  0.78465  1.0000
  H   H1135     1.0  0.71607  0.50007  0.75100  1.0000
  H   H1136     1.0  0.68026  0.40385  0.75003  1.0000
  S   S286      1.0  0.63970  0.31100  0.74996  1.0000
  H   H1137     1.0  0.87881  0.03961  0.76080  1.0000
  H   H1138     1.0  0.84208  0.06353  0.75181  1.0000
  H   H1139     1.0  0.56550  0.23480  0.75122  1.0000
  S   S287      1.0  0.78089  0.08846  0.74895  1.0000
  S   S288      1.0  0.60190  0.26531  0.74876  1.0000
  H   H1140     1.0  0.79408  0.70429  0.18562  1.0000
  H   H1141     1.0  0.81590  0.94249  0.20459  1.0000
  C   C718      1.0  0.81236  0.79145  0.21396  1.0000
  S   S289      1.0  0.78081  0.89135  0.23090  1.0000
  H   H1142     1.0  0.84250  0.66537  0.21060  1.0000
  C   C719      1.0  0.61080  0.69345  0.19010  1.0000
  H   H1143     1.0  0.57858  0.72339  0.21244  1.0000
  C   C720      1.0  0.81353  0.70284  0.06151  1.0000
  C   C721      1.0  0.78821  0.75728  0.00575  1.0000
  H   H1144     1.0  0.83597  0.71081  0.01934  1.0000
  H   H1145     1.0  0.64857  0.83471  0.18453  1.0000
  Fe  Fe145     1.0  0.90843  0.74147  0.21421  1.0000
  S   S290      1.0  0.90170  0.75754  0.17903  1.0000
  H   H1146     1.0  0.79877  0.77094  0.00009  1.0000
  Fe  Fe146     1.0  0.77686  0.78517  0.12952  1.0000
  S   S291      1.0  0.77491  0.75268  0.15379  1.0000
  S   S292      1.0  0.77957  0.81910  0.14038  1.0000
  Fe  Fe147     1.0  0.77921  0.76133  0.08722  1.0000
  S   S293      1.0  0.77717  0.72675  0.10810  1.0000
  S   S294      1.0  0.78781  0.76817  0.04866  1.0000
  Fe  Fe148     1.0  0.75020  0.74568  0.13182  1.0000
  S   S295      1.0  0.71979  0.72829  0.14869  1.0000
  Fe  Fe149     1.0  0.80190  0.73665  0.12829  1.0000
  S   S296      1.0  0.82958  0.71019  0.14165  1.0000
  S   S297      1.0  0.74976  0.77968  0.10926  1.0000
  S   S298      1.0  0.80639  0.76975  0.10578  1.0000
  S   S299      1.0  0.66688  0.76789  0.23768  1.0000
  N   N72       1.0  0.76608  0.68398  0.19110  1.0000
  H   H1147     1.0  0.80291  0.67387  0.18766  1.0000
  C   C722      1.0  0.86048  0.93575  0.21255  1.0000
  H   H1148     1.0  0.84399  0.83560  0.19671  1.0000
  C   C723      1.0  0.70577  0.73917  0.17368  1.0000
  C   C724      1.0  0.68804  0.72818  0.18705  1.0000
  C   C725      1.0  0.67669  0.73646  0.20715  1.0000
  C   C726      1.0  0.68277  0.75596  0.21386  1.0000
  C   C727      1.0  0.70121  0.76635  0.20101  1.0000
  C   C728      1.0  0.71256  0.75814  0.18079  1.0000
  H   H1149     1.0  0.68303  0.71323  0.18186  1.0000
  H   H1150     1.0  0.66318  0.72771  0.21737  1.0000
  H   H1151     1.0  0.70661  0.78081  0.20664  1.0000
  H   H1152     1.0  0.72634  0.76661  0.17060  1.0000
  H   H1153     1.0  0.76128  0.65998  0.22172  1.0000
  C   C729      1.0  0.85431  0.68893  0.05720  1.0000
  C   C730      1.0  0.77950  0.75268  0.02901  1.0000
  C   C731      1.0  0.76571  0.73511  0.03612  1.0000
  C   C732      1.0  0.76113  0.72196  0.02009  1.0000
  H   H1154     1.0  0.75866  0.73158  0.05394  1.0000
  H   H1155     1.0  0.75055  0.70832  0.02567  1.0000
  C   C733      1.0  0.88177  0.74416  0.16880  1.0000
  C   C734      1.0  0.87567  0.72299  0.17978  1.0000
  C   C735      1.0  0.85987  0.71241  0.17119  1.0000
  C   C736      1.0  0.84963  0.72331  0.15207  1.0000
  C   C737      1.0  0.85548  0.74466  0.14136  1.0000
  C   C738      1.0  0.87178  0.75491  0.14952  1.0000
  H   H1156     1.0  0.88329  0.71462  0.19472  1.0000
  H   H1157     1.0  0.85539  0.69590  0.17952  1.0000
  H   H1158     1.0  0.84787  0.75305  0.12646  1.0000
  H   H1159     1.0  0.87649  0.77127  0.14096  1.0000
  C   C739      1.0  0.75195  0.83380  0.21315  1.0000
  C   C740      1.0  0.74876  0.81307  0.20639  1.0000
  C   C741      1.0  0.75711  0.80826  0.18402  1.0000
  C   C742      1.0  0.76847  0.82427  0.16838  1.0000
  C   C743      1.0  0.77146  0.84498  0.17515  1.0000
  C   C744      1.0  0.76327  0.84971  0.19744  1.0000
  H   H1160     1.0  0.74011  0.80062  0.21853  1.0000
  H   H1161     1.0  0.75475  0.79223  0.17890  1.0000
  H   H1162     1.0  0.78010  0.85748  0.16304  1.0000
  H   H1163     1.0  0.76524  0.86595  0.20224  1.0000
  C   C745      1.0  0.83575  0.96881  0.22598  1.0000
  H   H1164     1.0  0.81995  0.97507  0.23733  1.0000
  C   C746      1.0  0.83359  0.80133  0.17669  1.0000
  H   H1165     1.0  0.76900  0.70192  0.15695  1.0000
  C   C747      1.0  0.87774  0.83100  0.23569  1.0000
  H   H1166     1.0  0.69451  0.82772  0.15250  1.0000
  C   C748      1.0  0.83946  0.72162  0.03171  1.0000
  H   H1167     1.0  0.67202  0.81378  0.21405  1.0000
  H   H1168     1.0  0.97555  0.74635  0.19742  1.0000
  C   C749      1.0  0.66031  0.84816  0.18111  1.0000
  C   C750      1.0  0.69337  0.82051  0.17091  1.0000
  C   C751      1.0  0.97467  0.74333  0.14132  1.0000
  H   H1169     1.0  0.82709  0.73775  0.03003  1.0000
  S   S300      1.0  0.93345  0.75675  0.22977  1.0000
  C   C752      1.0  0.81944  0.93509  0.22215  1.0000
  H   H1170     1.0  0.74338  0.65809  0.20062  1.0000
  H   H1171     1.0  0.74924  0.70213  0.21901  1.0000
  N   N73       1.0  0.58670  0.69055  0.19992  1.0000
  C   C753      1.0  0.57706  0.67738  0.18552  1.0000
  H   H1172     1.0  0.86384  0.91660  0.21399  1.0000
  H   H1173     1.0  0.94516  0.72263  0.17427  1.0000
  H   H1174     1.0  0.86914  0.79811  0.20044  1.0000
  S   S301      1.0  0.92378  0.70483  0.22295  1.0000
  H   H1175     1.0  0.85654  0.77199  0.20694  1.0000
  N   N74       1.0  0.83693  0.70966  0.05540  1.0000
  S   S302      1.0  0.84578  0.86964  0.23266  1.0000
  H   H1176     1.0  0.57706  0.68641  0.16776  1.0000
  H   H1177     1.0  0.85294  0.67970  0.07496  1.0000
  H   H1178     1.0  0.71689  0.84966  0.18441  1.0000
  H   H1179     1.0  0.83523  0.78325  0.17317  1.0000
  H   H1180     1.0  0.87219  0.69342  0.05256  1.0000
  H   H1181     1.0  0.80357  0.93977  0.23407  1.0000
  H   H1182     1.0  0.85049  0.97575  0.23072  1.0000
  H   H1183     1.0  0.84878  0.80889  0.16673  1.0000
  H   H1184     1.0  0.68246  0.80638  0.17377  1.0000
  H   H1185     1.0  0.59734  0.66088  0.22335  1.0000
  C   C754      1.0  0.74883  0.70219  0.20047  1.0000
  H   H1186     1.0  0.75188  0.71953  0.19155  1.0000
  C   C755      1.0  0.78948  0.68739  0.19450  1.0000
  H   H1187     1.0  0.80015  0.71818  0.06146  1.0000
  H   H1188     1.0  0.81321  0.83658  0.19901  1.0000
  S   S303      1.0  0.61668  0.73249  0.23538  1.0000
  C   C756      1.0  0.85372  0.79039  0.20965  1.0000
  H   H1189     1.0  0.52700  0.68377  0.24707  1.0000
  H   H1190     1.0  0.71111  0.81265  0.17408  1.0000
  H   H1191     1.0  0.70032  0.82075  0.21458  1.0000
  H   H1192     1.0  0.73099  0.69991  0.19837  1.0000
  N   N75       1.0  0.68387  0.83833  0.18589  1.0000
  H   H1193     1.0  0.66033  0.85595  0.16293  1.0000
  S   S304      1.0  0.64326  0.66777  0.23479  1.0000
  H   H1194     1.0  0.65264  0.86177  0.19202  1.0000
  H   H1195     1.0  0.55409  0.71179  0.20713  1.0000
  N   N76       1.0  0.83220  0.80250  0.20140  1.0000
  H   H1196     1.0  0.79590  0.80023  0.20815  1.0000
  H   H1197     1.0  0.61868  0.70323  0.20057  1.0000
  H   H1198     1.0  0.79094  0.68653  0.21296  1.0000
  C   C757      1.0  0.82907  0.82679  0.20540  1.0000
  H   H1199     1.0  0.61191  0.70281  0.17244  1.0000
  H   H1200     1.0  0.82212  0.91606  0.22292  1.0000
  H   H1201     1.0  0.85789  0.73047  0.06751  1.0000
  S   S305      1.0  0.80732  0.63653  0.23076  1.0000
  H   H1202     1.0  0.83334  0.97660  0.20821  1.0000
  H   H1203     1.0  0.87003  0.68290  0.22793  1.0000
  N   N77       1.0  0.97856  0.73405  0.16501  1.0000
  H   H1204     1.0  0.58727  0.66006  0.18455  1.0000
  H   H1205     1.0  0.80971  0.69216  0.04918  1.0000
  C   C758      1.0  0.76083  0.66131  0.20300  1.0000
  H   H1206     1.0  0.85709  0.72650  0.02625  1.0000
  C   C759      1.0  0.85735  0.67335  0.23877  1.0000
  C   C760      1.0  0.97246  0.75271  0.17950  1.0000
  H   H1207     1.0  0.88306  0.83566  0.21761  1.0000
  H   H1208     1.0  0.55887  0.67485  0.19248  1.0000
  H   H1209     1.0  0.62199  0.67655  0.18955  1.0000
  H   H1210     1.0  0.98539  0.75724  0.13413  1.0000
  H   H1211     1.0  0.96765  0.70161  0.16308  1.0000
  S   S306      1.0  0.98584  0.70866  0.23247  1.0000
  C   C761      1.0  0.96387  0.71580  0.17381  1.0000
  H   H1212     1.0  0.98298  0.76694  0.17322  1.0000
  C   C762      1.0  0.68286  0.82800  0.21012  1.0000
  H   H1213     1.0  0.57332  0.72379  0.18361  1.0000
  C   C763      1.0  0.69889  0.85666  0.18141  1.0000
  C   C764      1.0  0.76513  0.68503  0.16641  1.0000
  C   C765      1.0  0.58632  0.67791  0.22327  1.0000
  H   H1214     1.0  0.95390  0.76011  0.17991  1.0000
  H   H1215     1.0  0.82740  0.82827  0.22395  1.0000
  H   H1216     1.0  0.77792  0.67153  0.15877  1.0000
  H   H1217     1.0  0.68739  0.63981  0.22469  1.0000
  H   H1218     1.0  0.69263  0.87016  0.19280  1.0000
  C   C766      1.0  0.84028  0.72527  0.07124  1.0000
  H   H1219     1.0  0.96677  0.70808  0.19148  1.0000
  C   C767      1.0  0.57259  0.71336  0.20078  1.0000
  H   H1220     1.0  0.97906  0.72971  0.12989  1.0000
  C   C768      1.0  0.76536  0.99407  0.24319  1.0000
  H   H1221     1.0  0.82773  0.74131  0.06979  1.0000
  H   H1222     1.0  0.74764  0.68281  0.16313  1.0000
  H   H1223     1.0  0.77371  0.64714  0.19662  1.0000
  H   H1224     1.0  0.85203  0.67672  0.04563  1.0000
  H   H1225     1.0  0.75545  0.99668  0.22903  1.0000
  C   C769      1.0  0.84179  0.66340  0.22897  1.0000
  H   H1226     1.0  0.81788  0.81078  0.16972  1.0000
  H   H1227     1.0  0.81407  0.77310  0.21127  1.0000
  H   H1228     1.0  0.69979  0.86510  0.16338  1.0000
  H   H1229     1.0  0.95621  0.75068  0.14059  1.0000
  H   H1230     1.0  0.83777  0.71713  0.08939  1.0000
  H   H1231     1.0  0.67546  0.84087  0.22191  1.0000
  H   H1232     1.0  0.81125  0.69297  0.07894  1.0000
  H   H1233     1.0  0.74255  0.50724  0.23308  1.0000
  H   H1234     1.0  0.85335  0.79105  0.22822  1.0000
  N   N78       1.0  0.83966  0.94342  0.22815  1.0000
  H   H1235     1.0  0.87612  0.94175  0.21651  1.0000
  H   H1236     1.0  0.85854  0.94238  0.19441  1.0000
  Fe  Fe150     1.0  0.94753  0.72011  0.24057  1.0000
  H   H1237     1.0  0.90179  0.79974  0.23804  1.0000
  C   C770      1.0  0.82583  0.65032  0.24291  1.0000
  H   H1238     1.0  0.81074  0.79209  0.23267  1.0000
  H   H1239     1.0  0.59312  0.68754  0.23472  1.0000
  H   H1240     1.0  0.56853  0.67488  0.23106  1.0000
  S   S307      1.0  0.74127  0.84002  0.24095  1.0000
  S   S308      1.0  0.88155  0.74135  0.24509  1.0000
  C   C771      1.0  0.68246  0.63787  0.24303  1.0000
  H   H1241     1.0  0.76451  0.53343  0.24711  1.0000
  C   C772      1.0  0.00311  0.72436  0.16552  1.0000
  C   C773      1.0  0.86010  0.84508  0.24746  1.0000
  C   C774      1.0  0.88828  0.81063  0.24722  1.0000
  C   C775      1.0  0.88167  0.80468  0.27068  1.0000
  H   H1242     1.0  0.73160  0.83938  0.33895  1.0000
  C   C776      1.0  0.99621  0.73032  0.26655  1.0000
  C   C777      1.0  0.76917  0.73206  0.48645  1.0000
  S   S309      1.0  0.74659  0.88681  0.27972  1.0000
  C   C778      1.0  0.72068  0.81016  0.29815  1.0000
  Fe  Fe151     1.0  0.77846  0.87174  0.29573  1.0000
  S   S310      1.0  0.77528  0.86110  0.33373  1.0000
  S   S311      1.0  0.79934  0.89947  0.27803  1.0000
  S   S312      1.0  0.92451  0.71766  0.27422  1.0000
  Fe  Fe152     1.0  0.78664  0.56221  0.27921  1.0000
  H   H1243     1.0  0.76533  0.63919  0.46443  1.0000
  Fe  Fe153     1.0  0.78961  0.59952  0.30842  1.0000
  S   S313      1.0  0.76759  0.62625  0.28787  1.0000
  S   S314      1.0  0.80635  0.61123  0.33491  1.0000
  Fe  Fe154     1.0  0.74605  0.59848  0.28807  1.0000
  S   S315      1.0  0.70785  0.60304  0.29967  1.0000
  H   H1244     1.0  0.72643  0.69458  0.45957  1.0000
  C   C779      1.0  0.73285  0.79512  0.33492  1.0000
  S   S316      1.0  0.76613  0.57284  0.31168  1.0000
  S   S317      1.0  0.81239  0.58642  0.27834  1.0000
  Fe  Fe155     1.0  0.76429  0.74206  0.39103  1.0000
  S   S318      1.0  0.73612  0.76599  0.40834  1.0000
  S   S319      1.0  0.79493  0.75443  0.36768  1.0000
  Fe  Fe156     1.0  0.73772  0.70120  0.40452  1.0000
  S   S320      1.0  0.70729  0.72211  0.42217  1.0000
  S   S321      1.0  0.73359  0.66430  0.40446  1.0000
  Fe  Fe157     1.0  0.71272  0.74913  0.39224  1.0000
  S   S322      1.0  0.68658  0.76949  0.37110  1.0000
  Fe  Fe158     1.0  0.73388  0.73649  0.43681  1.0000
  S   S323      1.0  0.72487  0.73884  0.47469  1.0000
  S   S324      1.0  0.74089  0.72698  0.37317  1.0000
  S   S325      1.0  0.76420  0.71367  0.42089  1.0000
  Fe  Fe159     1.0  0.62471  0.71527  0.29904  1.0000
  S   S326      1.0  0.60025  0.69939  0.28305  1.0000
  S   S327      1.0  0.63077  0.70332  0.33540  1.0000
  Fe  Fe160     1.0  0.59033  0.73546  0.26658  1.0000
  C   C780      1.0  0.85686  0.67026  0.26254  1.0000
  H   H1245     1.0  0.69402  0.65264  0.36284  1.0000
  C   C781      1.0  0.84484  0.71343  0.34220  1.0000
  S   S328      1.0  0.61286  0.75163  0.28473  1.0000
  S   S329      1.0  0.65415  0.71033  0.27102  1.0000
  C   C782      1.0  0.70737  0.54419  0.32419  1.0000
  C   C783      1.0  0.69588  0.81875  0.33282  1.0000
  C   C784      1.0  0.53908  0.71369  0.25500  1.0000
  S   S330      1.0  0.79856  0.52423  0.27892  1.0000
  H   H1246     1.0  0.71137  0.82482  0.28773  1.0000
  C   C785      1.0  0.67055  0.75133  0.36158  1.0000
  C   C786      1.0  0.66436  0.75642  0.33953  1.0000
  C   C787      1.0  0.65213  0.74170  0.33147  1.0000
  C   C788      1.0  0.64543  0.72220  0.34566  1.0000
  C   C789      1.0  0.65143  0.71719  0.36780  1.0000
  C   C790      1.0  0.66425  0.73159  0.37566  1.0000
  H   H1247     1.0  0.66927  0.77154  0.32848  1.0000
  H   H1248     1.0  0.64792  0.74548  0.31425  1.0000
  H   H1249     1.0  0.64628  0.70212  0.37885  1.0000
  H   H1250     1.0  0.66885  0.72766  0.39276  1.0000
  C   C791      1.0  0.82511  0.64781  0.26665  1.0000
  H   H1251     1.0  0.77543  0.73368  0.46834  1.0000
  S   S331      1.0  0.89477  0.77931  0.28532  1.0000
  C   C792      1.0  0.69061  0.62123  0.28114  1.0000
  C   C793      1.0  0.66953  0.63270  0.29040  1.0000
  C   C794      1.0  0.65523  0.64720  0.27612  1.0000
  H   H1252     1.0  0.72191  0.53538  0.26862  1.0000
  N   N79       1.0  0.71359  0.53010  0.30523  1.0000
  C   C795      1.0  0.74538  0.73435  0.49393  1.0000
  H   H1253     1.0  0.66426  0.63052  0.30870  1.0000
  H   H1254     1.0  0.63910  0.65622  0.28348  1.0000
  C   C796      1.0  0.73104  0.83567  0.32135  1.0000
  H   H1255     1.0  0.70620  0.99491  0.29046  1.0000
  C   C797      1.0  0.78594  0.62627  0.35384  1.0000
  C   C798      1.0  0.79041  0.64686  0.35983  1.0000
  C   C799      1.0  0.77418  0.65893  0.37506  1.0000
  C   C800      1.0  0.75385  0.64996  0.38489  1.0000
  C   C801      1.0  0.74952  0.62926  0.37908  1.0000
  C   C802      1.0  0.76536  0.61762  0.36325  1.0000
  H   H1256     1.0  0.80632  0.65358  0.35252  1.0000
  H   H1257     1.0  0.77759  0.67492  0.37951  1.0000
  H   H1258     1.0  0.73381  0.62229  0.38669  1.0000
  H   H1259     1.0  0.76192  0.60166  0.35876  1.0000
  H   H1260     1.0  0.68095  0.64787  0.33904  1.0000
  H   H1261     1.0  0.88426  0.70579  0.31291  1.0000
  H   H1262     1.0  0.69179  0.55704  0.32172  1.0000
  H   H1263     1.0  0.69487  0.82115  0.35109  1.0000
  H   H1264     1.0  0.90003  0.57102  0.31212  1.0000
  C   C803      1.0  0.84045  0.65781  0.27639  1.0000
  C   C804      1.0  0.88260  0.72044  0.32291  1.0000
  H   H1265     1.0  0.84575  0.69796  0.33352  1.0000
  H   H1266     1.0  0.81295  0.63788  0.27766  1.0000
  H   H1267     1.0  0.83976  0.65559  0.29480  1.0000
  C   C805      1.0  0.69724  0.62398  0.25743  1.0000
  H   H1268     1.0  0.69048  0.50568  0.32043  1.0000
  C   C806      1.0  0.69433  0.51733  0.30425  1.0000
  C   C807      1.0  0.78211  0.83161  0.34322  1.0000
  C   C808      1.0  0.79502  0.81658  0.32862  1.0000
  C   C809      1.0  0.79908  0.79294  0.33624  1.0000
  C   C810      1.0  0.79025  0.78419  0.35850  1.0000
  C   C811      1.0  0.77776  0.79929  0.37321  1.0000
  C   C812      1.0  0.77370  0.82292  0.36559  1.0000
  H   H1269     1.0  0.80222  0.82316  0.31161  1.0000
  H   H1270     1.0  0.80881  0.78147  0.32472  1.0000
  H   H1271     1.0  0.77168  0.79289  0.39067  1.0000
  H   H1272     1.0  0.76394  0.83447  0.37708  1.0000
  C   C813      1.0  0.85719  0.75071  0.34019  1.0000
  C   C814      1.0  0.85330  0.83899  0.27084  1.0000
  C   C815      1.0  0.86427  0.81896  0.28249  1.0000
  H   H1273     1.0  0.83980  0.84987  0.28010  1.0000
  H   H1274     1.0  0.85908  0.81444  0.30063  1.0000
  C   C816      1.0  0.87373  0.59608  0.26614  1.0000
  C   C817      1.0  0.85950  0.59678  0.30623  1.0000
  C   C818      1.0  0.78185  0.96898  0.27406  1.0000
  H   H1275     1.0  0.78434  0.95229  0.28421  1.0000
  H   H1276     1.0  0.71249  0.79461  0.29782  1.0000
  S   S332      1.0  0.87741  0.68003  0.27573  1.0000
  Fe  Fe161     1.0  0.78930  0.61195  0.25777  1.0000
  H   H1277     1.0  0.71347  0.61505  0.25019  1.0000
  H   H1278     1.0  0.73245  0.79798  0.35298  1.0000
  H   H1279     1.0  0.84942  0.58227  0.30724  1.0000
  H   H1280     1.0  0.86443  0.74567  0.35658  1.0000
  C   C819      1.0  0.72041  0.68147  0.47365  1.0000
  H   H1281     1.0  0.75132  0.79201  0.32739  1.0000
  H   H1282     1.0  0.89325  0.73336  0.31280  1.0000
  H   H1283     1.0  0.85791  0.75164  0.29524  1.0000
  H   H1284     1.0  0.72516  0.77908  0.33549  1.0000
  H   H1285     1.0  0.55571  0.70472  0.25865  1.0000
  H   H1286     1.0  0.73771  0.66505  0.31210  1.0000
  S   S333      1.0  0.79153  0.84741  0.27004  1.0000
  H   H1287     1.0  0.77241  0.66355  0.49241  1.0000
  C   C820      1.0  0.73456  0.51363  0.30902  1.0000
  C   C821      1.0  0.79098  0.98762  0.27958  1.0000
  Fe  Fe162     1.0  0.89921  0.70605  0.25558  1.0000
  H   H1288     1.0  0.73787  0.64385  0.45391  1.0000
  N   N80       1.0  0.85826  0.73072  0.32791  1.0000
  H   H1289     1.0  0.71194  0.69093  0.48815  1.0000
  H   H1290     1.0  0.80063  0.98514  0.29391  1.0000
  C   C822      1.0  0.69374  0.68495  0.31070  1.0000
  H   H1291     1.0  0.86369  0.59696  0.32370  1.0000
  Fe  Fe163     1.0  0.90814  0.75303  0.26166  1.0000
  C   C823      1.0  0.53369  0.73714  0.25681  1.0000
  H   H1292     1.0  0.67825  0.52924  0.30131  1.0000
  H   H1293     1.0  0.83000  0.74575  0.30952  1.0000
  H   H1294     1.0  0.89034  0.71395  0.33885  1.0000
  H   H1295     1.0  0.82626  0.72050  0.34589  1.0000
  H   H1296     1.0  0.83915  0.75891  0.34438  1.0000
  H   H1297     1.0  0.74912  0.83366  0.31251  1.0000
  H   H1298     1.0  0.84959  0.72367  0.29631  1.0000
  H   H1299     1.0  0.67877  0.69799  0.31538  1.0000
  Fe  Fe164     1.0  0.62883  0.69786  0.25353  1.0000
  H   H1300     1.0  0.74982  0.52260  0.30871  1.0000
  Fe  Fe165     1.0  0.76870  0.91258  0.25964  1.0000
  H   H1301     1.0  0.85126  0.70775  0.35895  1.0000
  H   H1302     1.0  0.73305  0.55451  0.28327  1.0000
  H   H1303     1.0  0.86700  0.76415  0.32972  1.0000
  C   C824      1.0  0.84291  0.93388  0.25195  1.0000
  H   H1304     1.0  0.68599  0.83414  0.32402  1.0000
  H   H1305     1.0  0.68678  0.80382  0.33259  1.0000
  C   C825      1.0  0.84849  0.73827  0.30627  1.0000
  C   C826      1.0  0.89371  0.61385  0.28946  1.0000
  N   N81       1.0  0.72011  0.81490  0.32181  1.0000
  H   H1306     1.0  0.88319  0.63081  0.28555  1.0000
  H   H1307     1.0  0.73229  0.64724  0.33887  1.0000
  H   H1308     1.0  0.70377  0.53340  0.34096  1.0000
  H   H1309     1.0  0.84773  0.61289  0.30201  1.0000
  H   H1310     1.0  0.72154  0.55407  0.32534  1.0000
  H   H1311     1.0  0.86374  0.58194  0.26524  1.0000
  S   S334      1.0  0.76528  0.58653  0.25548  1.0000
  H   H1312     1.0  0.71823  0.63828  0.49415  1.0000
  H   H1313     1.0  0.72155  0.85109  0.31219  1.0000
  H   H1314     1.0  0.71940  0.68232  0.35827  1.0000
  C   C827      1.0  0.78307  0.50628  0.26802  1.0000
  H   H1315     1.0  0.89914  0.61347  0.30651  1.0000
  H   H1316     1.0  0.97779  0.73503  0.27087  1.0000
  H   H1317     1.0  0.68724  0.67252  0.30194  1.0000
  H   H1318     1.0  0.88531  0.55789  0.29458  1.0000
  Fe  Fe166     1.0  0.64033  0.74517  0.25497  1.0000
  H   H1319     1.0  0.70706  0.67353  0.46761  1.0000
  H   H1320     1.0  0.82756  0.93940  0.26423  1.0000
  C   C828      1.0  0.89485  0.57259  0.29477  1.0000
  H   H1321     1.0  0.73873  0.80731  0.28929  1.0000
  H   H1322     1.0  0.72522  0.69971  0.33118  1.0000
  H   H1323     1.0  0.88908  0.59491  0.25275  1.0000
  H   H1324     1.0  0.70634  0.69398  0.29807  1.0000
  H   H1325     1.0  0.69724  0.70365  0.34783  1.0000
  N   N82       1.0  0.88046  0.59482  0.28914  1.0000
  H   H1326     1.0  0.71895  0.64341  0.31509  1.0000
  H   H1327     1.0  0.91090  0.57056  0.28229  1.0000
  H   H1328     1.0  0.67127  0.67333  0.35237  1.0000
  N   N83       1.0  0.70415  0.67333  0.33107  1.0000
  C   C829      1.0  0.72416  0.65653  0.32394  1.0000
  C   C830      1.0  0.71187  0.69050  0.34256  1.0000
  C   C831      1.0  0.68686  0.66123  0.34705  1.0000
  C   C832      1.0  0.66148  0.64957  0.25241  1.0000
  H   H1329     1.0  0.80325  0.72638  0.49666  1.0000
  S   S335      1.0  0.55381  0.75261  0.26404  1.0000
  H   H1330     1.0  0.70296  0.55863  0.28051  1.0000
  H   H1331     1.0  0.86266  0.61257  0.26142  1.0000
  C   C833      1.0  0.76876  0.97227  0.25598  1.0000
  C   C834      1.0  0.76711  0.51518  0.25288  1.0000
  S   S336      1.0  0.75551  0.95003  0.24939  1.0000
  H   H1332     1.0  0.76379  0.68904  0.47362  1.0000
  N   N84       1.0  0.73993  0.66425  0.48015  1.0000
  C   C835      1.0  0.51180  0.74858  0.25284  1.0000
  H   H1333     1.0  0.50757  0.76673  0.25427  1.0000
  C   C836      1.0  0.71806  0.54528  0.28343  1.0000
  Fe  Fe167     1.0  0.76139  0.86438  0.25252  1.0000
  H   H1334     1.0  0.75725  0.66480  0.44562  1.0000
  H   H1335     1.0  0.69855  0.50648  0.29010  1.0000
  H   H1336     1.0  0.90949  0.61324  0.27654  1.0000
  Fe  Fe168     1.0  0.80974  0.87628  0.25090  1.0000
  H   H1337     1.0  0.72040  0.99714  0.31436  1.0000
  C   C837      1.0  0.75060  0.65245  0.46024  1.0000
  H   H1338     1.0  0.85814  0.93963  0.25705  1.0000
  H   H1339     1.0  0.73614  0.99848  0.28616  1.0000
  C   C838      1.0  0.75727  0.67589  0.48750  1.0000
  H   H1340     1.0  0.84567  0.91470  0.25421  1.0000
  C   C839      1.0  0.52285  0.70191  0.24852  1.0000
  H   H1341     1.0  0.73218  0.50252  0.32576  1.0000
  H   H1342     1.0  0.73909  0.50202  0.29557  1.0000
  H   H1343     1.0  0.89606  0.70575  0.57010  1.0000
  H   H1344     1.0  0.80922  0.78013  0.72916  1.0000
  H   H1345     1.0  0.71641  0.71089  0.68117  1.0000
  C   C840      1.0  0.81092  0.52840  0.70709  1.0000
  C   C841      1.0  0.70750  0.69663  0.67834  1.0000
  C   C842      1.0  0.85078  0.70241  0.57668  1.0000
  H   H1346     1.0  0.72950  0.66020  0.70261  1.0000
  H   H1347     1.0  0.84932  0.69602  0.56048  1.0000
  H   H1348     1.0  0.83303  0.70536  0.58589  1.0000
  H   H1349     1.0  0.51238  0.70857  0.67879  1.0000
  S   S337      1.0  0.79495  0.59596  0.71295  1.0000
  H   H1350     1.0  0.67589  0.69070  0.73105  1.0000
  Fe  Fe169     1.0  0.62475  0.75385  0.71745  1.0000
  S   S338      1.0  0.63890  0.74607  0.68193  1.0000
  C   C843      1.0  0.80174  0.79792  0.72282  1.0000
  N   N85       1.0  0.81110  0.66334  0.72050  1.0000
  Fe  Fe170     1.0  0.76021  0.73420  0.62740  1.0000
  S   S339      1.0  0.74675  0.71692  0.60231  1.0000
  S   S340      1.0  0.74176  0.76312  0.64615  1.0000
  Fe  Fe171     1.0  0.80511  0.70165  0.62728  1.0000
  S   S341      1.0  0.79554  0.68116  0.60258  1.0000
  S   S342      1.0  0.83913  0.69176  0.64100  1.0000
  Fe  Fe172     1.0  0.78309  0.71535  0.58360  1.0000
  S   S343      1.0  0.79696  0.72098  0.54587  1.0000
  Fe  Fe173     1.0  0.76050  0.68443  0.62327  1.0000
  S   S344      1.0  0.74065  0.65493  0.63669  1.0000
  S   S345      1.0  0.79524  0.73574  0.60704  1.0000
  S   S346      1.0  0.77117  0.70179  0.64977  1.0000
  C   C844      1.0  0.77690  0.72600  0.52608  1.0000
  C   C845      1.0  0.75313  0.72813  0.53347  1.0000
  C   C846      1.0  0.73746  0.73237  0.51745  1.0000
  H   H1351     1.0  0.51118  0.74766  0.70710  1.0000
  H   H1352     1.0  0.78823  0.67625  0.69544  1.0000
  H   H1353     1.0  0.74677  0.72677  0.55152  1.0000
  H   H1354     1.0  0.71908  0.73417  0.52335  1.0000
  C   C847      1.0  0.66730  0.75147  0.67198  1.0000
  C   C848      1.0  0.68039  0.75929  0.68598  1.0000
  C   C849      1.0  0.70318  0.76317  0.67784  1.0000
  C   C850      1.0  0.71305  0.75892  0.65578  1.0000
  C   C851      1.0  0.70004  0.75105  0.64178  1.0000
  C   C852      1.0  0.67709  0.74758  0.64979  1.0000
  H   H1355     1.0  0.67302  0.76241  0.70302  1.0000
  H   H1356     1.0  0.71336  0.76902  0.68876  1.0000
  H   H1357     1.0  0.70754  0.74795  0.62463  1.0000
  H   H1358     1.0  0.66702  0.74158  0.63885  1.0000
  H   H1359     1.0  0.78171  0.84085  0.72857  1.0000
  C   C853      1.0  0.78023  0.61029  0.69057  1.0000
  C   C854      1.0  0.75634  0.61061  0.69208  1.0000
  C   C855      1.0  0.74436  0.62335  0.67481  1.0000
  C   C856      1.0  0.75607  0.63669  0.65664  1.0000
  C   C857      1.0  0.77995  0.63637  0.65520  1.0000
  C   C858      1.0  0.79211  0.62277  0.67187  1.0000
  H   H1360     1.0  0.74703  0.60101  0.70648  1.0000
  H   H1361     1.0  0.72596  0.62329  0.67585  1.0000
  H   H1362     1.0  0.78913  0.64647  0.64113  1.0000
  H   H1363     1.0  0.81060  0.62248  0.67052  1.0000
  C   C859      1.0  0.86266  0.73163  0.59441  1.0000
  C   C860      1.0  0.85024  0.73738  0.69216  1.0000
  C   C861      1.0  0.86555  0.71734  0.68880  1.0000
  C   C862      1.0  0.86211  0.70341  0.67298  1.0000
  C   C863      1.0  0.84325  0.70935  0.66068  1.0000
  C   C864      1.0  0.82775  0.72918  0.66432  1.0000
  C   C865      1.0  0.83132  0.74320  0.67993  1.0000
  H   H1364     1.0  0.88022  0.71278  0.69812  1.0000
  H   H1365     1.0  0.87414  0.68806  0.67023  1.0000
  H   H1366     1.0  0.81307  0.73384  0.65501  1.0000
  H   H1367     1.0  0.81940  0.75866  0.68247  1.0000
  C   C866      1.0  0.78488  0.72793  0.50251  1.0000
  H   H1368     1.0  0.69643  0.65440  0.68381  1.0000
  N   N86       1.0  0.65786  0.82930  0.68402  1.0000
  C   C867      1.0  0.66995  0.84657  0.66809  1.0000
  C   C868      1.0  0.65098  0.81289  0.67097  1.0000
  C   C869      1.0  0.63708  0.84094  0.69698  1.0000
  C   C870      1.0  0.67350  0.81680  0.70012  1.0000
  H   H1369     1.0  0.67533  0.85921  0.67745  1.0000
  H   H1370     1.0  0.65870  0.85631  0.65560  1.0000
  H   H1371     1.0  0.68582  0.83830  0.65818  1.0000
  H   H1372     1.0  0.64219  0.79933  0.68252  1.0000
  H   H1373     1.0  0.63884  0.82163  0.65891  1.0000
  H   H1374     1.0  0.66624  0.80397  0.66078  1.0000
  H   H1375     1.0  0.64170  0.85270  0.70786  1.0000
  H   H1376     1.0  0.62728  0.82832  0.70876  1.0000
  H   H1377     1.0  0.62508  0.85114  0.68546  1.0000
  H   H1378     1.0  0.66489  0.80367  0.71245  1.0000
  H   H1379     1.0  0.67899  0.82866  0.71030  1.0000
  H   H1380     1.0  0.68944  0.80787  0.69101  1.0000
  N   N87       1.0  0.79137  0.52429  0.72526  1.0000
  S   S347      1.0  0.85414  0.75570  0.71130  1.0000
  C   C871      1.0  0.84749  0.74167  0.55835  1.0000
  N   N88       1.0  0.86151  0.72377  0.57236  1.0000
  C   C872      1.0  0.76956  0.53582  0.71717  1.0000
  C   C873      1.0  0.80085  0.83852  0.72390  1.0000
  C   C874      1.0  0.82881  0.65224  0.70379  1.0000
  C   C875      1.0  0.71745  0.67249  0.71268  1.0000
  H   H1381     1.0  0.78333  0.64890  0.71136  1.0000
  H   H1382     1.0  0.71095  0.66253  0.72919  1.0000
  H   H1383     1.0  0.88481  0.71325  0.54330  1.0000
  C   C876      1.0  0.88510  0.71925  0.55999  1.0000
  H   H1384     1.0  0.72752  0.68533  0.71658  1.0000
  H   H1385     1.0  0.85503  0.75806  0.55458  1.0000
  H   H1386     1.0  0.82954  0.74548  0.56713  1.0000
  C   C877      1.0  0.68251  0.69969  0.71412  1.0000
  H   H1387     1.0  0.84639  0.65055  0.70879  1.0000
  H   H1388     1.0  0.64544  0.65148  0.74282  1.0000
  H   H1389     1.0  0.76970  0.55473  0.71282  1.0000
  H   H1390     1.0  0.74570  0.63408  0.50456  1.0000
  S   S348      1.0  0.91023  0.71539  0.73565  1.0000
  H   H1391     1.0  0.82769  0.52017  0.71269  1.0000
  H   H1392     1.0  0.78259  0.79937  0.72737  1.0000
  H   H1393     1.0  0.80752  0.85195  0.73119  1.0000
  H   H1394     1.0  0.82927  0.66233  0.68641  1.0000
  H   H1395     1.0  0.72017  0.68533  0.66778  1.0000
  S   S349      1.0  0.60255  0.78733  0.72234  1.0000
  H   H1396     1.0  0.86060  0.68851  0.58748  1.0000
  C   C878      1.0  0.50876  0.75183  0.68875  1.0000
  H   H1397     1.0  0.67009  0.67394  0.68666  1.0000
  C   C879      1.0  0.81678  0.68625  0.72244  1.0000
  H   H1398     1.0  0.69352  0.70418  0.66790  1.0000
  H   H1399     1.0  0.89374  0.73502  0.55644  1.0000
  H   H1400     1.0  0.87281  0.71835  0.60555  1.0000
  H   H1401     1.0  0.81680  0.69769  0.70584  1.0000
  H   H1402     1.0  0.69136  0.71383  0.71732  1.0000
  H   H1403     1.0  0.67901  0.65517  0.71122  1.0000
  H   H1404     1.0  0.75442  0.53304  0.73045  1.0000
  S   S350      1.0  0.96922  0.73817  0.72902  1.0000
  H   H1405     1.0  0.66727  0.70774  0.70555  1.0000
  C   C880      1.0  0.68534  0.66603  0.69526  1.0000
  Fe  Fe174     1.0  0.93152  0.74034  0.74425  1.0000
  Fe  Fe175     1.0  0.88164  0.74515  0.73464  1.0000
  H   H1406     1.0  0.87068  0.74770  0.59192  1.0000
  H   H1407     1.0  0.80571  0.80003  0.70384  1.0000
  H   H1408     1.0  0.84516  0.73509  0.60428  1.0000
  H   H1409     1.0  0.84588  0.73608  0.54178  1.0000
  S   S351      1.0  0.59976  0.73243  0.73987  1.0000
  C   C881      1.0  0.79460  0.53371  0.74583  1.0000
  N   N89       1.0  0.69820  0.68372  0.70012  1.0000
  H   H1410     1.0  0.74978  0.68501  0.50249  1.0000
  H   H1411     1.0  0.80642  0.63145  0.74215  1.0000
  N   N90       1.0  0.81130  0.81517  0.73257  1.0000
  H   H1412     1.0  0.83421  0.68508  0.72769  1.0000
  C   C882      1.0  0.83663  0.81288  0.72593  1.0000
  H   H1413     1.0  0.76657  0.52920  0.70162  1.0000
  H   H1414     1.0  0.84144  0.81371  0.70708  1.0000
  H   H1415     1.0  0.80468  0.84208  0.70497  1.0000
  H   H1416     1.0  0.72320  0.65580  0.51437  1.0000
  H   H1417     1.0  0.81195  0.54716  0.70236  1.0000
  H   H1418     1.0  0.80911  0.52145  0.69131  1.0000
  H   H1419     1.0  0.84533  0.79621  0.73378  1.0000
  H   H1420     1.0  0.84411  0.82676  0.73150  1.0000
  H   H1421     1.0  0.52561  0.74647  0.67848  1.0000
  Fe  Fe176     1.0  0.76985  0.59607  0.74513  1.0000
  S   S352      1.0  0.64633  0.75501  0.74477  1.0000
  Fe  Fe177     1.0  0.57924  0.76612  0.74736  1.0000
  S   S353      1.0  0.90393  0.77081  0.73988  1.0000
  C   C883      1.0  0.78825  0.66592  0.71266  1.0000
  H   H1422     1.0  0.80407  0.69492  0.73530  1.0000
  H   H1423     1.0  0.77449  0.67449  0.72471  1.0000
  H   H1424     1.0  0.82531  0.63469  0.70235  1.0000
  H   H1425     1.0  0.54955  0.72603  0.74748  1.0000
  C   C884      1.0  0.81051  0.64894  0.74305  1.0000
  H   H1426     1.0  0.79608  0.55237  0.74203  1.0000
  C   C885      1.0  0.73139  0.64731  0.49915  1.0000
  C   C886      1.0  0.98886  0.74455  0.74566  1.0000
  H   H1427     1.0  0.97982  0.68693  0.74250  1.0000
  H   H1428     1.0  0.86942  0.85155  0.74699  1.0000
  H   H1429     1.0  0.50477  0.77086  0.68514  1.0000
  Fe  Fe178     1.0  0.89834  0.71016  0.77341  1.0000
  S   S354      1.0  0.92167  0.73268  0.78210  1.0000
  S   S355      1.0  0.89854  0.67503  0.79363  1.0000
  H   H1430     1.0  0.96277  0.75973  0.77039  1.0000
  S   S356      1.0  0.76996  0.90448  0.80082  1.0000
  C   C887      1.0  0.80167  0.60319  0.87508  1.0000
  C   C888      1.0  0.81477  0.63975  0.86052  1.0000
  S   S357      1.0  0.72229  0.88506  0.79344  1.0000
  H   H1431     1.0  0.79457  0.98065  0.78306  1.0000
  H   H1432     1.0  0.77451  0.94970  0.77542  1.0000
  C   C889      1.0  0.74239  0.97162  0.77162  1.0000
  Fe  Fe179     1.0  0.74980  0.87563  0.81620  1.0000
  S   S358      1.0  0.73845  0.86619  0.85354  1.0000
  Fe  Fe180     1.0  0.74397  0.91256  0.77620  1.0000
  S   S359      1.0  0.77119  0.85030  0.79482  1.0000
  C   C890      1.0  0.99698  0.75868  0.77914  1.0000
  Fe  Fe181     1.0  0.77721  0.71737  0.93958  1.0000
  S   S360      1.0  0.75979  0.74529  0.91552  1.0000
  Fe  Fe182     1.0  0.81349  0.70037  0.90131  1.0000
  S   S361      1.0  0.79932  0.72696  0.87456  1.0000
  S   S362      1.0  0.84376  0.67321  0.89377  1.0000
  Fe  Fe183     1.0  0.79609  0.75095  0.90059  1.0000
  S   S363      1.0  0.81104  0.78365  0.88750  1.0000
  Fe  Fe184     1.0  0.76471  0.71858  0.89159  1.0000
  S   S364      1.0  0.73843  0.71318  0.87001  1.0000
  S   S365      1.0  0.81323  0.72495  0.92625  1.0000
  S   S366      1.0  0.77896  0.69010  0.91683  1.0000
  Fe  Fe185     1.0  0.76034  0.61629  0.78983  1.0000
  S   S367      1.0  0.72876  0.59856  0.80247  1.0000
  S   S368      1.0  0.78038  0.63841  0.80471  1.0000
  Fe  Fe186     1.0  0.78854  0.88013  0.77669  1.0000
  H   H1433     1.0  0.79601  0.60206  0.85839  1.0000
  Fe  Fe187     1.0  0.72076  0.60925  0.76635  1.0000
  Fe  Fe188     1.0  0.74522  0.86176  0.77058  1.0000
  Fe  Fe189     1.0  0.74979  0.56752  0.78809  1.0000
  S   S369      1.0  0.75449  0.53049  0.80487  1.0000
  C   C891      1.0  0.95803  0.66889  0.79737  1.0000
  S   S370      1.0  0.78204  0.58433  0.77889  1.0000
  N   N91       1.0  0.97649  0.67484  0.77860  1.0000
  H   H1434     1.0  0.83335  0.63276  0.86054  1.0000
  H   H1435     1.0  0.69345  0.97351  0.84807  1.0000
  S   S371      1.0  0.62909  0.70884  0.79572  1.0000
  H   H1436     1.0  0.83911  0.81146  0.82219  1.0000
  S   S372      1.0  0.59702  0.76901  0.77706  1.0000
  H   H1437     1.0  0.74578  0.91510  0.84797  1.0000
  H   H1438     1.0  0.55709  0.69865  0.78631  1.0000
  C   C892      1.0  0.80757  0.62824  0.90124  1.0000
  H   H1439     1.0  0.81978  0.59443  0.87468  1.0000
  C   C893      1.0  0.67087  0.64649  0.76588  1.0000
  C   C894      1.0  0.69112  0.84640  0.76116  1.0000
  C   C895      1.0  0.96647  0.68200  0.75706  1.0000
  C   C896      1.0  0.64512  0.68483  0.78429  1.0000
  C   C897      1.0  0.66470  0.67333  0.79369  1.0000
  C   C898      1.0  0.67780  0.65436  0.78425  1.0000
  H   H1440     1.0  0.79704  0.61878  0.91565  1.0000
  H   H1441     1.0  0.52847  0.73165  0.79852  1.0000
  H   H1442     1.0  0.66994  0.67931  0.80803  1.0000
  H   H1443     1.0  0.69311  0.64573  0.79132  1.0000
  C   C899      1.0  0.74923  0.69402  0.84982  1.0000
  C   C900      1.0  0.77257  0.69176  0.84059  1.0000
  C   C901      1.0  0.78140  0.67569  0.82548  1.0000
  C   C902      1.0  0.76718  0.66124  0.81992  1.0000
  C   C903      1.0  0.74359  0.66400  0.82838  1.0000
  C   C904      1.0  0.73460  0.68055  0.84318  1.0000
  H   H1444     1.0  0.78393  0.70229  0.84510  1.0000
  H   H1445     1.0  0.79957  0.67399  0.81863  1.0000
  H   H1446     1.0  0.73244  0.65296  0.82413  1.0000
  H   H1447     1.0  0.71645  0.68235  0.85009  1.0000
  H   H1448     1.0  0.76905  0.63722  0.86321  1.0000
  H   H1449     1.0  0.79032  0.74795  0.97186  1.0000
  S   S373      1.0  0.76453  0.70914  0.97735  1.0000
  H   H1450     1.0  0.82604  0.62082  0.90143  1.0000
  S   S374      1.0  0.87989  0.78375  0.80415  1.0000
  H   H1451     1.0  0.80604  0.64627  0.90482  1.0000
  C   C905      1.0  0.70957  0.93634  0.82706  1.0000
  H   H1452     1.0  0.72450  0.53107  0.77054  1.0000
  N   N92       1.0  0.79991  0.62737  0.87907  1.0000
  Fe  Fe190     1.0  0.89233  0.76082  0.77715  1.0000
  H   H1453     1.0  0.71329  0.99810  0.76797  1.0000
  C   C906      1.0  0.51597  0.71481  0.75139  1.0000
  C   C907      1.0  0.75877  0.84424  0.86440  1.0000
  C   C908      1.0  0.75159  0.82707  0.88168  1.0000
  C   C909      1.0  0.76755  0.80830  0.88888  1.0000
  C   C910      1.0  0.79081  0.80714  0.87933  1.0000
  C   C911      1.0  0.79808  0.82475  0.86264  1.0000
  C   C912      1.0  0.78202  0.84307  0.85488  1.0000
  H   H1454     1.0  0.73362  0.82802  0.88915  1.0000
  H   H1455     1.0  0.76193  0.79499  0.90211  1.0000
  H   H1456     1.0  0.81610  0.82410  0.85550  1.0000
  H   H1457     1.0  0.78767  0.85641  0.84166  1.0000
  C   C913      1.0  0.74765  0.50861  0.79114  1.0000
  C   C914      1.0  0.73196  0.92553  0.85839  1.0000
  H   H1458     1.0  0.77373  0.65681  0.88149  1.0000
  C   C915      1.0  0.77682  0.98455  0.77978  1.0000
  C   C916      1.0  0.76542  0.96692  0.77559  1.0000
  H   H1459     1.0  0.71003  0.96557  0.87148  1.0000
  S   S375      1.0  0.72706  0.94931  0.76843  1.0000
  C   C917      1.0  0.88291  0.67501  0.82123  1.0000
  C   C918      1.0  0.86696  0.69391  0.82714  1.0000
  C   C919      1.0  0.85464  0.69349  0.84930  1.0000
  C   C920      1.0  0.85857  0.67436  0.86574  1.0000
  C   C921      1.0  0.87466  0.65557  0.85986  1.0000
  C   C922      1.0  0.88661  0.65579  0.83762  1.0000
  H   H1460     1.0  0.86388  0.70875  0.81459  1.0000
  H   H1461     1.0  0.84232  0.70805  0.85359  1.0000
  H   H1462     1.0  0.87782  0.64072  0.87249  1.0000
  H   H1463     1.0  0.89888  0.64111  0.83317  1.0000
  C   C923      1.0  0.86576  0.81028  0.79320  1.0000
  H   H1464     1.0  0.58031  0.71529  0.78442  1.0000
  H   H1465     1.0  0.99481  0.68927  0.80013  1.0000
  C   C924      1.0  0.98718  0.69390  0.78391  1.0000
  C   C925      1.0  0.83376  0.84109  0.79687  1.0000
  C   C926      1.0  0.84568  0.82019  0.80578  1.0000
  H   H1466     1.0  0.58122  0.68811  0.80189  1.0000
  S   S376      1.0  0.82624  0.87694  0.76292  1.0000
  H   H1467     1.0  0.81812  0.84857  0.80652  1.0000
  H   H1468     1.0  0.74014  0.93139  0.87159  1.0000
  S   S377      1.0  0.73933  0.57700  0.75314  1.0000
  S   S378      1.0  0.54041  0.77516  0.75050  1.0000
  H   H1469     1.0  0.79714  0.65663  0.75608  1.0000
  C   C927      1.0  0.86277  0.84279  0.76339  1.0000
  N   N93       1.0  0.87760  0.75178  0.86898  1.0000
  C   C928      1.0  0.88549  0.74052  0.84819  1.0000
  C   C929      1.0  0.89700  0.74983  0.88226  1.0000
  C   C930      1.0  0.85866  0.74045  0.88304  1.0000
  C   C931      1.0  0.86914  0.77632  0.86245  1.0000
  H   H1470     1.0  0.89997  0.74847  0.83724  1.0000
  H   H1471     1.0  0.87134  0.74219  0.83753  1.0000
  H   H1472     1.0  0.89148  0.72186  0.85245  1.0000
  H   H1473     1.0  0.91158  0.75823  0.87206  1.0000
  H   H1474     1.0  0.89154  0.75822  0.89803  1.0000
  H   H1475     1.0  0.90367  0.73151  0.88755  1.0000
  H   H1476     1.0  0.84363  0.74219  0.87357  1.0000
  H   H1477     1.0  0.85233  0.74846  0.89893  1.0000
  H   H1478     1.0  0.86406  0.72176  0.88801  1.0000
  H   H1479     1.0  0.86253  0.78527  0.87771  1.0000
  H   H1480     1.0  0.85460  0.77841  0.85219  1.0000
  H   H1481     1.0  0.88294  0.78558  0.85188  1.0000
  C   C932      1.0  0.84218  0.85225  0.77554  1.0000
  H   H1482     1.0  0.74612  0.96706  0.84412  1.0000
  H   H1483     1.0  0.70079  0.95059  0.81574  1.0000
  H   H1484     1.0  0.00123  0.69880  0.77013  1.0000
  S   S379      1.0  0.86796  0.73763  0.77179  1.0000
  C   C933      1.0  0.57434  0.72189  0.82825  1.0000
  H   H1485     1.0  0.79061  0.59330  0.88867  1.0000
  C   C934      1.0  0.78351  0.74425  0.98973  1.0000
  H   H1486     1.0  0.68915  0.94796  0.86779  1.0000
  H   H1487     1.0  0.98674  0.63989  0.77204  1.0000
  H   H1488     1.0  0.81030  0.63834  0.84344  1.0000
  S   S380      1.0  0.68708  0.62324  0.75329  1.0000
  C   C935      1.0  0.65099  0.65769  0.75686  1.0000
  H   H1489     1.0  0.55195  0.74813  0.79504  1.0000
  H   H1490     1.0  0.69665  0.92484  0.83541  1.0000
  H   H1491     1.0  0.75155  0.95012  0.82099  1.0000
  H   H1492     1.0  0.81301  0.65835  0.86230  1.0000
  C   C936      1.0  0.73768  0.95989  0.83196  1.0000
  N   N94       1.0  0.72042  0.94510  0.84400  1.0000
  N   N95       1.0  0.55720  0.71527  0.81584  1.0000
  H   H1493     1.0  0.53011  0.69393  0.82243  1.0000
  C   C937      1.0  0.54311  0.69934  0.83136  1.0000
  C   C938      1.0  0.77564  0.63828  0.87938  1.0000
  C   C939      1.0  0.56940  0.70377  0.79626  1.0000
  H   H1494     1.0  0.76403  0.62988  0.89363  1.0000
  C   C940      1.0  0.70246  0.95864  0.85851  1.0000
  H   H1495     1.0  0.58508  0.73412  0.81707  1.0000
  C   C941      1.0  0.54201  0.73605  0.80744  1.0000
  H   H1496     1.0  0.71959  0.91364  0.86732  1.0000
  Fe  Fe191     1.0  0.61931  0.73677  0.76782  1.0000
  C   C942      1.0  0.63835  0.67707  0.76579  1.0000
  H   H1497     1.0  0.72268  0.92627  0.81572  1.0000
  H   H1498     1.0  0.99081  0.76663  0.79448  1.0000
  C   C943      1.0  0.70846  0.82782  0.75811  1.0000
  C   C944      1.0  0.87434  0.82157  0.77201  1.0000
  N   N96       1.0  0.74506  0.78107  0.83312  1.0000
  C   C945      1.0  0.73403  0.77829  0.85720  1.0000
  C   C946      1.0  0.72887  0.79588  0.81879  1.0000
  C   C947      1.0  0.75109  0.75826  0.82517  1.0000
  C   C948      1.0  0.76626  0.79184  0.83141  1.0000
  H   H1499     1.0  0.72892  0.79517  0.86373  1.0000
  H   H1500     1.0  0.74592  0.76748  0.86851  1.0000
  H   H1501     1.0  0.71827  0.76968  0.85926  1.0000
  H   H1502     1.0  0.71262  0.78834  0.81967  1.0000
  H   H1503     1.0  0.72403  0.81328  0.82432  1.0000
  H   H1504     1.0  0.73661  0.79840  0.80049  1.0000
  H   H1505     1.0  0.73553  0.74938  0.82680  1.0000
  H   H1506     1.0  0.76346  0.74679  0.83552  1.0000
  H   H1507     1.0  0.75908  0.75962  0.80696  1.0000
  H   H1508     1.0  0.77537  0.79373  0.81360  1.0000
  H   H1509     1.0  0.77859  0.78159  0.84264  1.0000
  H   H1510     1.0  0.76217  0.80931  0.83671  1.0000
  H   H1511     1.0  0.72967  0.97462  0.82058  1.0000
  H   H1512     1.0  0.58658  0.70670  0.83420  1.0000
  C   C949      1.0  0.52218  0.75408  0.75212  1.0000
  H   H1513     1.0  0.77979  0.53167  0.75962  1.0000
  H   H1514     1.0  0.53306  0.74563  0.82164  1.0000
  C   C950      1.0  0.98106  0.75476  0.76553  1.0000
  H   H1515     1.0  0.81045  0.52492  0.75294  1.0000
  H   H1516     1.0  0.65460  0.85839  0.76307  1.0000
  H   H1517     1.0  0.81250  0.82443  0.76556  1.0000
  S   S381      1.0  0.75057  0.62925  0.75497  1.0000
  S   S382      1.0  0.73777  0.83094  0.75653  1.0000
  C   C951      1.0  0.73107  0.99428  0.77119  1.0000
  H   H1518     1.0  0.71583  0.79206  0.75333  1.0000
  H   H1519     1.0  0.89008  0.81416  0.76244  1.0000
  H   H1520     1.0  0.56589  0.73029  0.84339  1.0000
  H   H1521     1.0  0.95305  0.69723  0.75841  1.0000
  H   H1522     1.0  0.94909  0.65500  0.79367  1.0000
  H   H1523     1.0  0.55410  0.68351  0.83803  1.0000
  C   C952      1.0  0.53108  0.73114  0.75016  1.0000
  H   H1524     1.0  0.96492  0.66303  0.81386  1.0000
  H   H1525     1.0  0.97428  0.70953  0.78568  1.0000
  H   H1526     1.0  0.53356  0.70750  0.84630  1.0000
  Fe  Fe192     1.0  0.62237  0.78714  0.75143  1.0000
  H   H1527     1.0  0.62311  0.68570  0.75864  1.0000
  H   H1528     1.0  0.94451  0.68392  0.79994  1.0000
  C   C953      1.0  0.99426  0.65461  0.77601  1.0000
  H   H1529     1.0  0.69559  0.86292  0.76296  1.0000
  C   C954      1.0  0.66190  0.82257  0.75856  1.0000
  C   C955      1.0  0.70247  0.80650  0.75567  1.0000
  H   H1530     1.0  0.95809  0.66815  0.75251  1.0000
  S   S383      1.0  0.63288  0.82067  0.75660  1.0000
  C   C956      1.0  0.66792  0.84381  0.76120  1.0000
  C   C957      1.0  0.73267  0.51365  0.77460  1.0000
  H   H1531     1.0  0.81409  0.79418  0.76497  1.0000
  C   C958      1.0  0.80596  0.81139  0.75774  1.0000
  H   H1532     1.0  0.78698  0.81267  0.76330  1.0000
  C   C959      1.0  0.67921  0.80380  0.75618  1.0000
  H   H1533     1.0  0.67476  0.78733  0.75430  1.0000
  S   S384      1.0  0.76408  0.89013  0.75070  1.0000
  C   C960      1.0  0.77005  0.72644  0.99686  1.0000
  H   H1534     1.0  0.82740  0.64676  0.74964  1.0000
  H   H1535     1.0  0.00231  0.64881  0.79191  1.0000
  H   H1536     1.0  0.52291  0.69711  0.74965  1.0000
