data_image0
_chemical_formula_structural       FeS2FeSFeSFeS4CHSHSFeS2HSFeCFeS3FeSFeS2FeSFeS3CH2C6H4CHCNC7H8C6H4C6H4CH3C2H3NCHC2H4CH11NHNH4CH9CH3CH4CH4C2H3CH4CNHCH2C3HNC2SHFeHCHCH2C2H5CH3C2H3C3HC2HCNH4SFeS2HFeHFeS2FeS2FeS2FeSFeS4FeS2FeS2Fe2S3C2HSNC9H4C2H3C6H4C6H7C6H9CH2NC3H8SCH2CFeH3CH3CHC3HNH3CHSHNC4H13C2H3CH6C2H2SFeS2HFeSFeS4FeS2FeSFeS2FeS2FeS2Fe2S3NCSC6H4C6H5C2H3C7H4C2HCNHC6H5CH2SCH3CSH3CHCH9CHNCHCH2CHFeHCH2CSH2NC4H13CH6CH2CH5CH2CHNC3HC2H7NH2CHCH2FeNH4C2H2C2H4CH2CNC2H3FeS2FeS2FeSHS2HSFeS2FeSFeS3CHSHFeSFeS2FeSFeS3C2HC3H2C2NFeCH2SC6H6C6H4C6H4C6H5CH4CHCH3NH2CHC2HC2HC2H4C3H4CHCH2NCH3CHCHCH3FeCHNH4CNHCH2CH6CHCHSNH4CH3CHNH9SFeS2FeSFeS3HCSFeS2FeSFeSFeS3FeSFeS2FeSFeS3HSH4C6H5C3HC6H5C6H6C7H4CNHNC3H9NH3NC4H12C2SH7C2HC2H5CH2CHCH5FeH3C4HC3H4CH4CFe2S2FeSFeHFeS3FeSFeS2FeSFeS5FeS2FeSFeS3C2H2CH6C6H4C6H4C3HC7H4C2H2C6H9SC2HCHCH4CH3CH3NHCH5CH4CH3C2H4CHNH3NCH2CSCHNHNC4H8NC2H2CH2CHC2H9CH2CH6SCSFeS2FeS2Fe2S4FeS2FeCFeS4FeS2FeSFeS2HS2CH3C6H6C6H4NC2SC6H4CFeCHCH2CHC6H4C3HCHSCHNC4H16C2H2CNHCHCHNH9CH2NC4H14CHCHC3H2CNC2HNH4FeH2CH10CH3CNCH2CFeHSHFeS2FeSFeNFeS3FeS2FeS2HFeS3HFeS2FeS2HFeS3H3CH3CHCSH2C6H4CH2C6H4C6H3CH2CHFeC6H4NC4H2CH9NC4H2CHCHCHCH5CH3C2H3CSH3SH3CHC2NCNC4H9FeH3CH6CSFeS2FeS2FeSFeS2FeSHFeS2FeSFeS4FeS2FeSFeSHSHCH4CNH5C6HCH2C6H4C6H4C6H4C4H3CNC4H4SH2CNFeH2NC2H3C2H4CH3CH2C2H4CHCH5C2HCHSH5CH2NH8C3SH7C2H4CH4C2HFeS2FeSHCFeS3CSCSFeSFeS2FeSFeS3FeS2FeSFeHFeS3H2C6H4C6H4CHCH2C6H4C6H4CH2C2H2NCH6NC4H2SNH6NH2CH8CH2CNHCH3C2H6CH3CH4CH4SHNCH4SH3C3H2FeH4CHC2HCHCH7C2HCNSCSFeS2FeSFeHSFeS2FeS2FeSCS3FeS2HSFeSFeS3HCNH2CH4C7H4C6H2CH2CH3C6H4C7H4CFeC2HSH3CH2CNHCH2SHCHCHCH6FeC2FeHCH3CHCNC4H15CSH5NH3CH2CH7CH2FeS2FeSFeSFeS6FeS3FeSFeSHS2FeS2FeSFeS2H2NC6H5NHC8H5FeH2C6H4SC2HC6H4CH2C2H2CHCH6C3H4C2HCH2CHC3H7CH2NC3FeHCH5NH3CH4NC2HCH3CH3CH13CH3CHCSHNH6C2HCH2C3HCH3CH2CNHCH3CH2CHCH2SHFeS2FeS2FeSFeS2FeSFeS2FeS4FeS2FeS2Fe2S3H2CH2CH3C7H4C6H6C6H4C3NHC6H3CSH3CH4NH2CHC2HCH2CHNHCH2SC5HCH2CH4C2H3CH3NH2NCHNC4H16CHCH5CH6CHC2H3CHCHSFeS2FeSFeSFeS3HCSFeS2FeCSCFeSHSFeSFeS2FeSFeS3CSC2H4C6H4C6H9C6H8C2H2C6H4NC2HCHC2HC2SH3CH3NHSH4NH2NH5C2HCH2CH3CH4NHCFeHCH5CH2CHCH5FeCH5C3H2NH4C4HFeSHFeS2FeSHS2FeS3FeSFeSHSH2FeS2FeS2Fe2S3H2SHSC2H2C3HC2HC6H4C6H7C6H4C6H9C2HNCH7CH4C3NC4H14CH7SCH4C2H3C2HFeH2C3H2SHSH2NCFeH3NH2NH3CH5CNHC2HC2H3CH4FeSFeS2FeS2HSHSFeS2FeSFeS2HFeS2FeS2FeSFeS2CSHCH3C6H5CFeH2C6H4C6H5C6H4C2H6CHNHSH2CH2CH2CH4NCH6C3HC2H3NCHCHNCSCH2CHCH2C2H4CH2CH3NH2CHCH2NCHC2H2C2HSH3CH3SCH4CHCH2CHCH
_chemical_formula_sum              "Fe192 S384 C960 H1536 N96"
_cell_length_a       54.4322
_cell_length_b       54.6853
_cell_length_c       54.3974
_cell_angle_alpha    89.7727
_cell_angle_beta     90.1077
_cell_angle_gamma    89.7524

_space_group_name_H-M_alt    "P 1"
_space_group_IT_number       1

loop_
  _space_group_symop_operation_xyz
  'x, y, z'

loop_
  _atom_site_type_symbol
  _atom_site_label
  _atom_site_symmetry_multiplicity
  _atom_site_fract_x
  _atom_site_fract_y
  _atom_site_fract_z
  _atom_site_occupancy
  Fe  Fe1       1.0  0.37065  0.18948  0.07649  1.0000
  S   S1        1.0  0.33207  0.18855  0.09093  1.0000
  S   S2        1.0  0.40296  0.20052  0.10067  1.0000
  Fe  Fe2       1.0  0.35524  0.16793  0.02687  1.0000
  S   S3        1.0  0.31523  0.16633  0.03727  1.0000
  Fe  Fe3       1.0  0.32130  0.20367  0.05378  1.0000
  S   S4        1.0  0.29857  0.23879  0.05523  1.0000
  Fe  Fe4       1.0  0.32922  0.15137  0.07356  1.0000
  S   S5        1.0  0.31053  0.11829  0.09099  1.0000
  S   S6        1.0  0.36029  0.20655  0.04044  1.0000
  S   S7        1.0  0.36864  0.15099  0.06216  1.0000
  S   S8        1.0  0.48818  0.16243  0.36908  1.0000
  C   C1        1.0  0.35841  0.25465  0.12705  1.0000
  H   H1        1.0  0.32407  0.01366  0.08315  1.0000
  S   S9        1.0  0.03854  0.14427  0.37044  1.0000
  H   H2        1.0  0.41337  0.20306  0.04822  1.0000
  S   S10       1.0  0.36549  0.03575  0.15334  1.0000
  Fe  Fe5       1.0  0.33666  0.15792  0.45289  1.0000
  S   S11       1.0  0.33814  0.19640  0.43832  1.0000
  S   S12       1.0  0.32447  0.12674  0.42766  1.0000
  H   H3        1.0  0.45365  0.15440  0.48418  1.0000
  S   S13       1.0  0.36277  0.21284  0.49086  1.0000
  Fe  Fe6       1.0  0.32454  0.20700  0.47602  1.0000
  C   C2        1.0  0.01937  0.19255  0.22909  1.0000
  Fe  Fe7       1.0  0.37622  0.19834  0.45445  1.0000
  S   S14       1.0  0.41090  0.21581  0.43872  1.0000
  S   S15       1.0  0.32182  0.16819  0.48998  1.0000
  S   S16       1.0  0.37603  0.15910  0.46609  1.0000
  Fe  Fe8       1.0  0.18076  0.02082  0.34740  1.0000
  S   S17       1.0  0.17597  0.03752  0.30977  1.0000
  Fe  Fe9       1.0  0.20281  0.06839  0.36887  1.0000
  S   S18       1.0  0.19917  0.08761  0.33263  1.0000
  S   S19       1.0  0.21546  0.09142  0.40156  1.0000
  Fe  Fe10      1.0  0.16161  0.07063  0.33036  1.0000
  S   S20       1.0  0.13047  0.09536  0.31610  1.0000
  Fe  Fe11      1.0  0.21373  0.05297  0.31581  1.0000
  S   S21       1.0  0.24726  0.05456  0.29088  1.0000
  S   S22       1.0  0.16425  0.05288  0.36768  1.0000
  S   S23       1.0  0.21951  0.03466  0.35236  1.0000
  C   C3        1.0  0.02789  0.23915  0.28097  1.0000
  H   H4        1.0  0.28459  0.03799  0.16604  1.0000
  H   H5        1.0  0.25636  0.06591  0.18941  1.0000
  C   C4        1.0  0.29387  0.11801  0.42005  1.0000
  C   C5        1.0  0.27338  0.12753  0.43226  1.0000
  C   C6        1.0  0.24955  0.11931  0.42626  1.0000
  C   C7        1.0  0.24585  0.10178  0.40774  1.0000
  C   C8        1.0  0.26630  0.09263  0.39517  1.0000
  C   C9        1.0  0.29015  0.10054  0.40145  1.0000
  H   H6        1.0  0.27591  0.14089  0.44667  1.0000
  H   H7        1.0  0.23393  0.12646  0.43622  1.0000
  H   H8        1.0  0.26377  0.07907  0.38097  1.0000
  H   H9        1.0  0.30579  0.09287  0.39197  1.0000
  C   C10       1.0  0.25491  0.03179  0.26927  1.0000
  H   H10       1.0  0.40003  0.24532  0.07120  1.0000
  C   C11       1.0  0.45305  0.24643  0.34836  1.0000
  N   N1        1.0  0.44707  0.18794  0.50368  1.0000
  C   C12       1.0  0.27895  0.24881  0.03117  1.0000
  C   C13       1.0  0.06270  0.12923  0.35438  1.0000
  C   C14       1.0  0.07753  0.11211  0.36693  1.0000
  C   C15       1.0  0.09769  0.10077  0.35523  1.0000
  C   C16       1.0  0.10385  0.10714  0.33107  1.0000
  C   C17       1.0  0.08891  0.12414  0.31847  1.0000
  C   C18       1.0  0.06835  0.13498  0.32996  1.0000
  H   H11       1.0  0.07321  0.10738  0.38577  1.0000
  H   H12       1.0  0.10838  0.08709  0.36492  1.0000
  H   H13       1.0  0.09343  0.12913  0.29977  1.0000
  H   H14       1.0  0.05728  0.14828  0.32020  1.0000
  H   H15       1.0  0.17494  0.13545  0.34632  1.0000
  H   H16       1.0  0.33646  0.12690  0.37741  1.0000
  H   H17       1.0  0.05193  0.19001  0.26599  1.0000
  H   H18       1.0  0.21778  0.02014  0.26279  1.0000
  C   C19       1.0  0.46780  0.17678  0.39002  1.0000
  C   C20       1.0  0.44523  0.16556  0.39541  1.0000
  C   C21       1.0  0.42801  0.17701  0.41095  1.0000
  C   C22       1.0  0.43287  0.20008  0.42065  1.0000
  C   C23       1.0  0.45557  0.21118  0.41557  1.0000
  C   C24       1.0  0.47310  0.19943  0.40060  1.0000
  H   H19       1.0  0.44114  0.14793  0.38750  1.0000
  H   H20       1.0  0.41078  0.16830  0.41523  1.0000
  H   H21       1.0  0.45961  0.22893  0.42328  1.0000
  H   H22       1.0  0.49060  0.20797  0.39710  1.0000
  C   C25       1.0  0.32691  0.09470  0.10641  1.0000
  C   C26       1.0  0.31537  0.07209  0.11067  1.0000
  C   C27       1.0  0.32726  0.05347  0.12423  1.0000
  C   C28       1.0  0.35062  0.05753  0.13416  1.0000
  C   C29       1.0  0.36230  0.07994  0.12954  1.0000
  C   C30       1.0  0.35060  0.09839  0.11562  1.0000
  H   H23       1.0  0.29707  0.06909  0.10351  1.0000
  H   H24       1.0  0.31813  0.03623  0.12740  1.0000
  H   H25       1.0  0.38041  0.08322  0.13707  1.0000
  H   H26       1.0  0.35965  0.11571  0.11255  1.0000
  C   C31       1.0  0.50473  0.24616  0.26055  1.0000
  H   H27       1.0  0.13196  0.14705  0.35417  1.0000
  H   H28       1.0  0.19596  0.13099  0.37145  1.0000
  H   H29       1.0  0.24467  0.25498  0.48686  1.0000
  C   C32       1.0  0.42601  0.23638  0.12739  1.0000
  C   C33       1.0  0.41336  0.23083  0.10557  1.0000
  H   H30       1.0  0.18593  0.16130  0.36340  1.0000
  H   H31       1.0  0.42946  0.22210  0.14081  1.0000
  H   H32       1.0  0.47503  0.17662  0.05930  1.0000
  N   N2        1.0  0.29567  0.06434  0.19315  1.0000
  C   C34       1.0  0.31441  0.06645  0.21273  1.0000
  H   H33       1.0  0.44172  0.23883  0.33317  1.0000
  C   C35       1.0  0.29974  0.08367  0.17451  1.0000
  C   C36       1.0  0.27085  0.06712  0.20382  1.0000
  H   H34       1.0  0.33333  0.06423  0.20516  1.0000
  H   H35       1.0  0.31200  0.05212  0.22706  1.0000
  H   H36       1.0  0.31343  0.08454  0.22196  1.0000
  H   H37       1.0  0.31659  0.03701  0.17414  1.0000
  C   C37       1.0  0.40932  0.24941  0.08827  1.0000
  H   H38       1.0  0.46945  0.15754  0.01797  1.0000
  H   H39       1.0  0.35480  0.09372  0.40322  1.0000
  H   H40       1.0  0.31867  0.08271  0.16685  1.0000
  H   H41       1.0  0.29737  0.10226  0.18242  1.0000
  H   H42       1.0  0.47989  0.21874  0.31686  1.0000
  H   H43       1.0  0.26867  0.08500  0.21330  1.0000
  H   H44       1.0  0.26700  0.05253  0.21760  1.0000
  H   H45       1.0  0.01337  0.18788  0.21013  1.0000
  H   H46       1.0  0.06209  0.16789  0.22720  1.0000
  H   H47       1.0  0.38498  0.09434  0.34191  1.0000
  H   H48       1.0  0.49096  0.23340  0.25427  1.0000
  N   N3        1.0  0.47874  0.25024  0.34048  1.0000
  H   H49       1.0  0.34225  0.10888  0.35060  1.0000
  N   N4        1.0  0.44228  0.17875  0.03717  1.0000
  H   H50       1.0  0.12144  0.15206  0.38491  1.0000
  H   H51       1.0  0.22238  0.25379  0.05651  1.0000
  H   H52       1.0  0.39612  0.12516  0.34437  1.0000
  H   H53       1.0  0.48360  0.18800  0.48863  1.0000
  C   C38       1.0  0.46782  0.20063  0.49175  1.0000
  H   H54       1.0  0.35272  0.25399  0.14666  1.0000
  H   H55       1.0  0.16679  0.10248  0.39291  1.0000
  H   H56       1.0  0.30561  0.00751  0.24105  1.0000
  H   H57       1.0  0.17140  0.16831  0.40593  1.0000
  H   H58       1.0  0.46886  0.20632  0.04625  1.0000
  H   H59       1.0  0.35367  0.13969  0.35256  1.0000
  H   H60       1.0  0.18218  0.13826  0.41411  1.0000
  H   H61       1.0  0.45199  0.23335  0.36408  1.0000
  H   H62       1.0  0.38533  0.08313  0.39715  1.0000
  C   C39       1.0  0.04683  0.25244  0.26951  1.0000
  H   H63       1.0  0.49307  0.24801  0.37730  1.0000
  H   H64       1.0  0.17008  0.25359  0.08069  1.0000
  H   H65       1.0  0.38743  0.14937  0.38165  1.0000
  C   C40       1.0  0.16610  0.14869  0.40667  1.0000
  H   H66       1.0  0.44505  0.14284  0.05332  1.0000
  H   H67       1.0  0.14217  0.17349  0.37084  1.0000
  H   H68       1.0  0.46232  0.20827  0.47350  1.0000
  H   H69       1.0  0.13518  0.11109  0.39556  1.0000
  C   C41       1.0  0.15198  0.11356  0.38422  1.0000
  H   H70       1.0  0.40879  0.18899  0.01873  1.0000
  H   H71       1.0  0.42319  0.15759  0.49651  1.0000
  H   H72       1.0  0.29412  0.02502  0.19485  1.0000
  H   H73       1.0  0.14844  0.10558  0.36580  1.0000
  C   C42       1.0  0.35051  0.12258  0.36319  1.0000
  C   C43       1.0  0.17985  0.14198  0.36507  1.0000
  H   H74       1.0  0.35110  0.02330  0.04801  1.0000
  H   H75       1.0  0.27796  0.21437  0.01220  1.0000
  H   H76       1.0  0.47451  0.21607  0.50320  1.0000
  C   C44       1.0  0.13772  0.15374  0.37264  1.0000
  H   H77       1.0  0.15085  0.14678  0.42013  1.0000
  H   H78       1.0  0.28676  0.08201  0.15875  1.0000
  H   H79       1.0  0.40937  0.10140  0.36303  1.0000
  H   H80       1.0  0.37006  0.13635  0.40633  1.0000
  C   C45       1.0  0.23693  0.01736  0.25821  1.0000
  N   N5        1.0  0.15891  0.13955  0.38217  1.0000
  H   H81       1.0  0.40057  0.12552  0.40053  1.0000
  C   C46       1.0  0.29780  0.04006  0.18152  1.0000
  H   H82       1.0  0.36074  0.07615  0.37615  1.0000
  H   H83       1.0  0.03186  0.22796  0.29695  1.0000
  C   C47       1.0  0.28243  0.25309  0.49870  1.0000
  C   C48       1.0  0.27967  0.02835  0.26279  1.0000
  C   C49       1.0  0.38336  0.13194  0.39145  1.0000
  H   H84       1.0  0.19832  0.23161  0.05285  1.0000
  N   N6        1.0  0.37349  0.11333  0.37450  1.0000
  C   C50       1.0  0.36841  0.09056  0.38830  1.0000
  C   C51       1.0  0.39177  0.10832  0.35507  1.0000
  S   S24       1.0  0.28994  0.23059  0.47672  1.0000
  H   H85       1.0  0.42167  0.16198  0.06632  1.0000
  Fe  Fe12      1.0  0.36128  0.17330  0.50200  1.0000
  H   H86       1.0  0.45107  0.19551  0.07179  1.0000
  C   C52       1.0  0.43106  0.15705  0.04883  1.0000
  H   H87       1.0  0.41713  0.14853  0.03650  1.0000
  C   C53       1.0  0.48955  0.22657  0.33305  1.0000
  H   H88       1.0  0.48855  0.21280  0.34816  1.0000
  H   H89       1.0  0.03498  0.20560  0.22762  1.0000
  C   C54       1.0  0.45478  0.17132  0.01428  1.0000
  C   C55       1.0  0.46016  0.18976  0.05433  1.0000
  H   H90       1.0  0.34979  0.24811  0.07925  1.0000
  H   H91       1.0  0.06534  0.25127  0.27671  1.0000
  H   H92       1.0  0.36621  0.02968  0.09059  1.0000
  H   H93       1.0  0.36056  0.23542  0.12062  1.0000
  H   H94       1.0  0.29368  0.03940  0.27140  1.0000
  C   C56       1.0  0.42291  0.19685  0.03127  1.0000
  H   H95       1.0  0.15693  0.24554  0.03774  1.0000
  H   H96       1.0  0.42120  0.21453  0.48988  1.0000
  H   H97       1.0  0.43196  0.17477  0.46972  1.0000
  C   C57       1.0  0.43864  0.16776  0.48780  1.0000
  C   C58       1.0  0.28646  0.01040  0.24556  1.0000
  H   H98       1.0  0.31592  0.23802  0.10843  1.0000
  H   H99       1.0  0.39251  0.01077  0.08422  1.0000
  H   H100      1.0  0.43058  0.21336  0.02215  1.0000
  C   C59       1.0  0.20533  0.24948  0.04606  1.0000
  C   C60       1.0  0.42667  0.20544  0.50739  1.0000
  C   C61       1.0  0.27126  0.23303  0.01256  1.0000
  H   H101      1.0  0.21077  0.24679  0.02653  1.0000
  C   C62       1.0  0.37306  0.01046  0.09045  1.0000
  C   C63       1.0  0.03576  0.17771  0.26770  1.0000
  H   H102      1.0  0.02156  0.18765  0.27844  1.0000
  C   C64       1.0  0.04534  0.15660  0.23008  1.0000
  N   N7        1.0  0.02618  0.17045  0.24338  1.0000
  H   H103      1.0  0.04149  0.16151  0.27881  1.0000
  H   H104      1.0  0.03874  0.15064  0.21168  1.0000
  H   H105      1.0  0.50925  0.22860  0.32811  1.0000
  H   H106      1.0  0.05100  0.13989  0.24046  1.0000
  S   S25       1.0  0.37497  0.15425  0.99266  1.0000
  Fe  Fe13      1.0  0.46033  0.15898  0.69609  1.0000
  S   S26       1.0  0.44110  0.19510  0.69192  1.0000
  S   S27       1.0  0.44493  0.12304  0.71097  1.0000
  H   H107      1.0  0.33464  0.17009  0.84788  1.0000
  Fe  Fe14      1.0  0.47722  0.21183  0.70320  1.0000
  H   H108      1.0  0.30304  0.02934  0.77125  1.0000
  Fe  Fe15      1.0  0.45632  0.19640  0.65350  1.0000
  S   S28       1.0  0.43455  0.21466  0.62250  1.0000
  S   S29       1.0  0.47263  0.15878  0.65642  1.0000
  Fe  Fe16      1.0  0.30899  0.05548  0.82636  1.0000
  S   S30       1.0  0.34605  0.04302  0.81296  1.0000
  S   S31       1.0  0.27143  0.05088  0.80864  1.0000
  Fe  Fe17      1.0  0.33036  0.07633  0.87478  1.0000
  S   S32       1.0  0.36872  0.06466  0.86499  1.0000
  S   S33       1.0  0.31699  0.09799  0.90805  1.0000
  Fe  Fe18      1.0  0.36029  0.07921  0.82683  1.0000
  S   S34       1.0  0.38350  0.11018  0.81043  1.0000
  Fe  Fe19      1.0  0.35098  0.02961  0.85218  1.0000
  S   S35       1.0  0.32259  0.09243  0.83753  1.0000
  S   S36       1.0  0.31328  0.04033  0.86457  1.0000
  S   S37       1.0  0.16093  0.03688  0.65207  1.0000
  S   S38       1.0  0.38001  0.15734  0.53612  1.0000
  Fe  Fe20      1.0  0.08272  0.15413  0.69350  1.0000
  S   S39       1.0  0.06637  0.15369  0.65572  1.0000
  S   S40       1.0  0.10568  0.12279  0.70947  1.0000
  Fe  Fe21      1.0  0.05855  0.20350  0.70602  1.0000
  S   S41       1.0  0.04009  0.20585  0.66916  1.0000
  S   S42       1.0  0.05913  0.23810  0.72946  1.0000
  Fe  Fe22      1.0  0.03134  0.16585  0.67406  1.0000
  Fe  Fe23      1.0  0.07621  0.19365  0.65358  1.0000
  S   S43       1.0  0.08722  0.21180  0.61733  1.0000
  S   S44       1.0  0.04706  0.16429  0.71241  1.0000
  S   S45       1.0  0.09547  0.19326  0.69006  1.0000
  C   C65       1.0  0.10922  0.23563  0.61489  1.0000
  C   C66       1.0  0.01595  0.23390  0.75625  1.0000
  H   H109      1.0  0.37539  0.18789  0.85644  1.0000
  S   S46       1.0  0.49150  0.21516  0.66453  1.0000
  N   N8        1.0  0.03057  0.16208  0.58884  1.0000
  C   C67       1.0  0.05743  0.16268  0.58484  1.0000
  C   C68       1.0  0.25434  0.24121  0.99469  1.0000
  C   C69       1.0  0.11072  0.24938  0.59301  1.0000
  C   C70       1.0  0.14399  0.05968  0.66812  1.0000
  C   C71       1.0  0.13638  0.08085  0.65537  1.0000
  C   C72       1.0  0.12400  0.10000  0.66756  1.0000
  C   C73       1.0  0.11951  0.09841  0.69284  1.0000
  C   C74       1.0  0.12716  0.07726  0.70560  1.0000
  C   C75       1.0  0.13902  0.05786  0.69330  1.0000
  H   H110      1.0  0.14016  0.08248  0.63591  1.0000
  H   H111      1.0  0.11840  0.11620  0.65753  1.0000
  H   H112      1.0  0.12370  0.07582  0.72514  1.0000
  H   H113      1.0  0.14440  0.04161  0.70337  1.0000
  C   C76       1.0  0.26534  0.03295  0.78247  1.0000
  C   C77       1.0  0.45497  0.17791  0.52773  1.0000
  H   H114      1.0  0.03290  0.13512  0.61770  1.0000
  H   H115      1.0  0.34559  0.18319  0.89078  1.0000
  H   H116      1.0  0.24899  0.23299  0.57671  1.0000
  C   C78       1.0  0.39398  0.17368  0.56063  1.0000
  C   C79       1.0  0.39290  0.19921  0.56219  1.0000
  C   C80       1.0  0.40540  0.21145  0.58123  1.0000
  C   C81       1.0  0.41891  0.19836  0.59904  1.0000
  C   C82       1.0  0.41982  0.17284  0.59760  1.0000
  C   C83       1.0  0.40740  0.16060  0.57852  1.0000
  H   H117      1.0  0.38238  0.20953  0.54880  1.0000
  H   H118      1.0  0.40444  0.23118  0.58226  1.0000
  H   H119      1.0  0.43006  0.16251  0.61122  1.0000
  H   H120      1.0  0.40829  0.14086  0.57756  1.0000
  C   C84       1.0  0.42728  0.11992  0.73833  1.0000
  C   C85       1.0  0.41679  0.09712  0.74414  1.0000
  C   C86       1.0  0.40306  0.09379  0.76591  1.0000
  C   C87       1.0  0.39986  0.11324  0.78225  1.0000
  C   C88       1.0  0.41035  0.13602  0.77643  1.0000
  C   C89       1.0  0.42388  0.13940  0.75458  1.0000
  H   H121      1.0  0.41928  0.08191  0.73172  1.0000
  H   H122      1.0  0.39517  0.07616  0.77014  1.0000
  H   H123      1.0  0.40805  0.15120  0.78890  1.0000
  H   H124      1.0  0.43185  0.15703  0.75043  1.0000
  H   H125      1.0  0.49986  0.12830  0.69088  1.0000
  H   H126      1.0  0.34850  0.14291  0.83549  1.0000
  H   H127      1.0  0.32677  0.14069  0.86024  1.0000
  C   C90       1.0  0.35868  0.13731  0.97016  1.0000
  C   C91       1.0  0.33306  0.13841  0.96853  1.0000
  C   C92       1.0  0.32067  0.12587  0.94968  1.0000
  C   C93       1.0  0.33364  0.11177  0.93244  1.0000
  C   C94       1.0  0.35924  0.11007  0.93448  1.0000
  C   C95       1.0  0.37171  0.12310  0.95302  1.0000
  H   H128      1.0  0.32277  0.14929  0.98153  1.0000
  H   H129      1.0  0.30087  0.12724  0.94835  1.0000
  H   H130      1.0  0.36943  0.09869  0.92184  1.0000
  H   H131      1.0  0.39151  0.12191  0.95426  1.0000
  H   H132      1.0  0.06338  0.18053  0.57695  1.0000
  H   H133      1.0  0.43162  0.21999  0.52072  1.0000
  H   H134      1.0  0.26330  0.24419  0.60429  1.0000
  H   H135      1.0  0.31857  0.25561  0.51453  1.0000
  H   H136      1.0  0.22452  0.23765  0.62775  1.0000
  C   C96       1.0  0.24092  0.02667  0.77704  1.0000
  H   H137      1.0  0.44770  0.24408  0.67793  1.0000
  H   H138      1.0  0.01485  0.21531  0.74957  1.0000
  N   N9        1.0  0.36244  0.15364  0.87085  1.0000
  C   C97       1.0  0.37241  0.12901  0.87607  1.0000
  C   C98       1.0  0.35296  0.16443  0.89386  1.0000
  C   C99       1.0  0.38215  0.16911  0.86061  1.0000
  H   H139      1.0  0.38662  0.12938  0.89077  1.0000
  H   H140      1.0  0.35767  0.11635  0.88201  1.0000
  H   H141      1.0  0.38105  0.12080  0.85957  1.0000
  H   H142      1.0  0.36749  0.16543  0.90826  1.0000
  H   H143      1.0  0.33776  0.15321  0.90164  1.0000
  H   H144      1.0  0.39785  0.17060  0.87365  1.0000
  H   H145      1.0  0.38943  0.16124  0.84314  1.0000
  H   H146      1.0  0.02255  0.18330  0.55646  1.0000
  S   S47       1.0  0.49540  0.17548  0.71024  1.0000
  C   C100      1.0  0.03541  0.24882  0.74895  1.0000
  H   H147      1.0  0.04748  0.25088  0.87043  1.0000
  H   H148      1.0  0.06357  0.14793  0.57221  1.0000
  C   C101      1.0  0.21423  0.24301  0.61086  1.0000
  Fe  Fe24      1.0  0.50677  0.17734  0.67032  1.0000
  H   H149      1.0  0.41012  0.19602  0.51456  1.0000
  H   H150      1.0  0.03258  0.17976  0.62383  1.0000
  H   H151      1.0  0.12398  0.23101  0.65131  1.0000
  C   C102      1.0  0.01773  0.16546  0.56510  1.0000
  H   H152      1.0  0.02267  0.15075  0.55188  1.0000
  H   H153      1.0  0.22622  0.03343  0.78857  1.0000
  H   H154      1.0  0.09896  0.24484  0.57765  1.0000
  C   C103      1.0  0.05661  0.25682  0.82228  1.0000
  H   H155      1.0  0.21008  0.25104  0.56207  1.0000
  C   C104      1.0  0.02345  0.18198  0.60572  1.0000
  C   C105      1.0  0.12464  0.24165  0.63451  1.0000
  C   C106      1.0  0.28423  0.02417  0.76753  1.0000
  H   H156      1.0  0.06771  0.16031  0.60240  1.0000
  N   N10       1.0  0.50851  0.09216  0.67890  1.0000
  H   H157      1.0  0.24806  0.22869  0.98068  1.0000
  H   H158      1.0  0.46072  0.19265  0.54056  1.0000
  H   H159      1.0  0.50134  0.10634  0.71511  1.0000
  C   C107      1.0  0.02360  0.13826  0.59971  1.0000
  H   H160      1.0  0.43976  0.16778  0.53683  1.0000
  S   S48       1.0  0.47316  0.24380  0.72955  1.0000
  H   H161      1.0  0.46343  0.18724  0.00493  1.0000
  N   N11       1.0  0.21926  0.06238  0.70096  1.0000
  C   C108      1.0  0.20350  0.08447  0.70133  1.0000
  C   C109      1.0  0.24061  0.06578  0.71744  1.0000
  C   C110      1.0  0.22788  0.05788  0.67561  1.0000
  C   C111      1.0  0.20491  0.04115  0.70943  1.0000
  H   H162      1.0  0.18740  0.08249  0.68880  1.0000
  H   H163      1.0  0.21375  0.10099  0.69534  1.0000
  H   H164      1.0  0.19611  0.08801  0.72007  1.0000
  H   H165      1.0  0.23474  0.06869  0.73683  1.0000
  H   H166      1.0  0.25287  0.04940  0.71740  1.0000
  H   H167      1.0  0.25183  0.08178  0.71180  1.0000
  H   H168      1.0  0.23967  0.04119  0.67470  1.0000
  H   H169      1.0  0.23873  0.07354  0.66844  1.0000
  H   H170      1.0  0.21212  0.05497  0.66281  1.0000
  H   H171      1.0  0.21615  0.02410  0.70909  1.0000
  H   H172      1.0  0.18872  0.03811  0.69738  1.0000
  H   H173      1.0  0.19803  0.04367  0.72851  1.0000
  H   H174      1.0  0.21015  0.22606  0.60038  1.0000
  C   C112      1.0  0.48247  0.08600  0.67437  1.0000
  C   C113      1.0  0.34220  0.15180  0.85280  1.0000
  H   H175      1.0  0.19630  0.25100  0.61678  1.0000
  H   H176      1.0  0.47066  0.16498  0.52574  1.0000
  H   H177      1.0  0.02882  0.20024  0.59843  1.0000
  C   C114      1.0  0.25188  0.24958  0.58815  1.0000
  H   H178      1.0  0.44154  0.16303  0.00105  1.0000
  H   H179      1.0  0.47197  0.10217  0.66742  1.0000
  H   H180      1.0  0.47314  0.08004  0.69159  1.0000
  H   H181      1.0  0.48057  0.07115  0.66061  1.0000
  H   H182      1.0  0.02858  0.12275  0.58752  1.0000
  H   H183      1.0  0.06471  0.23951  0.82952  1.0000
  C   C115      1.0  0.23546  0.01105  0.75729  1.0000
  C   C116      1.0  0.27879  0.00846  0.74785  1.0000
  H   H184      1.0  0.08761  0.24853  0.68142  1.0000
  H   H185      1.0  0.03777  0.25251  0.81554  1.0000
  S   S49       1.0  0.16872  0.36356  0.03952  1.0000
  Fe  Fe25      1.0  0.45919  0.32349  0.15448  1.0000
  S   S50       1.0  0.44331  0.32429  0.19258  1.0000
  S   S51       1.0  0.43774  0.30996  0.12096  1.0000
  H   H186      1.0  0.33434  0.29571  0.13943  1.0000
  Fe  Fe26      1.0  0.48125  0.31240  0.20471  1.0000
  S   S52       1.0  0.48199  0.27867  0.22954  1.0000
  Fe  Fe27      1.0  0.45744  0.36289  0.19505  1.0000
  S   S53       1.0  0.43920  0.39598  0.21329  1.0000
  S   S54       1.0  0.47043  0.36313  0.15607  1.0000
  S   S55       1.0  0.37840  0.48217  0.16148  1.0000
  S   S56       1.0  0.22021  0.48718  0.36974  1.0000
  Fe  Fe28      1.0  0.17034  0.45181  0.33332  1.0000
  S   S57       1.0  0.20622  0.43436  0.34516  1.0000
  S   S58       1.0  0.13757  0.43117  0.31698  1.0000
  Fe  Fe29      1.0  0.20031  0.45310  0.38149  1.0000
  S   S59       1.0  0.21170  0.44158  0.42025  1.0000
  Fe  Fe30      1.0  0.22316  0.46988  0.33251  1.0000
  S   S60       1.0  0.26124  0.47061  0.31535  1.0000
  S   S61       1.0  0.16339  0.46814  0.37089  1.0000
  Fe  Fe31      1.0  0.08375  0.32494  0.15229  1.0000
  S   S62       1.0  0.07235  0.36406  0.15659  1.0000
  S   S63       1.0  0.09865  0.30966  0.11625  1.0000
  Fe  Fe32      1.0  0.06357  0.31118  0.20376  1.0000
  S   S64       1.0  0.05026  0.34963  0.21074  1.0000
  S   S65       1.0  0.06674  0.28258  0.23441  1.0000
  Fe  Fe33      1.0  0.03694  0.34847  0.17113  1.0000
  Fe  Fe34      1.0  0.08680  0.36144  0.19544  1.0000
  S   S66       1.0  0.11599  0.38787  0.20994  1.0000
  S   S67       1.0  0.04777  0.30924  0.16543  1.0000
  S   S68       1.0  0.10065  0.32306  0.18988  1.0000
  N   N12       1.0  0.50216  0.43362  0.18785  1.0000
  C   C117      1.0  0.22910  0.33708  0.48785  1.0000
  S   S69       1.0  0.49659  0.31022  0.16625  1.0000
  C   C118      1.0  0.17636  0.38739  0.47449  1.0000
  C   C119      1.0  0.16743  0.38920  0.45026  1.0000
  C   C120      1.0  0.17786  0.40579  0.43334  1.0000
  C   C121      1.0  0.19748  0.42058  0.44053  1.0000
  C   C122      1.0  0.20625  0.41892  0.46479  1.0000
  C   C123      1.0  0.19567  0.40255  0.48171  1.0000
  H   H187      1.0  0.15240  0.37763  0.44452  1.0000
  H   H188      1.0  0.17088  0.40694  0.41473  1.0000
  H   H189      1.0  0.22127  0.43046  0.47060  1.0000
  H   H190      1.0  0.34061  0.47558  0.23660  1.0000
  C   C124      1.0  0.13166  0.42079  0.28655  1.0000
  C   C125      1.0  0.10809  0.41192  0.28080  1.0000
  C   C126      1.0  0.10272  0.40252  0.25728  1.0000
  C   C127      1.0  0.12103  0.40141  0.23928  1.0000
  C   C128      1.0  0.14447  0.41069  0.24488  1.0000
  C   C129      1.0  0.14979  0.42030  0.26836  1.0000
  H   H191      1.0  0.09384  0.41251  0.29462  1.0000
  H   H192      1.0  0.08437  0.39628  0.25306  1.0000
  H   H193      1.0  0.15872  0.41018  0.23106  1.0000
  H   H194      1.0  0.16797  0.42710  0.27245  1.0000
  H   H195      1.0  0.49728  0.46048  0.21621  1.0000
  C   C130      1.0  0.30929  0.46866  0.18302  1.0000
  C   C131      1.0  0.25324  0.50316  0.27702  1.0000
  H   H196      1.0  0.34805  0.44004  0.19330  1.0000
  H   H197      1.0  0.13943  0.47334  0.44887  1.0000
  H   H198      1.0  0.32039  0.42298  0.19845  1.0000
  C   C132      1.0  0.48817  0.42369  0.16685  1.0000
  C   C133      1.0  0.42257  0.41988  0.19842  1.0000
  C   C134      1.0  0.41630  0.41883  0.17351  1.0000
  C   C135      1.0  0.40299  0.43817  0.16250  1.0000
  C   C136      1.0  0.39611  0.45892  0.17610  1.0000
  C   C137      1.0  0.40265  0.46012  0.20096  1.0000
  C   C138      1.0  0.41566  0.44061  0.21206  1.0000
  H   H199      1.0  0.42141  0.40298  0.16279  1.0000
  H   H200      1.0  0.39796  0.43702  0.14328  1.0000
  H   H201      1.0  0.39757  0.47596  0.21168  1.0000
  H   H202      1.0  0.42045  0.44161  0.23135  1.0000
  C   C139      1.0  0.33196  0.43799  0.20581  1.0000
  C   C140      1.0  0.42942  0.27914  0.11522  1.0000
  H   H203      1.0  0.27684  0.32349  0.49191  1.0000
  C   C141      1.0  0.41733  0.27342  0.09310  1.0000
  N   N13       1.0  0.31794  0.46112  0.20770  1.0000
  H   H204      1.0  0.41408  0.28773  0.07967  1.0000
  C   C142      1.0  0.14862  0.34885  0.06051  1.0000
  C   C143      1.0  0.14620  0.35800  0.08452  1.0000
  C   C144      1.0  0.13084  0.34636  0.10181  1.0000
  C   C145      1.0  0.11793  0.32529  0.09526  1.0000
  C   C146      1.0  0.12019  0.31627  0.07121  1.0000
  C   C147      1.0  0.13527  0.32809  0.05386  1.0000
  H   H205      1.0  0.15639  0.37408  0.08986  1.0000
  H   H206      1.0  0.12929  0.35350  0.12028  1.0000
  H   H207      1.0  0.11009  0.30012  0.06591  1.0000
  H   H208      1.0  0.13650  0.32119  0.03533  1.0000
  H   H209      1.0  0.17606  0.49933  0.48332  1.0000
  C   C148      1.0  0.25944  0.36901  0.49019  1.0000
  H   H210      1.0  0.32670  0.30514  0.10857  1.0000
  H   H211      1.0  0.24687  0.29998  0.01348  1.0000
  S   S70       1.0  0.18772  0.48634  0.31858  1.0000
  C   C149      1.0  0.03818  0.36319  0.05883  1.0000
  H   H212      1.0  0.48568  0.27844  0.36706  1.0000
  H   H213      1.0  0.49848  0.27155  0.31377  1.0000
  H   H214      1.0  0.49073  0.40584  0.21340  1.0000
  C   C150      1.0  0.48728  0.45255  0.20028  1.0000
  S   S71       1.0  0.16337  0.36574  0.49503  1.0000
  H   H215      1.0  0.23996  0.45030  0.01676  1.0000
  H   H216      1.0  0.30957  0.25790  0.13389  1.0000
  H   H217      1.0  0.44432  0.26386  0.35435  1.0000
  C   C151      1.0  0.25342  0.28129  0.01326  1.0000
  H   H218      1.0  0.08469  0.35931  0.07343  1.0000
  C   C152      1.0  0.49315  0.26045  0.36107  1.0000
  H   H219      1.0  0.49901  0.40952  0.15687  1.0000
  H   H220      1.0  0.35056  0.48285  0.20605  1.0000
  H   H221      1.0  0.22807  0.37046  0.45174  1.0000
  H   H222      1.0  0.23656  0.34137  0.43919  1.0000
  H   H223      1.0  0.27603  0.28537  0.04561  1.0000
  H   H224      1.0  0.03222  0.39827  0.09295  1.0000
  H   H225      1.0  0.20560  0.48904  0.44968  1.0000
  H   H226      1.0  0.02604  0.33028  0.09305  1.0000
  H   H227      1.0  0.35830  0.30289  0.11800  1.0000
  C   C153      1.0  0.15925  0.47468  0.44413  1.0000
  H   H228      1.0  0.03958  0.38192  0.05089  1.0000
  N   N14       1.0  0.25055  0.34811  0.47553  1.0000
  C   C154      1.0  0.27036  0.32964  0.47345  1.0000
  H   H229      1.0  0.22003  0.41098  0.02886  1.0000
  C   C155      1.0  0.24323  0.35673  0.45076  1.0000
  H   H230      1.0  0.03759  0.37913  0.11917  1.0000
  H   H231      1.0  0.28402  0.44340  0.21727  1.0000
  C   C156      1.0  0.01804  0.26862  0.23966  1.0000
  H   H232      1.0  0.26406  0.31306  0.46346  1.0000
  Fe  Fe35      1.0  0.50657  0.34999  0.17156  1.0000
  H   H233      1.0  0.29854  0.48603  0.18383  1.0000
  C   C157      1.0  0.20621  0.41445  0.01414  1.0000
  H   H234      1.0  0.33922  0.43204  0.22404  1.0000
  H   H235      1.0  0.16969  0.46292  0.45729  1.0000
  C   C158      1.0  0.04513  0.33735  0.09420  1.0000
  S   S72       1.0  0.49405  0.35105  0.21090  1.0000
  H   H236      1.0  0.04933  0.35073  0.04706  1.0000
  H   H237      1.0  0.01192  0.37322  0.09975  1.0000
  N   N15       1.0  0.11488  0.33019  0.27128  1.0000
  C   C159      1.0  0.10797  0.31256  0.29070  1.0000
  C   C160      1.0  0.13125  0.34906  0.28166  1.0000
  C   C161      1.0  0.09243  0.34190  0.26137  1.0000
  C   C162      1.0  0.12777  0.31723  0.25126  1.0000
  H   H238      1.0  0.09563  0.29809  0.28329  1.0000
  H   H239      1.0  0.09803  0.32183  0.30595  1.0000
  H   H240      1.0  0.12442  0.30332  0.29866  1.0000
  H   H241      1.0  0.12186  0.36007  0.29609  1.0000
  H   H242      1.0  0.14803  0.34085  0.29004  1.0000
  H   H243      1.0  0.13746  0.36211  0.26722  1.0000
  H   H244      1.0  0.09668  0.35364  0.24524  1.0000
  H   H245      1.0  0.08318  0.35352  0.27535  1.0000
  H   H246      1.0  0.07889  0.32812  0.25505  1.0000
  H   H247      1.0  0.13318  0.33013  0.23630  1.0000
  H   H248      1.0  0.11582  0.30304  0.24281  1.0000
  H   H249      1.0  0.14475  0.30803  0.25801  1.0000
  H   H250      1.0  0.19028  0.42407  0.02260  1.0000
  C   C163      1.0  0.03150  0.37905  0.09964  1.0000
  H   H251      1.0  0.21362  0.35033  0.48928  1.0000
  H   H252      1.0  0.47081  0.41499  0.17309  1.0000
  H   H253      1.0  0.25883  0.36554  0.44098  1.0000
  H   H254      1.0  0.32501  0.47181  0.17028  1.0000
  H   H255      1.0  0.05733  0.32455  0.08397  1.0000
  H   H256      1.0  0.28658  0.33705  0.46353  1.0000
  C   C164      1.0  0.29662  0.45779  0.22418  1.0000
  H   H257      1.0  0.48224  0.46769  0.18750  1.0000
  H   H258      1.0  0.19678  0.49440  0.41847  1.0000
  C   C165      1.0  0.50516  0.26995  0.25065  1.0000
  H   H259      1.0  0.30250  0.45248  0.24310  1.0000
  H   H260      1.0  0.18402  0.30799  0.04248  1.0000
  H   H261      1.0  0.27571  0.37775  0.48155  1.0000
  H   H262      1.0  0.48312  0.43822  0.15338  1.0000
  H   H263      1.0  0.19425  0.27512  0.08662  1.0000
  C   C166      1.0  0.07277  0.37071  0.08546  1.0000
  H   H264      1.0  0.30880  0.48183  0.29622  1.0000
  H   H265      1.0  0.33426  0.27645  0.07348  1.0000
  C   C167      1.0  0.27002  0.27298  0.03139  1.0000
  H   H266      1.0  0.15093  0.27765  0.03364  1.0000
  N   N16       1.0  0.18667  0.26908  0.04835  1.0000
  C   C168      1.0  0.33988  0.29419  0.11981  1.0000
  C   C169      1.0  0.19414  0.50101  0.43759  1.0000
  C   C170      1.0  0.33406  0.48027  0.21777  1.0000
  H   H267      1.0  0.05073  0.33634  0.11386  1.0000
  C   C171      1.0  0.47929  0.26749  0.31946  1.0000
  C   C172      1.0  0.19737  0.29264  0.04053  1.0000
  H   H268      1.0  0.32432  0.49818  0.21875  1.0000
  H   H269      1.0  0.01410  0.27987  0.22370  1.0000
  H   H270      1.0  0.37689  0.26325  0.12655  1.0000
  H   H271      1.0  0.20303  0.29208  0.02091  1.0000
  H   H272      1.0  0.46979  0.44474  0.20744  1.0000
  H   H273      1.0  0.21393  0.29730  0.05155  1.0000
  H   H274      1.0  0.20233  0.40184  0.50041  1.0000
  N   N17       1.0  0.04690  0.36259  0.08456  1.0000
  H   H275      1.0  0.28573  0.47502  0.22588  1.0000
  H   H276      1.0  0.29732  0.45453  0.17461  1.0000
  C   C173      1.0  0.27032  0.48970  0.29077  1.0000
  H   H277      1.0  0.24497  0.38332  0.49213  1.0000
  C   C174      1.0  0.04203  0.26715  0.24875  1.0000
  H   H278      1.0  0.07474  0.39006  0.07943  1.0000
  H   H279      1.0  0.08044  0.36925  0.10438  1.0000
  Fe  Fe36      1.0  0.18371  0.50108  0.35713  1.0000
  N   N18       1.0  0.16795  0.50026  0.44467  1.0000
  H   H280      1.0  0.22217  0.32087  0.47771  1.0000
  H   H281      1.0  0.16174  0.46643  0.42562  1.0000
  H   H282      1.0  0.47044  0.28526  0.32408  1.0000
  H   H283      1.0  0.01868  0.35732  0.05754  1.0000
  C   C175      1.0  0.29548  0.49209  0.28552  1.0000
  C   C176      1.0  0.50780  0.41370  0.20543  1.0000
  H   H284      1.0  0.30205  0.26717  0.10294  1.0000
  H   H285      1.0  0.16465  0.28576  0.07654  1.0000
  C   C177      1.0  0.25831  0.26236  0.49926  1.0000
  C   C178      1.0  0.43387  0.26043  0.13230  1.0000
  H   H286      1.0  0.44325  0.26453  0.14935  1.0000
  H   H287      1.0  0.23379  0.33109  0.50683  1.0000
  H   H288      1.0  0.17099  0.26186  0.01280  1.0000
  H   H289      1.0  0.23380  0.50119  0.28061  1.0000
  C   C179      1.0  0.17856  0.27093  0.07420  1.0000
  H   H290      1.0  0.46965  0.25998  0.30306  1.0000
  H   H291      1.0  0.36592  0.27655  0.08263  1.0000
  C   C180      1.0  0.16541  0.26327  0.03248  1.0000
  N   N19       1.0  0.34056  0.26840  0.11177  1.0000
  C   C181      1.0  0.34802  0.26735  0.08567  1.0000
  C   C182      1.0  0.31593  0.25745  0.11449  1.0000
  H   H292      1.0  0.26486  0.36311  0.50912  1.0000
  H   H293      1.0  0.21018  0.46337  0.01076  1.0000
  H   H294      1.0  0.48591  0.29953  0.67166  1.0000
  Fe  Fe37      1.0  0.33275  0.47717  0.81613  1.0000
  S   S73       1.0  0.32293  0.49113  0.85376  1.0000
  S   S74       1.0  0.31193  0.48071  0.77993  1.0000
  Fe  Fe38      1.0  0.38122  0.45344  0.83423  1.0000
  S   S75       1.0  0.37494  0.46622  0.87285  1.0000
  S   S76       1.0  0.41255  0.43019  0.81877  1.0000
  Fe  Fe39      1.0  0.33553  0.45405  0.86765  1.0000
  S   S77       1.0  0.32106  0.42697  0.89661  1.0000
  H   H295      1.0  0.35212  0.37098  0.89995  1.0000
  S   S78       1.0  0.34269  0.43954  0.82974  1.0000
  S   S79       1.0  0.37198  0.48994  0.81726  1.0000
  H   H296      1.0  0.25249  0.41181  0.99653  1.0000
  S   S80       1.0  0.16381  0.31209  0.98839  1.0000
  Fe  Fe40      1.0  0.19808  0.36174  0.95061  1.0000
  S   S81       1.0  0.18797  0.32498  0.93489  1.0000
  S   S82       1.0  0.21267  0.39335  0.92701  1.0000
  Fe  Fe41      1.0  0.15136  0.33040  0.95336  1.0000
  S   S83       1.0  0.11372  0.31739  0.94045  1.0000
  Fe  Fe42      1.0  0.20126  0.30991  0.97132  1.0000
  S   S84       1.0  0.22179  0.27364  0.97385  1.0000
  S   S85       1.0  0.16037  0.36802  0.96706  1.0000
  S   S86       1.0  0.21373  0.34623  0.98588  1.0000
  C   C183      1.0  0.19764  0.43254  0.97449  1.0000
  H   H297      1.0  0.06895  0.32297  0.66579  1.0000
  S   S87       1.0  0.04376  0.36541  0.85925  1.0000
  H   H298      1.0  0.40319  0.37607  0.84059  1.0000
  Fe  Fe43      1.0  0.17996  0.35768  0.53272  1.0000
  S   S88       1.0  0.21715  0.37221  0.54232  1.0000
  Fe  Fe44      1.0  0.17545  0.32829  0.58079  1.0000
  S   S89       1.0  0.21237  0.34200  0.59321  1.0000
  S   S90       1.0  0.16160  0.30161  0.61036  1.0000
  Fe  Fe45      1.0  0.20088  0.37910  0.57969  1.0000
  S   S91       1.0  0.21483  0.41284  0.59985  1.0000
  Fe  Fe46      1.0  0.22520  0.33396  0.55507  1.0000
  S   S92       1.0  0.26259  0.31586  0.55093  1.0000
  S   S93       1.0  0.16282  0.36642  0.56966  1.0000
  S   S94       1.0  0.18914  0.31853  0.54297  1.0000
  C   C184      1.0  0.02270  0.42696  0.85476  1.0000
  C   C185      1.0  0.14193  0.27576  0.61087  1.0000
  H   H299      1.0  0.21568  0.29177  0.61637  1.0000
  C   C186      1.0  0.24514  0.26527  0.99507  1.0000
  C   C187      1.0  0.04579  0.29884  0.83056  1.0000
  C   C188      1.0  0.49797  0.25940  0.74346  1.0000
  H   H300      1.0  0.38315  0.36035  0.90425  1.0000
  H   H301      1.0  0.24399  0.27860  0.62725  1.0000
  C   C189      1.0  0.07292  0.27851  0.64526  1.0000
  C   C190      1.0  0.05008  0.28092  0.68317  1.0000
  N   N20       1.0  0.22828  0.26063  0.59582  1.0000
  Fe  Fe47      1.0  0.17516  0.34922  0.00081  1.0000
  C   C191      1.0  0.26940  0.29104  0.53133  1.0000
  H   H302      1.0  0.22370  0.28083  0.56228  1.0000
  H   H303      1.0  0.38813  0.41363  0.86195  1.0000
  S   S95       1.0  0.50142  0.37378  0.87100  1.0000
  C   C192      1.0  0.09466  0.33136  0.91792  1.0000
  C   C193      1.0  0.07089  0.32207  0.91420  1.0000
  C   C194      1.0  0.05507  0.33250  0.89649  1.0000
  C   C195      1.0  0.06299  0.35216  0.88208  1.0000
  C   C196      1.0  0.08678  0.36140  0.88569  1.0000
  C   C197      1.0  0.10255  0.35111  0.90360  1.0000
  H   H304      1.0  0.06463  0.30685  0.92527  1.0000
  H   H305      1.0  0.03671  0.32544  0.89415  1.0000
  H   H306      1.0  0.09311  0.37658  0.87461  1.0000
  H   H307      1.0  0.12084  0.35836  0.90622  1.0000
  H   H308      1.0  0.19895  0.50183  0.57511  1.0000
  H   H309      1.0  0.36241  0.34363  0.88482  1.0000
  C   C198      1.0  0.43777  0.41571  0.83370  1.0000
  C   C199      1.0  0.45383  0.40123  0.81964  1.0000
  C   C200      1.0  0.47350  0.38847  0.83074  1.0000
  C   C201      1.0  0.47712  0.38979  0.85615  1.0000
  C   C202      1.0  0.46107  0.40428  0.87024  1.0000
  C   C203      1.0  0.44176  0.41753  0.85904  1.0000
  H   H310      1.0  0.45094  0.39974  0.80001  1.0000
  H   H311      1.0  0.48561  0.37733  0.81965  1.0000
  H   H312      1.0  0.46380  0.40552  0.88991  1.0000
  H   H313      1.0  0.43000  0.42912  0.87001  1.0000
  C   C204      1.0  0.29069  0.41738  0.90399  1.0000
  C   C205      1.0  0.26981  0.42886  0.89424  1.0000
  C   C206      1.0  0.24614  0.42104  0.90129  1.0000
  C   C207      1.0  0.24300  0.40147  0.91788  1.0000
  C   C208      1.0  0.26388  0.38983  0.92747  1.0000
  C   C209      1.0  0.28755  0.39786  0.92067  1.0000
  H   H314      1.0  0.27188  0.44390  0.88144  1.0000
  H   H315      1.0  0.23015  0.43021  0.89376  1.0000
  H   H316      1.0  0.26182  0.37476  0.94022  1.0000
  H   H317      1.0  0.30355  0.38887  0.92838  1.0000
  C   C210      1.0  0.17327  0.47338  0.64165  1.0000
  C   C211      1.0  0.19892  0.47190  0.64238  1.0000
  C   C212      1.0  0.21126  0.45322  0.62950  1.0000
  C   C213      1.0  0.19816  0.43560  0.61607  1.0000
  C   C214      1.0  0.17250  0.43693  0.61553  1.0000
  C   C215      1.0  0.16016  0.45577  0.62821  1.0000
  H   H318      1.0  0.20928  0.48498  0.65301  1.0000
  H   H319      1.0  0.23111  0.45223  0.63017  1.0000
  H   H320      1.0  0.16219  0.42351  0.60528  1.0000
  H   H321      1.0  0.14031  0.45672  0.62759  1.0000
  H   H322      1.0  0.10054  0.31332  0.66612  1.0000
  C   C216      1.0  0.22543  0.45256  0.00249  1.0000
  H   H323      1.0  0.33954  0.38961  0.85994  1.0000
  H   H324      1.0  0.08138  0.29536  0.86461  1.0000
  H   H325      1.0  0.39962  0.40060  0.89012  1.0000
  H   H326      1.0  0.23175  0.39679  0.97593  1.0000
  C   C217      1.0  0.39703  0.36520  0.85683  1.0000
  H   H327      1.0  0.41315  0.36344  0.86936  1.0000
  C   C218      1.0  0.49300  0.27698  0.76161  1.0000
  H   H328      1.0  0.43256  0.26564  0.69724  1.0000
  H   H329      1.0  0.39223  0.34661  0.85018  1.0000
  H   H330      1.0  0.24369  0.29658  0.59958  1.0000
  N   N21       1.0  0.07443  0.28442  0.67171  1.0000
  H   H331      1.0  0.12763  0.28003  0.57420  1.0000
  H   H332      1.0  0.01940  0.30067  0.78036  1.0000
  C   C219      1.0  0.43678  0.30405  0.66639  1.0000
  H   H333      1.0  0.49879  0.46420  0.84767  1.0000
  C   C220      1.0  0.45702  0.27445  0.64042  1.0000
  C   C221      1.0  0.36810  0.36230  0.89049  1.0000
  H   H334      1.0  0.47089  0.28974  0.69944  1.0000
  C   C222      1.0  0.12699  0.26935  0.59097  1.0000
  C   C223      1.0  0.03659  0.27291  0.75788  1.0000
  H   H335      1.0  0.03582  0.29274  0.67449  1.0000
  C   C224      1.0  0.29993  0.26257  0.51486  1.0000
  C   C225      1.0  0.08220  0.31012  0.67465  1.0000
  H   H336      1.0  0.47422  0.28033  0.76717  1.0000
  H   H337      1.0  0.30724  0.28920  0.54308  1.0000
  H   H338      1.0  0.28354  0.48606  0.73593  1.0000
  H   H339      1.0  0.04168  0.42008  0.85123  1.0000
  C   C226      1.0  0.08121  0.28078  0.85032  1.0000
  C   C227      1.0  0.23761  0.41497  0.98283  1.0000
  C   C228      1.0  0.02385  0.45337  0.81906  1.0000
  H   H340      1.0  0.03952  0.28217  0.87662  1.0000
  H   H341      1.0  0.02408  0.44273  0.86753  1.0000
  H   H342      1.0  0.46769  0.28894  0.63089  1.0000
  H   H343      1.0  0.43218  0.30952  0.68555  1.0000
  C   C229      1.0  0.25171  0.28106  0.51569  1.0000
  H   H344      1.0  0.05883  0.28986  0.63569  1.0000
  C   C230      1.0  0.23313  0.28285  0.61041  1.0000
  H   H345      1.0  0.43996  0.27106  0.62962  1.0000
  H   H346      1.0  0.02654  0.29613  0.82422  1.0000
  N   N22       1.0  0.37597  0.37710  0.86916  1.0000
  C   C231      1.0  0.29344  0.28159  0.53100  1.0000
  H   H347      1.0  0.08366  0.31513  0.69442  1.0000
  H   H348      1.0  0.09350  0.28688  0.83517  1.0000
  H   H349      1.0  0.02118  0.26457  0.85571  1.0000
  C   C232      1.0  0.35533  0.37956  0.85160  1.0000
  H   H350      1.0  0.02721  0.40452  0.81146  1.0000
  C   C233      1.0  0.47450  0.28482  0.67991  1.0000
  H   H351      1.0  0.36839  0.41079  0.88798  1.0000
  C   C234      1.0  0.38339  0.40158  0.87770  1.0000
  H   H352      1.0  0.34852  0.36142  0.84551  1.0000
  H   H353      1.0  0.36098  0.38984  0.83483  1.0000
  H   H354      1.0  0.06809  0.25894  0.64236  1.0000
  Fe  Fe48      1.0  0.36304  0.50196  0.85556  1.0000
  C   C235      1.0  0.43708  0.26141  0.67774  1.0000
  H   H355      1.0  0.26289  0.26267  0.57694  1.0000
  N   N23       1.0  0.21672  0.42863  0.99351  1.0000
  H   H356      1.0  0.19944  0.39631  0.00790  1.0000
  H   H357      1.0  0.11130  0.27074  0.67615  1.0000
  H   H358      1.0  0.09356  0.27149  0.70394  1.0000
  H   H359      1.0  0.01474  0.45889  0.80153  1.0000
  C   C236      1.0  0.09256  0.26812  0.68378  1.0000
  N   N24       1.0  0.45136  0.28120  0.66610  1.0000
  H   H360      1.0  0.41917  0.30187  0.65618  1.0000
  C   C237      1.0  0.01851  0.28200  0.77398  1.0000
  H   H361      1.0  0.04286  0.44729  0.81451  1.0000
  H   H362      1.0  0.05055  0.28518  0.70316  1.0000
  C   C238      1.0  0.27658  0.49922  0.74902  1.0000
  H   H363      1.0  0.04559  0.31394  0.84421  1.0000
  H   H364      1.0  0.05670  0.30518  0.81449  1.0000
  H   H365      1.0  0.04392  0.26158  0.68158  1.0000
  H   H366      1.0  0.17403  0.50015  0.59647  1.0000
  H   H367      1.0  0.44701  0.31942  0.65777  1.0000
  H   H368      1.0  0.02531  0.46997  0.83075  1.0000
  C   C239      1.0  0.21380  0.26725  0.57378  1.0000
  H   H369      1.0  0.01287  0.41199  0.86456  1.0000
  C   C240      1.0  0.14081  0.26163  0.63252  1.0000
  H   H370      1.0  0.05157  0.28460  0.75231  1.0000
  S   S96       1.0  0.15678  0.49732  0.65630  1.0000
  N   N25       1.0  0.05603  0.27611  0.84127  1.0000
  H   H371      1.0  0.48584  0.26782  0.68036  1.0000
  H   H372      1.0  0.24572  0.42490  0.96688  1.0000
  H   H373      1.0  0.20526  0.44175  0.95787  1.0000
  H   H374      1.0  0.19576  0.27547  0.57886  1.0000
  C   C241      1.0  0.04038  0.26807  0.86194  1.0000
  H   H375      1.0  0.23305  0.28785  0.51596  1.0000
  H   H376      1.0  0.18981  0.41488  0.96818  1.0000
  H   H377      1.0  0.15241  0.26632  0.64796  1.0000
  C   C242      1.0  0.28657  0.49992  0.77286  1.0000
  H   H378      1.0  0.23335  0.46366  0.98724  1.0000
  N   N26       1.0  0.01004  0.43378  0.83163  1.0000
  H   H379      1.0  0.09075  0.28182  0.63585  1.0000
  H   H380      1.0  0.18211  0.44380  0.98147  1.0000
  H   H381      1.0  0.50529  0.43042  0.87722  1.0000
  H   H382      1.0  0.08953  0.26408  0.85872  1.0000
  H   H383      1.0  0.50812  0.30378  0.78657  1.0000
  H   H384      1.0  0.06759  0.26248  0.80599  1.0000
  H   H385      1.0  0.41966  0.25774  0.66766  1.0000
  H   H386      1.0  0.46799  0.25724  0.63957  1.0000
  H   H387      1.0  0.28124  0.55006  0.36264  1.0000
  S   S97       1.0  0.21613  0.66365  0.49272  1.0000
  Fe  Fe49      1.0  0.16050  0.69138  0.45589  1.0000
  S   S98       1.0  0.19854  0.68852  0.44007  1.0000
  S   S99       1.0  0.12618  0.70535  0.43539  1.0000
  Fe  Fe50      1.0  0.19997  0.65062  0.45665  1.0000
  S   S100      1.0  0.21718  0.61632  0.43958  1.0000
  Fe  Fe51      1.0  0.21140  0.70179  0.47726  1.0000
  S   S101      1.0  0.23561  0.73585  0.47722  1.0000
  S   S102      1.0  0.16098  0.65233  0.46977  1.0000
  S   S103      1.0  0.17310  0.70626  0.49216  1.0000
  H   H388      1.0  0.41446  0.63312  0.13061  1.0000
  C   C243      1.0  0.12791  0.75321  0.34886  1.0000
  S   S104      1.0  0.04328  0.65697  0.14909  1.0000
  Fe  Fe52      1.0  0.34319  0.56828  0.15912  1.0000
  S   S105      1.0  0.34381  0.58331  0.19734  1.0000
  S   S106      1.0  0.33116  0.59334  0.12763  1.0000
  Fe  Fe53      1.0  0.36754  0.51975  0.17630  1.0000
  S   S107      1.0  0.36957  0.53203  0.21573  1.0000
  Fe  Fe54      1.0  0.33103  0.54610  0.20940  1.0000
  S   S108      1.0  0.29556  0.54376  0.23135  1.0000
  Fe  Fe55      1.0  0.38219  0.56805  0.19952  1.0000
  S   S109      1.0  0.41269  0.59098  0.21641  1.0000
  S   S110      1.0  0.32824  0.53190  0.17077  1.0000
  S   S111      1.0  0.38248  0.55489  0.16057  1.0000
  Fe  Fe56      1.0  0.18085  0.67274  0.03191  1.0000
  S   S112      1.0  0.17767  0.71202  0.04368  1.0000
  Fe  Fe57      1.0  0.20717  0.65686  0.07997  1.0000
  S   S113      1.0  0.20561  0.69514  0.09441  1.0000
  S   S114      1.0  0.22035  0.62698  0.10652  1.0000
  Fe  Fe58      1.0  0.16662  0.69591  0.08046  1.0000
  S   S115      1.0  0.13762  0.71150  0.10645  1.0000
  Fe  Fe59      1.0  0.21676  0.70717  0.05644  1.0000
  S   S116      1.0  0.25064  0.73082  0.05065  1.0000
  S   S117      1.0  0.16747  0.65697  0.06769  1.0000
  S   S118      1.0  0.22068  0.66858  0.04282  1.0000
  H   H389      1.0  0.09934  0.72855  0.31696  1.0000
  S   S119      1.0  0.16945  0.53932  0.36586  1.0000
  H   H390      1.0  0.34701  0.64462  0.12603  1.0000
  H   H391      1.0  0.15338  0.75153  0.43866  1.0000
  H   H392      1.0  0.41867  0.65151  0.15756  1.0000
  H   H393      1.0  0.08395  0.70966  0.46814  1.0000
  C   C244      1.0  0.43638  0.60609  0.20000  1.0000
  C   C245      1.0  0.43890  0.60386  0.17452  1.0000
  C   C246      1.0  0.45748  0.61682  0.16209  1.0000
  C   C247      1.0  0.47382  0.63201  0.17496  1.0000
  C   C248      1.0  0.47161  0.63386  0.20048  1.0000
  C   C249      1.0  0.45295  0.62099  0.21290  1.0000
  H   H394      1.0  0.42650  0.59222  0.16439  1.0000
  H   H395      1.0  0.45917  0.61514  0.14235  1.0000
  H   H396      1.0  0.48403  0.64550  0.21063  1.0000
  H   H397      1.0  0.45118  0.62280  0.23263  1.0000
  H   H398      1.0  0.12588  0.74009  0.30114  1.0000
  C   C250      1.0  0.40766  0.64967  0.14037  1.0000
  C   C251      1.0  0.11102  0.68713  0.50286  1.0000
  C   C252      1.0  0.26986  0.55557  0.31500  1.0000
  H   H399      1.0  0.06576  0.72782  0.48869  1.0000
  C   C253      1.0  0.30030  0.60293  0.12243  1.0000
  C   C254      1.0  0.29527  0.62009  0.10371  1.0000
  C   C255      1.0  0.27099  0.62792  0.09880  1.0000
  C   C256      1.0  0.25141  0.61846  0.11244  1.0000
  C   C257      1.0  0.25647  0.60141  0.13125  1.0000
  C   C258      1.0  0.28076  0.59377  0.13632  1.0000
  H   H400      1.0  0.31019  0.62721  0.09275  1.0000
  H   H401      1.0  0.26739  0.64097  0.08422  1.0000
  H   H402      1.0  0.24150  0.59391  0.14189  1.0000
  H   H403      1.0  0.28431  0.58055  0.15077  1.0000
  H   H404      1.0  0.10348  0.74889  0.50242  1.0000
  C   C259      1.0  0.06788  0.67359  0.13571  1.0000
  C   C260      1.0  0.08243  0.66218  0.11771  1.0000
  C   C261      1.0  0.10305  0.67403  0.10762  1.0000
  C   C262      1.0  0.10995  0.69715  0.11609  1.0000
  C   C263      1.0  0.09523  0.70870  0.13389  1.0000
  C   C264      1.0  0.07420  0.69710  0.14352  1.0000
  H   H405      1.0  0.07760  0.64408  0.11140  1.0000
  H   H406      1.0  0.11368  0.66516  0.09342  1.0000
  H   H407      1.0  0.10027  0.72664  0.14047  1.0000
  H   H408      1.0  0.06322  0.70609  0.15738  1.0000
  H   H409      1.0  0.12176  0.73039  0.48230  1.0000
  H   H410      1.0  0.15948  0.53466  0.42714  1.0000
  C   C265      1.0  0.26134  0.51941  0.25867  1.0000
  C   C266      1.0  0.20294  0.59477  0.41989  1.0000
  C   C267      1.0  0.21506  0.57250  0.41510  1.0000
  C   C268      1.0  0.20483  0.55516  0.39896  1.0000
  C   C269      1.0  0.18258  0.56014  0.38704  1.0000
  C   C270      1.0  0.17037  0.58229  0.39194  1.0000
  C   C271      1.0  0.18039  0.59947  0.40840  1.0000
  H   H411      1.0  0.23249  0.56871  0.42396  1.0000
  H   H412      1.0  0.21426  0.53809  0.39559  1.0000
  H   H413      1.0  0.15308  0.58628  0.38288  1.0000
  H   H414      1.0  0.17089  0.61654  0.41187  1.0000
  C   C272      1.0  0.11992  0.73569  0.42507  1.0000
  N   N27       1.0  0.25242  0.55310  0.33567  1.0000
  H   H415      1.0  0.26101  0.56404  0.29855  1.0000
  N   N28       1.0  0.38113  0.64782  0.14580  1.0000
  C   C273      1.0  0.37299  0.66981  0.15928  1.0000
  C   C274      1.0  0.37664  0.62591  0.16107  1.0000
  C   C275      1.0  0.36715  0.64582  0.12255  1.0000
  H   H416      1.0  0.35303  0.66890  0.16365  1.0000
  H   H417      1.0  0.38310  0.67168  0.17701  1.0000
  H   H418      1.0  0.37615  0.68673  0.14833  1.0000
  H   H419      1.0  0.38698  0.62650  0.17877  1.0000
  H   H420      1.0  0.38222  0.60892  0.15134  1.0000
  H   H421      1.0  0.35677  0.62405  0.16545  1.0000
  H   H422      1.0  0.37230  0.62895  0.11230  1.0000
  H   H423      1.0  0.37034  0.66177  0.11026  1.0000
  H   H424      1.0  0.50448  0.59457  0.15194  1.0000
  N   N29       1.0  0.09702  0.71018  0.50543  1.0000
  H   H425      1.0  0.06411  0.69496  0.48993  1.0000
  H   H426      1.0  0.25210  0.53815  0.37227  1.0000
  H   H427      1.0  0.22164  0.54749  0.31139  1.0000
  N   N30       1.0  0.16310  0.65008  0.15307  1.0000
  C   C276      1.0  0.17292  0.62845  0.16624  1.0000
  C   C277      1.0  0.15516  0.64275  0.12823  1.0000
  C   C278      1.0  0.18247  0.66885  0.15102  1.0000
  C   C279      1.0  0.14186  0.66032  0.16653  1.0000
  H   H428      1.0  0.18906  0.62054  0.15636  1.0000
  H   H429      1.0  0.15885  0.61382  0.16775  1.0000
  H   H430      1.0  0.17909  0.63321  0.18512  1.0000
  H   H431      1.0  0.14967  0.65900  0.11722  1.0000
  H   H432      1.0  0.17019  0.63342  0.11804  1.0000
  H   H433      1.0  0.13921  0.63010  0.12879  1.0000
  H   H434      1.0  0.17557  0.68544  0.14115  1.0000
  H   H435      1.0  0.19860  0.66184  0.14056  1.0000
  H   H436      1.0  0.18913  0.67473  0.16938  1.0000
  H   H437      1.0  0.13441  0.67687  0.15704  1.0000
  H   H438      1.0  0.14700  0.66578  0.18551  1.0000
  H   H439      1.0  0.12652  0.64695  0.16778  1.0000
  C   C280      1.0  0.48898  0.73852  0.26840  1.0000
  C   C281      1.0  0.15337  0.51524  0.42723  1.0000
  S   S120      1.0  0.49641  0.64834  0.15822  1.0000
  H   H440      1.0  0.32303  0.51072  0.26389  1.0000
  H   H441      1.0  0.08482  0.72588  0.40964  1.0000
  H   H442      1.0  0.27049  0.52134  0.35078  1.0000
  H   H443      1.0  0.33596  0.73515  0.46774  1.0000
  H   H444      1.0  0.21681  0.53768  0.34246  1.0000
  H   H445      1.0  0.11959  0.73673  0.35756  1.0000
  H   H446      1.0  0.23096  0.57644  0.35919  1.0000
  C   C282      1.0  0.25501  0.75351  0.02790  1.0000
  C   C283      1.0  0.10814  0.74546  0.30975  1.0000
  H   H447      1.0  0.32407  0.74719  0.49581  1.0000
  C   C284      1.0  0.26462  0.54013  0.35626  1.0000
  C   C285      1.0  0.09767  0.74060  0.41269  1.0000
  H   H448      1.0  0.26014  0.58876  0.35036  1.0000
  H   H449      1.0  0.24803  0.53001  0.24829  1.0000
  H   H450      1.0  0.14616  0.74779  0.34143  1.0000
  H   H451      1.0  0.41177  0.66582  0.12860  1.0000
  H   H452      1.0  0.02728  0.74940  0.22088  1.0000
  C   C286      1.0  0.24438  0.57764  0.34379  1.0000
  H   H453      1.0  0.23521  0.58790  0.32860  1.0000
  H   H454      1.0  0.27717  0.53746  0.30926  1.0000
  C   C287      1.0  0.23078  0.53896  0.32763  1.0000
  H   H455      1.0  0.11863  0.68514  0.48401  1.0000
  C   C288      1.0  0.30359  0.50832  0.26712  1.0000
  H   H456      1.0  0.23598  0.51995  0.32257  1.0000
  H   H457      1.0  0.13348  0.51505  0.43183  1.0000
  H   H458      1.0  0.37764  0.74564  0.48448  1.0000
  H   H459      1.0  0.47347  0.72667  0.27182  1.0000
  H   H460      1.0  0.28593  0.56701  0.32008  1.0000
  Fe  Fe60      1.0  0.17681  0.66709  0.50497  1.0000
  H   H461      1.0  0.17144  0.52948  0.47074  1.0000
  H   H462      1.0  0.20159  0.51989  0.43859  1.0000
  H   H463      1.0  0.07887  0.75405  0.34897  1.0000
  C   C289      1.0  0.07676  0.71068  0.48729  1.0000
  C   C290      1.0  0.25708  0.74481  0.50000  1.0000
  C   C291      1.0  0.28651  0.52209  0.25366  1.0000
  C   C292      1.0  0.16512  0.51014  0.46976  1.0000
  H   H464      1.0  0.50453  0.56057  0.18186  1.0000
  C   C293      1.0  0.02634  0.75544  0.23979  1.0000
  C   C294      1.0  0.11347  0.73118  0.50100  1.0000
  C   C295      1.0  0.13621  0.75497  0.42915  1.0000
  H   H465      1.0  0.14558  0.50974  0.47574  1.0000
  H   H466      1.0  0.29409  0.74719  0.02659  1.0000
  H   H467      1.0  0.50868  0.71148  0.24703  1.0000
  H   H468      1.0  0.01284  0.65951  0.27251  1.0000
  C   C296      1.0  0.32945  0.75222  0.47673  1.0000
  H   H469      1.0  0.09604  0.75293  0.29489  1.0000
  H   H470      1.0  0.01506  0.62908  0.28524  1.0000
  H   H471      1.0  0.15523  0.50843  0.40806  1.0000
  H   H472      1.0  0.09944  0.67082  0.50657  1.0000
  C   C297      1.0  0.50888  0.72987  0.25431  1.0000
  Fe  Fe61      1.0  0.00956  0.67223  0.16877  1.0000
  Fe  Fe62      1.0  0.07886  0.66534  0.84394  1.0000
  S   S121      1.0  0.09279  0.70290  0.85264  1.0000
  S   S122      1.0  0.10876  0.64197  0.82595  1.0000
  Fe  Fe63      1.0  0.02875  0.67709  0.86755  1.0000
  S   S123      1.0  0.03955  0.71563  0.87671  1.0000
  Fe  Fe64      1.0  0.05626  0.71639  0.83884  1.0000
  H   H473      1.0  0.36442  0.58308  0.76149  1.0000
  Fe  Fe65      1.0  0.07521  0.69864  0.88956  1.0000
  S   S124      1.0  0.09161  0.71311  0.92521  1.0000
  S   S125      1.0  0.04296  0.67892  0.82835  1.0000
  S   S126      1.0  0.06373  0.65999  0.88227  1.0000
  Fe  Fe66      1.0  0.17177  0.53087  0.67608  1.0000
  S   S127      1.0  0.21056  0.54478  0.67563  1.0000
  Fe  Fe67      1.0  0.15269  0.57659  0.70384  1.0000
  S   S128      1.0  0.19000  0.59390  0.70378  1.0000
  S   S129      1.0  0.11769  0.59278  0.72042  1.0000
  Fe  Fe68      1.0  0.19310  0.58080  0.66454  1.0000
  S   S130      1.0  0.21060  0.60018  0.63165  1.0000
  Fe  Fe69      1.0  0.20376  0.55637  0.71475  1.0000
  S   S131      1.0  0.22698  0.55534  0.74978  1.0000
  S   S132      1.0  0.15468  0.56642  0.66375  1.0000
  S   S133      1.0  0.16605  0.53961  0.71614  1.0000
  S   S134      1.0  0.37456  0.53899  0.87095  1.0000
  S   S135      1.0  0.15858  0.65399  0.54054  1.0000
  Fe  Fe70      1.0  0.46127  0.65268  0.83085  1.0000
  S   S136      1.0  0.47951  0.66003  0.86723  1.0000
  S   S137      1.0  0.44192  0.61814  0.81754  1.0000
  Fe  Fe71      1.0  0.47757  0.70232  0.80956  1.0000
  S   S138      1.0  0.47611  0.72394  0.77378  1.0000
  Fe  Fe72      1.0  0.46308  0.69808  0.86366  1.0000
  S   S139      1.0  0.44420  0.71343  0.89797  1.0000
  S   S140      1.0  0.49421  0.66474  0.80889  1.0000
  S   S141      1.0  0.44305  0.68964  0.82847  1.0000
  C   C298      1.0  0.38510  0.65505  0.85721  1.0000
  C   C299      1.0  0.08691  0.71166  0.53059  1.0000
  H   H474      1.0  0.12675  0.68636  0.51593  1.0000
  H   H475      1.0  0.41129  0.67225  0.91125  1.0000
  C   C300      1.0  0.01581  0.74883  0.78941  1.0000
  H   H476      1.0  0.40196  0.65744  0.84588  1.0000
  H   H477      1.0  0.23531  0.70932  0.99933  1.0000
  H   H478      1.0  0.26068  0.70943  0.51708  1.0000
  H   H479      1.0  0.18161  0.71079  0.98851  1.0000
  H   H480      1.0  0.08232  0.73865  0.76377  1.0000
  H   H481      1.0  0.16938  0.51461  0.56715  1.0000
  C   C301      1.0  0.39510  0.55976  0.85658  1.0000
  C   C302      1.0  0.40299  0.58056  0.86950  1.0000
  C   C303      1.0  0.41830  0.59808  0.85821  1.0000
  C   C304      1.0  0.42518  0.59537  0.83362  1.0000
  C   C305      1.0  0.41765  0.57436  0.82087  1.0000
  C   C306      1.0  0.40299  0.55649  0.83237  1.0000
  H   H482      1.0  0.39733  0.58303  0.88839  1.0000
  H   H483      1.0  0.42461  0.61376  0.86838  1.0000
  H   H484      1.0  0.42328  0.57188  0.80197  1.0000
  H   H485      1.0  0.39767  0.54028  0.82249  1.0000
  C   C307      1.0  0.19566  0.61509  0.60655  1.0000
  C   C308      1.0  0.20989  0.62352  0.58670  1.0000
  C   C309      1.0  0.19886  0.63519  0.56627  1.0000
  C   C310      1.0  0.17340  0.63873  0.56551  1.0000
  C   C311      1.0  0.15913  0.63014  0.58529  1.0000
  C   C312      1.0  0.17015  0.61833  0.60566  1.0000
  H   H486      1.0  0.22964  0.62118  0.58720  1.0000
  H   H487      1.0  0.21011  0.64176  0.55127  1.0000
  H   H488      1.0  0.13944  0.63283  0.58496  1.0000
  H   H489      1.0  0.15894  0.61208  0.62082  1.0000
  C   C313      1.0  0.24927  0.53320  0.75830  1.0000
  C   C314      1.0  0.25906  0.53375  0.78225  1.0000
  C   C315      1.0  0.20801  0.53141  0.61308  1.0000
  H   H490      1.0  0.25243  0.54723  0.79517  1.0000
  C   C316      1.0  0.49992  0.74405  0.76523  1.0000
  C   C317      1.0  0.11217  0.69679  0.94458  1.0000
  C   C318      1.0  0.11740  0.70613  0.96805  1.0000
  C   C319      1.0  0.13422  0.69422  0.98379  1.0000
  C   C320      1.0  0.14638  0.67305  0.97600  1.0000
  C   C321      1.0  0.14110  0.66363  0.95257  1.0000
  C   C322      1.0  0.12398  0.67535  0.93696  1.0000
  H   H491      1.0  0.10826  0.72264  0.97413  1.0000
  H   H492      1.0  0.13075  0.54123  0.78902  1.0000
  H   H493      1.0  0.15036  0.64723  0.94640  1.0000
  H   H494      1.0  0.12010  0.66799  0.91893  1.0000
  C   C323      1.0  0.20162  0.55132  0.57397  1.0000
  C   C324      1.0  0.22953  0.73370  0.95612  1.0000
  H   H495      1.0  0.37104  0.70169  0.86461  1.0000
  H   H496      1.0  0.12890  0.73146  0.51447  1.0000
  C   C325      1.0  0.11040  0.63076  0.79548  1.0000
  C   C326      1.0  0.08953  0.62335  0.78251  1.0000
  C   C327      1.0  0.09203  0.61221  0.75929  1.0000
  C   C328      1.0  0.11536  0.60839  0.74883  1.0000
  C   C329      1.0  0.13611  0.61675  0.76134  1.0000
  C   C330      1.0  0.13363  0.62771  0.78463  1.0000
  H   H497      1.0  0.07155  0.62538  0.79073  1.0000
  H   H498      1.0  0.07585  0.60593  0.74965  1.0000
  H   H499      1.0  0.15407  0.61454  0.75315  1.0000
  H   H500      1.0  0.14982  0.63375  0.79441  1.0000
  H   H501      1.0  0.13164  0.57398  0.79047  1.0000
  H   H502      1.0  0.21930  0.69044  0.93524  1.0000
  H   H503      1.0  0.19964  0.73722  0.99488  1.0000
  H   H504      1.0  0.35181  0.54431  0.81597  1.0000
  H   H505      1.0  0.31815  0.53396  0.75650  1.0000
  S   S142      1.0  0.16950  0.65882  0.99421  1.0000
  C   C331      1.0  0.19314  0.72513  0.97986  1.0000
  C   C332      1.0  0.28544  0.73569  0.53345  1.0000
  H   H506      1.0  0.38853  0.70637  0.89223  1.0000
  C   C333      1.0  0.36481  0.66360  0.89572  1.0000
  H   H507      1.0  0.18362  0.55593  0.83053  1.0000
  C   C334      1.0  0.35690  0.57677  0.77943  1.0000
  H   H508      1.0  0.19266  0.68372  0.95325  1.0000
  H   H509      1.0  0.22425  0.52080  0.60670  1.0000
  H   H510      1.0  0.07641  0.72894  0.53337  1.0000
  H   H511      1.0  0.15463  0.55259  0.58833  1.0000
  C   C335      1.0  0.22854  0.69867  0.98326  1.0000
  H   H512      1.0  0.42895  0.75216  0.86347  1.0000
  H   H513      1.0  0.06967  0.67372  0.77894  1.0000
  H   H514      1.0  0.18861  0.55542  0.55870  1.0000
  C   C336      1.0  0.26692  0.72820  0.51700  1.0000
  H   H515      1.0  0.10023  0.71593  0.79848  1.0000
  H   H516      1.0  0.38308  0.63509  0.86067  1.0000
  H   H517      1.0  0.09370  0.68144  0.72837  1.0000
  N   N31       1.0  0.21388  0.71411  0.96630  1.0000
  H   H518      1.0  0.12348  0.68971  0.73999  1.0000
  C   C337      1.0  0.42663  0.74081  0.90130  1.0000
  H   H519      1.0  0.21487  0.54892  0.62084  1.0000
  H   H520      1.0  0.16888  0.51695  0.79300  1.0000
  H   H521      1.0  0.32205  0.55658  0.80857  1.0000
  H   H522      1.0  0.12725  0.70941  0.78080  1.0000
  H   H523      1.0  0.18078  0.53260  0.76658  1.0000
  C   C338      1.0  0.10843  0.70287  0.78512  1.0000
  H   H524      1.0  0.33147  0.55975  0.74142  1.0000
  H   H525      1.0  0.35743  0.51569  0.76766  1.0000
  H   H526      1.0  0.10684  0.66505  0.75379  1.0000
  H   H527      1.0  0.20749  0.56922  0.58176  1.0000
  C   C339      1.0  0.32555  0.55262  0.75965  1.0000
  H   H528      1.0  0.07886  0.72446  0.73433  1.0000
  H   H529      1.0  0.15583  0.57372  0.82838  1.0000
  H   H530      1.0  0.10895  0.73249  0.74543  1.0000
  C   C340      1.0  0.41674  0.74660  0.92449  1.0000
  C   C341      1.0  0.18282  0.51208  0.58236  1.0000
  H   H531      1.0  0.42051  0.73473  0.94000  1.0000
  H   H532      1.0  0.18184  0.57853  0.76583  1.0000
  H   H533      1.0  0.07433  0.69613  0.53453  1.0000
  H   H534      1.0  0.38096  0.53385  0.78174  1.0000
  C   C342      1.0  0.33694  0.54433  0.80187  1.0000
  H   H535      1.0  0.10185  0.71097  0.54464  1.0000
  N   N32       1.0  0.38661  0.66889  0.88047  1.0000
  H   H536      1.0  0.36917  0.66107  0.84584  1.0000
  H   H537      1.0  0.37205  0.53963  0.75044  1.0000
  H   H538      1.0  0.13784  0.70154  0.00187  1.0000
  N   N33       1.0  0.19018  0.53577  0.59304  1.0000
  C   C343      1.0  0.10480  0.68355  0.74543  1.0000
  H   H539      1.0  0.32939  0.52549  0.80123  1.0000
  H   H540      1.0  0.31002  0.56421  0.76617  1.0000
  C   C344      1.0  0.36500  0.53459  0.76895  1.0000
  S   S143      1.0  0.49638  0.71335  0.84453  1.0000
  C   C345      1.0  0.20422  0.69891  0.94607  1.0000
  H   H541      1.0  0.15891  0.53687  0.61712  1.0000
  N   N34       1.0  0.34610  0.55209  0.77748  1.0000
  H   H542      1.0  0.36550  0.67380  0.91341  1.0000
  N   N35       1.0  0.16680  0.55628  0.79476  1.0000
  C   C346      1.0  0.18125  0.57751  0.78629  1.0000
  C   C347      1.0  0.16507  0.55670  0.82187  1.0000
  C   C348      1.0  0.17911  0.53345  0.78692  1.0000
  C   C349      1.0  0.14184  0.55753  0.78401  1.0000
  H   H543      1.0  0.40877  0.64180  0.89909  1.0000
  H   H544      1.0  0.20065  0.57641  0.79277  1.0000
  H   H545      1.0  0.17340  0.59499  0.79307  1.0000
  H   H546      1.0  0.37226  0.57707  0.79298  1.0000
  H   H547      1.0  0.14244  0.55858  0.76355  1.0000
  H   H548      1.0  0.25057  0.51508  0.72329  1.0000
  H   H549      1.0  0.28485  0.51769  0.80806  1.0000
  H   H550      1.0  0.23760  0.74506  0.97100  1.0000
  N   N36       1.0  0.09314  0.70084  0.76274  1.0000
  C   C350      1.0  0.40904  0.66152  0.89402  1.0000
  C   C351      1.0  0.38748  0.69539  0.87505  1.0000
  H   H551      1.0  0.42584  0.66476  0.88286  1.0000
  H   H552      1.0  0.19817  0.53212  0.79433  1.0000
  C   C352      1.0  0.50197  0.75158  0.74057  1.0000
  H   H553      1.0  0.17333  0.56587  0.61186  1.0000
  H   H554      1.0  0.24478  0.69055  0.97394  1.0000
  C   C353      1.0  0.16827  0.54831  0.60298  1.0000
  H   H555      1.0  0.19244  0.70978  0.93329  1.0000
  C   C354      1.0  0.27749  0.51707  0.78960  1.0000
  C   C355      1.0  0.09075  0.72515  0.75098  1.0000
  H   H556      1.0  0.40396  0.70019  0.86400  1.0000
  H   H557      1.0  0.21740  0.68325  0.99060  1.0000
  H   H558      1.0  0.15432  0.54091  0.82893  1.0000
  H   H559      1.0  0.34755  0.66895  0.88608  1.0000
  H   H560      1.0  0.05651  0.68966  0.75307  1.0000
  H   H561      1.0  0.05904  0.70468  0.78218  1.0000
  H   H562      1.0  0.36362  0.64376  0.90027  1.0000
  H   H563      1.0  0.29338  0.72253  0.54611  1.0000
  H   H564      1.0  0.11027  0.68496  0.79476  1.0000
  C   C356      1.0  0.06850  0.69179  0.76949  1.0000
  H   H565      1.0  0.34300  0.59042  0.78551  1.0000
  H   H566      1.0  0.18094  0.73609  0.96756  1.0000
  C   C357      1.0  0.25792  0.51568  0.74178  1.0000
  H   H567      1.0  0.21886  0.74611  0.94380  1.0000
  H   H568      1.0  0.48873  0.74523  0.72720  1.0000
  H   H569      1.0  0.21825  0.54245  0.56609  1.0000
  H   H570      1.0  0.24511  0.72604  0.94536  1.0000
  H   H571      1.0  0.01061  0.73429  0.80189  1.0000
  H   H572      1.0  0.19945  0.52101  0.62839  1.0000
  S   S144      1.0  0.06111  0.74865  0.81268  1.0000
  C   C358      1.0  0.42156  0.75634  0.88143  1.0000
  S   S145      1.0  0.36963  0.86148  0.48959  1.0000
  Fe  Fe73      1.0  0.06911  0.87724  0.34107  1.0000
  S   S146      1.0  0.05408  0.86487  0.37745  1.0000
  S   S147      1.0  0.07870  0.91767  0.33705  1.0000
  Fe  Fe74      1.0  0.05683  0.82741  0.31757  1.0000
  S   S148      1.0  0.04090  0.81214  0.35241  1.0000
  S   S149      1.0  0.06122  0.80553  0.28243  1.0000
  Fe  Fe75      1.0  0.02283  0.84936  0.35556  1.0000
  Fe  Fe76      1.0  0.07381  0.82916  0.37072  1.0000
  S   S150      1.0  0.10188  0.81418  0.39837  1.0000
  S   S151      1.0  0.03667  0.86335  0.31945  1.0000
  S   S152      1.0  0.09080  0.84269  0.33552  1.0000
  S   S153      1.0  0.36789  0.86118  0.03106  1.0000
  Fe  Fe77      1.0  0.45291  0.82397  0.37411  1.0000
  S   S154      1.0  0.46493  0.86204  0.36446  1.0000
  S   S155      1.0  0.44275  0.81144  0.41289  1.0000
  Fe  Fe78      1.0  0.46785  0.80462  0.32267  1.0000
  C   C359      1.0  0.09177  0.76445  0.40446  1.0000
  Fe  Fe79      1.0  0.44690  0.85597  0.32748  1.0000
  S   S156      1.0  0.41669  0.88035  0.31113  1.0000
  S   S157      1.0  0.48695  0.80562  0.35925  1.0000
  S   S158      1.0  0.43256  0.81896  0.33855  1.0000
  S   S159      1.0  0.31344  0.98496  0.15427  1.0000
  Fe  Fe80      1.0  0.36461  0.94977  0.18976  1.0000
  S   S160      1.0  0.32772  0.93305  0.18118  1.0000
  S   S161      1.0  0.39784  0.92912  0.20557  1.0000
  Fe  Fe81      1.0  0.33203  0.94975  0.14349  1.0000
  S   S162      1.0  0.31862  0.93581  0.10637  1.0000
  Fe  Fe82      1.0  0.31236  0.96974  0.19263  1.0000
  S   S163      1.0  0.27603  0.97293  0.21309  1.0000
  S   S164      1.0  0.36977  0.96414  0.15101  1.0000
  H   H573      1.0  0.34111  0.78227  0.43940  1.0000
  S   S165      1.0  0.17624  0.97975  0.35407  1.0000
  S   S166      1.0  0.48151  0.84128  0.31019  1.0000
  C   C360      1.0  0.04246  0.77364  0.24837  1.0000
  H   H574      1.0  0.43453  0.78339  0.24882  1.0000
  H   H575      1.0  0.38816  0.80297  0.27395  1.0000
  H   H576      1.0  0.49756  0.82569  0.41210  1.0000
  C   C361      1.0  0.41223  0.89440  0.28187  1.0000
  C   C362      1.0  0.38904  0.90447  0.27621  1.0000
  C   C363      1.0  0.38431  0.91528  0.25306  1.0000
  C   C364      1.0  0.40277  0.91613  0.23523  1.0000
  C   C365      1.0  0.42597  0.90607  0.24089  1.0000
  C   C366      1.0  0.43077  0.89542  0.26410  1.0000
  H   H577      1.0  0.37459  0.90388  0.28982  1.0000
  H   H578      1.0  0.36639  0.92293  0.24900  1.0000
  H   H579      1.0  0.44043  0.90682  0.22729  1.0000
  H   H580      1.0  0.44887  0.88834  0.26829  1.0000
  H   H581      1.0  0.14130  0.78156  0.31035  1.0000
  H   H582      1.0  0.41753  0.79782  0.28822  1.0000
  C   C367      1.0  0.35492  0.88300  0.05144  1.0000
  C   C368      1.0  0.36513  0.88598  0.07503  1.0000
  C   C369      1.0  0.35447  0.90224  0.09210  1.0000
  C   C370      1.0  0.33329  0.91544  0.08578  1.0000
  C   C371      1.0  0.32322  0.91257  0.06218  1.0000
  C   C372      1.0  0.33404  0.89660  0.04507  1.0000
  H   H583      1.0  0.38133  0.87560  0.08015  1.0000
  H   H584      1.0  0.36248  0.90433  0.11019  1.0000
  H   H585      1.0  0.30695  0.92284  0.05704  1.0000
  H   H586      1.0  0.32612  0.89484  0.02698  1.0000
  N   N37       1.0  0.34859  0.77135  0.47667  1.0000
  C   C373      1.0  0.21611  0.97482  0.30268  1.0000
  C   C374      1.0  0.33850  0.79414  0.48721  1.0000
  S   S167      1.0  0.34890  0.98550  0.20353  1.0000
  C   C375      1.0  0.10653  0.93429  0.33999  1.0000
  C   C376      1.0  0.12925  0.92283  0.34393  1.0000
  C   C377      1.0  0.15046  0.93700  0.34801  1.0000
  C   C378      1.0  0.14929  0.96273  0.34768  1.0000
  C   C379      1.0  0.12672  0.97415  0.34308  1.0000
  C   C380      1.0  0.10548  0.95999  0.33937  1.0000
  H   H587      1.0  0.13048  0.90309  0.34384  1.0000
  H   H588      1.0  0.16788  0.92800  0.35139  1.0000
  H   H589      1.0  0.12554  0.99391  0.34274  1.0000
  H   H590      1.0  0.08804  0.96905  0.33620  1.0000
  C   C381      1.0  0.04119  0.78198  0.27275  1.0000
  Fe  Fe83      1.0  0.35088  0.99826  0.16407  1.0000
  C   C382      1.0  0.44264  0.83009  0.26098  1.0000
  H   H591      1.0  0.49087  0.83510  0.47922  1.0000
  C   C383      1.0  0.10813  0.78372  0.40847  1.0000
  H   H592      1.0  0.22969  0.98839  0.23236  1.0000
  H   H593      1.0  0.27683  0.97544  0.31760  1.0000
  C   C384      1.0  0.02402  0.77155  0.28871  1.0000
  H   H594      1.0  0.37099  0.79063  0.45050  1.0000
  C   C385      1.0  0.39020  0.84761  0.46842  1.0000
  C   C386      1.0  0.39256  0.85739  0.44458  1.0000
  C   C387      1.0  0.40855  0.84661  0.42729  1.0000
  C   C388      1.0  0.42220  0.82579  0.43366  1.0000
  C   C389      1.0  0.41987  0.81606  0.45751  1.0000
  C   C390      1.0  0.40410  0.82697  0.47483  1.0000
  H   H595      1.0  0.38193  0.87338  0.43943  1.0000
  H   H596      1.0  0.41018  0.85433  0.40902  1.0000
  H   H597      1.0  0.43046  0.80004  0.46267  1.0000
  H   H598      1.0  0.40285  0.81950  0.49320  1.0000
  C   C391      1.0  0.24372  0.99947  0.24092  1.0000
  C   C392      1.0  0.24443  0.94076  0.30254  1.0000
  C   C393      1.0  0.12331  0.78580  0.31905  1.0000
  H   H599      1.0  0.32190  0.80052  0.47705  1.0000
  C   C394      1.0  0.36971  0.76297  0.49168  1.0000
  H   H600      1.0  0.40530  0.78837  0.23417  1.0000
  S   S168      1.0  0.46487  0.77161  0.29770  1.0000
  C   C395      1.0  0.35671  0.77609  0.45118  1.0000
  H   H601      1.0  0.44029  0.84547  0.27409  1.0000
  N   N38       1.0  0.10945  0.90377  0.41490  1.0000
  C   C396      1.0  0.11363  0.88653  0.39447  1.0000
  C   C397      1.0  0.08314  0.90368  0.42161  1.0000
  C   C398      1.0  0.11657  0.92871  0.40715  1.0000
  C   C399      1.0  0.12439  0.89611  0.43633  1.0000
  H   H602      1.0  0.10859  0.86749  0.39972  1.0000
  H   H603      1.0  0.13322  0.88627  0.38867  1.0000
  H   H604      1.0  0.10241  0.89159  0.37809  1.0000
  H   H605      1.0  0.07700  0.88505  0.42718  1.0000
  H   H606      1.0  0.07930  0.91629  0.43716  1.0000
  H   H607      1.0  0.07141  0.90961  0.40583  1.0000
  H   H608      1.0  0.11427  0.94213  0.42230  1.0000
  H   H609      1.0  0.10512  0.93526  0.39143  1.0000
  H   H610      1.0  0.13609  0.92941  0.40109  1.0000
  H   H611      1.0  0.14435  0.89607  0.43185  1.0000
  H   H612      1.0  0.11953  0.87726  0.44245  1.0000
  H   H613      1.0  0.12160  0.90857  0.45222  1.0000
  H   H614      1.0  0.26156  0.93266  0.31034  1.0000
  H   H615      1.0  0.22919  0.92763  0.30581  1.0000
  H   H616      1.0  0.41242  0.84385  0.22463  1.0000
  H   H617      1.0  0.12662  0.79976  0.33354  1.0000
  C   C400      1.0  0.48938  0.76205  0.27867  1.0000
  C   C401      1.0  0.27900  0.75826  0.01976  1.0000
  H   H618      1.0  0.48481  0.81481  0.45394  1.0000
  H   H619      1.0  0.21742  0.97625  0.28233  1.0000
  C   C402      1.0  0.33219  0.99495  0.08369  1.0000
  N   N39       1.0  0.50451  0.84746  0.44417  1.0000
  H   H620      1.0  0.31716  0.81223  0.02757  1.0000
  C   C403      1.0  0.23562  0.76790  0.01900  1.0000
  H   H621      1.0  0.45202  0.83739  0.24435  1.0000
  C   C404      1.0  0.40630  0.81143  0.27777  1.0000
  H   H622      1.0  0.47905  0.85264  0.41449  1.0000
  N   N40       1.0  0.41875  0.81898  0.25485  1.0000
  H   H623      1.0  0.25784  0.78212  0.48711  1.0000
  H   H624      1.0  0.46750  0.84245  0.45696  1.0000
  H   H625      1.0  0.19998  0.96309  0.30701  1.0000
  H   H626      1.0  0.21189  0.99338  0.30991  1.0000
  H   H627      1.0  0.34672  0.99281  0.03665  1.0000
  H   H628      1.0  0.38525  0.82921  0.23629  1.0000
  H   H629      1.0  0.14309  0.79353  0.42427  1.0000
  H   H630      1.0  0.35644  0.95718  0.06310  1.0000
  H   H631      1.0  0.24702  0.94231  0.28225  1.0000
  C   C405      1.0  0.42290  0.79733  0.23918  1.0000
  H   H632      1.0  0.25546  0.00054  0.31536  1.0000
  H   H633      1.0  0.45523  0.81651  0.26971  1.0000
  N   N41       1.0  0.30360  0.82418  0.06261  1.0000
  C   C406      1.0  0.30719  0.82790  0.03596  1.0000
  C   C407      1.0  0.32779  0.82097  0.07464  1.0000
  C   C408      1.0  0.28849  0.80212  0.06669  1.0000
  C   C409      1.0  0.29102  0.84578  0.07303  1.0000
  H   H634      1.0  0.28939  0.83006  0.02605  1.0000
  H   H635      1.0  0.32022  0.98266  0.07266  1.0000
  H   H636      1.0  0.31824  0.84455  0.03228  1.0000
  H   H637      1.0  0.32588  0.81801  0.09479  1.0000
  H   H638      1.0  0.33803  0.80512  0.06687  1.0000
  H   H639      1.0  0.33960  0.83735  0.07192  1.0000
  H   H640      1.0  0.28475  0.79905  0.08656  1.0000
  H   H641      1.0  0.29783  0.78542  0.05963  1.0000
  H   H642      1.0  0.27044  0.80352  0.05705  1.0000
  H   H643      1.0  0.39945  0.85335  0.25328  1.0000
  H   H644      1.0  0.28793  0.84365  0.09314  1.0000
  H   H645      1.0  0.30209  0.86268  0.07037  1.0000
  H   H646      1.0  0.36679  0.96155  0.09399  1.0000
  H   H647      1.0  0.13119  0.76665  0.36385  1.0000
  C   C410      1.0  0.40329  0.83707  0.24164  1.0000
  H   H648      1.0  0.26333  0.98313  0.28857  1.0000
  C   C411      1.0  0.13030  0.77881  0.42094  1.0000
  H   H649      1.0  0.38682  0.96857  0.06873  1.0000
  C   C412      1.0  0.49778  0.84516  0.41798  1.0000
  C   C413      1.0  0.48620  0.83440  0.45933  1.0000
  C   C414      1.0  0.26847  0.99596  0.23448  1.0000
  H   H650      1.0  0.08982  0.78446  0.35451  1.0000
  H   H651      1.0  0.43253  0.80237  0.22185  1.0000
  C   C415      1.0  0.26547  0.76912  0.50010  1.0000
  N   N42       1.0  0.23898  0.96485  0.31356  1.0000
  C   C416      1.0  0.23582  0.96208  0.34041  1.0000
  C   C417      1.0  0.25954  0.98173  0.30860  1.0000
  H   H652      1.0  0.40309  0.82738  0.29012  1.0000
  N   N43       1.0  0.35774  0.99477  0.07457  1.0000
  H   H653      1.0  0.05577  0.78150  0.23591  1.0000
  H   H654      1.0  0.33313  0.79145  0.50673  1.0000
  H   H655      1.0  0.38459  0.77686  0.49198  1.0000
  H   H656      1.0  0.25268  0.95467  0.34935  1.0000
  Fe  Fe84      1.0  0.49814  0.84339  0.34825  1.0000
  H   H657      1.0  0.07437  0.76797  0.39547  1.0000
  H   H658      1.0  0.35219  0.80920  0.48672  1.0000
  C   C418      1.0  0.08780  0.77014  0.34019  1.0000
  H   H659      1.0  0.22034  0.94955  0.34484  1.0000
  H   H660      1.0  0.27284  0.84894  0.06412  1.0000
  H   H661      1.0  0.33127  0.98833  0.10302  1.0000
  H   H662      1.0  0.07498  0.77736  0.32592  1.0000
  H   H663      1.0  0.37303  0.00388  0.10985  1.0000
  H   H664      1.0  0.11135  0.79443  0.30474  1.0000
  H   H665      1.0  0.02316  0.77739  0.30765  1.0000
  H   H666      1.0  0.21718  0.76483  0.02570  1.0000
  H   H667      1.0  0.23145  0.97994  0.34919  1.0000
  H   H668      1.0  0.31244  0.75838  0.46706  1.0000
  C   C419      1.0  0.36743  0.96946  0.07510  1.0000
  H   H669      1.0  0.34123  0.93420  0.50459  1.0000
  H   H670      1.0  0.48646  0.88229  0.44781  1.0000
  H   H671      1.0  0.36475  0.75939  0.44269  1.0000
  C   C420      1.0  0.50477  0.87361  0.45092  1.0000
  N   N44       1.0  0.11183  0.76362  0.32946  1.0000
  C   C421      1.0  0.35823  0.00420  0.04907  1.0000
  H   H672      1.0  0.37723  0.00420  0.04153  1.0000
  H   H673      1.0  0.31117  0.94694  0.50970  1.0000
  C   C422      1.0  0.50938  0.77728  0.27394  1.0000
  Fe  Fe85      1.0  0.35260  0.85428  0.99258  1.0000
  H   H674      1.0  0.50333  0.81964  0.70063  1.0000
  S   S169      1.0  0.04848  0.86788  0.65475  1.0000
  H   H675      1.0  0.31847  0.96025  0.56335  1.0000
  Fe  Fe86      1.0  0.33866  0.85587  0.57734  1.0000
  S   S170      1.0  0.35018  0.81918  0.59270  1.0000
  S   S171      1.0  0.32171  0.88519  0.60217  1.0000
  Fe  Fe87      1.0  0.36329  0.84548  0.52774  1.0000
  S   S172      1.0  0.37618  0.80845  0.53975  1.0000
  Fe  Fe88      1.0  0.33841  0.80439  0.55586  1.0000
  N   N45       1.0  0.32713  0.92890  0.54109  1.0000
  Fe  Fe89      1.0  0.38702  0.82644  0.57537  1.0000
  S   S173      1.0  0.42419  0.81406  0.59095  1.0000
  S   S174      1.0  0.32454  0.84053  0.54159  1.0000
  S   S175      1.0  0.37646  0.86402  0.56214  1.0000
  Fe  Fe90      1.0  0.16287  0.95044  0.69007  1.0000
  S   S176      1.0  0.16054  0.96369  0.65106  1.0000
  S   S177      1.0  0.13446  0.92608  0.70865  1.0000
  Fe  Fe91      1.0  0.21299  0.97501  0.69819  1.0000
  S   S178      1.0  0.21368  0.98950  0.65948  1.0000
  S   S179      1.0  0.24884  0.98080  0.71882  1.0000
  H   H676      1.0  0.28964  0.92992  0.80887  1.0000
  Fe  Fe92      1.0  0.20045  0.95229  0.64837  1.0000
  S   S180      1.0  0.21321  0.92841  0.61627  1.0000
  S   S181      1.0  0.17408  0.98705  0.70569  1.0000
  S   S182      1.0  0.20193  0.93713  0.68666  1.0000
  H   H677      1.0  0.46626  0.86093  0.70744  1.0000
  Fe  Fe93      1.0  0.33051  0.87852  0.94661  1.0000
  S   S183      1.0  0.36902  0.86710  0.95662  1.0000
  S   S184      1.0  0.31436  0.91408  0.93137  1.0000
  Fe  Fe94      1.0  0.30829  0.83104  0.96790  1.0000
  S   S185      1.0  0.34509  0.81582  0.97913  1.0000
  S   S186      1.0  0.26969  0.81633  0.97365  1.0000
  H   H678      1.0  0.28420  0.94928  0.85033  1.0000
  Fe  Fe95      1.0  0.35854  0.82961  0.94228  1.0000
  S   S187      1.0  0.37924  0.81058  0.91096  1.0000
  S   S188      1.0  0.31510  0.86820  0.98351  1.0000
  S   S189      1.0  0.32082  0.84222  0.93026  1.0000
  H   H679      1.0  0.32805  0.89447  0.52202  1.0000
  H   H680      1.0  0.17022  0.86006  0.68639  1.0000
  H   H681      1.0  0.30979  0.93154  0.57646  1.0000
  C   C423      1.0  0.39734  0.78348  0.90804  1.0000
  H   H682      1.0  0.30145  0.94781  0.78379  1.0000
  H   H683      1.0  0.17089  0.84776  0.61897  1.0000
  H   H684      1.0  0.06395  0.78576  0.77563  1.0000
  C   C424      1.0  0.03927  0.75897  0.79090  1.0000
  H   H685      1.0  0.26788  0.90404  0.90331  1.0000
  C   C425      1.0  0.45157  0.82264  0.73528  1.0000
  S   S190      1.0  0.50037  0.86656  0.66280  1.0000
  H   H686      1.0  0.14384  0.84813  0.63791  1.0000
  H   H687      1.0  0.33778  0.96178  0.52219  1.0000
  C   C426      1.0  0.44440  0.82884  0.61179  1.0000
  C   C427      1.0  0.46493  0.81583  0.62076  1.0000
  C   C428      1.0  0.48194  0.82690  0.63675  1.0000
  C   C429      1.0  0.47884  0.85134  0.64366  1.0000
  C   C430      1.0  0.45821  0.86430  0.63490  1.0000
  C   C431      1.0  0.44105  0.85313  0.61907  1.0000
  H   H688      1.0  0.46758  0.79697  0.61537  1.0000
  H   H689      1.0  0.47208  0.81999  0.69029  1.0000
  H   H690      1.0  0.45551  0.88315  0.64026  1.0000
  H   H691      1.0  0.42531  0.86334  0.61238  1.0000
  C   C432      1.0  0.35173  0.92511  0.55208  1.0000
  H   H692      1.0  0.14238  0.87387  0.67507  1.0000
  H   H693      1.0  0.48980  0.83391  0.76556  1.0000
  C   C433      1.0  0.29092  0.89543  0.60662  1.0000
  C   C434      1.0  0.28609  0.91213  0.62564  1.0000
  C   C435      1.0  0.26239  0.92207  0.62906  1.0000
  C   C436      1.0  0.24322  0.91569  0.61322  1.0000
  C   C437      1.0  0.24800  0.89895  0.59418  1.0000
  C   C438      1.0  0.27168  0.88878  0.59093  1.0000
  H   H694      1.0  0.30083  0.91752  0.63782  1.0000
  H   H695      1.0  0.25906  0.93492  0.64378  1.0000
  H   H696      1.0  0.23331  0.89388  0.58181  1.0000
  H   H697      1.0  0.27506  0.87598  0.57620  1.0000
  C   C439      1.0  0.35246  0.97071  0.88150  1.0000
  C   C440      1.0  0.36257  0.94714  0.88434  1.0000
  C   C441      1.0  0.35163  0.92981  0.90016  1.0000
  C   C442      1.0  0.33022  0.93580  0.91302  1.0000
  C   C443      1.0  0.32018  0.95939  0.91026  1.0000
  C   C444      1.0  0.33140  0.97685  0.89487  1.0000
  H   H698      1.0  0.37887  0.94218  0.87411  1.0000
  H   H699      1.0  0.35955  0.91171  0.90203  1.0000
  H   H700      1.0  0.30369  0.96427  0.92021  1.0000
  C   C445      1.0  0.02896  0.78663  0.75692  1.0000
  H   H701      1.0  0.30222  0.78060  0.99672  1.0000
  H   H702      1.0  0.21667  0.00567  0.75378  1.0000
  C   C446      1.0  0.28367  0.77729  0.00298  1.0000
  H   H703      1.0  0.43839  0.82715  0.72021  1.0000
  Fe  Fe96      1.0  0.01309  0.85286  0.67140  1.0000
  C   C447      1.0  0.10950  0.91161  0.69353  1.0000
  C   C448      1.0  0.09288  0.89760  0.70742  1.0000
  C   C449      1.0  0.07361  0.88475  0.69593  1.0000
  C   C450      1.0  0.07105  0.88541  0.67034  1.0000
  C   C451      1.0  0.08765  0.89948  0.65647  1.0000
  C   C452      1.0  0.10654  0.91280  0.66801  1.0000
  H   H704      1.0  0.09501  0.89656  0.72717  1.0000
  H   H705      1.0  0.06110  0.87389  0.70682  1.0000
  H   H706      1.0  0.08572  0.90022  0.63668  1.0000
  H   H707      1.0  0.11888  0.92385  0.65716  1.0000
  N   N46       1.0  0.24966  0.87422  0.92154  1.0000
  C   C453      1.0  0.26583  0.88382  0.90197  1.0000
  C   C454      1.0  0.26004  0.88053  0.94579  1.0000
  C   C455      1.0  0.24795  0.84732  0.91944  1.0000
  C   C456      1.0  0.22493  0.88521  0.91910  1.0000
  H   H708      1.0  0.25869  0.87944  0.88335  1.0000
  H   H709      1.0  0.28473  0.87600  0.90344  1.0000
  C   C457      1.0  0.40705  0.77752  0.88482  1.0000
  H   H710      1.0  0.24874  0.87318  0.96115  1.0000
  H   H711      1.0  0.27874  0.87272  0.94790  1.0000
  H   H712      1.0  0.26182  0.90068  0.94813  1.0000
  H   H713      1.0  0.23622  0.83942  0.93421  1.0000
  H   H714      1.0  0.26634  0.83848  0.92133  1.0000
  H   H715      1.0  0.24017  0.84176  0.90140  1.0000
  H   H716      1.0  0.21235  0.87837  0.93370  1.0000
  H   H717      1.0  0.21650  0.88081  0.90099  1.0000
  H   H718      1.0  0.22567  0.90550  0.92070  1.0000
  N   N47       1.0  0.29656  0.96759  0.81751  1.0000
  C   C458      1.0  0.30254  0.94491  0.80407  1.0000
  C   C459      1.0  0.29797  0.96296  0.84425  1.0000
  C   C460      1.0  0.27148  0.97582  0.81095  1.0000
  C   C461      1.0  0.31439  0.98677  0.81084  1.0000
  H   H719      1.0  0.29214  0.94415  0.55165  1.0000
  H   H720      1.0  0.32153  0.93849  0.80841  1.0000
  C   C462      1.0  0.26437  0.79186  0.99427  1.0000
  H   H721      1.0  0.35062  0.91413  0.56934  1.0000
  C   C463      1.0  0.25443  0.00174  0.74274  1.0000
  H   H722      1.0  0.40344  0.78950  0.86935  1.0000
  C   C464      1.0  0.31118  0.94183  0.55883  1.0000
  H   H723      1.0  0.47279  0.86673  0.73935  1.0000
  C   C465      1.0  0.32943  0.94364  0.51838  1.0000
  H   H724      1.0  0.39495  0.77211  0.94585  1.0000
  H   H725      1.0  0.44555  0.83263  0.75203  1.0000
  H   H726      1.0  0.32351  0.99494  0.89309  1.0000
  H   H727      1.0  0.49739  0.81645  0.64368  1.0000
  H   H728      1.0  0.03420  0.80112  0.74441  1.0000
  C   C466      1.0  0.40221  0.76780  0.92788  1.0000
  H   H729      1.0  0.31394  0.89352  0.55180  1.0000
  H   H730      1.0  0.31643  0.95583  0.84957  1.0000
  H   H731      1.0  0.17155  0.83380  0.64895  1.0000
  C   C467      1.0  0.31624  0.90495  0.53503  1.0000
  C   C468      1.0  0.48416  0.81536  0.70620  1.0000
  H   H732      1.0  0.29774  0.90702  0.52654  1.0000
  H   H733      1.0  0.26674  0.99344  0.82011  1.0000
  H   H734      1.0  0.36418  0.91512  0.53931  1.0000
  C   C469      1.0  0.04579  0.77785  0.77457  1.0000
  S   S191      1.0  0.36545  0.99109  0.85960  1.0000
  H   H735      1.0  0.31503  0.98980  0.79064  1.0000
  H   H736      1.0  0.22526  0.79826  0.99562  1.0000
  H   H737      1.0  0.49733  0.86119  0.71808  1.0000
  S   S192      1.0  0.31945  0.76750  0.55231  1.0000
  H   H738      1.0  0.16799  0.89264  0.68303  1.0000
  H   H739      1.0  0.49221  0.80329  0.75426  1.0000
  H   H740      1.0  0.44991  0.80270  0.73924  1.0000
  C   C470      1.0  0.49382  0.82288  0.74889  1.0000
  H   H741      1.0  0.33335  0.98193  0.81699  1.0000
  C   C471      1.0  0.24030  0.78698  0.00217  1.0000
  C   C472      1.0  0.47835  0.85565  0.72317  1.0000
  N   N48       1.0  0.47699  0.82914  0.72840  1.0000
  C   C473      1.0  0.29405  0.75990  0.53335  1.0000
  N   N49       1.0  0.17211  0.87309  0.64902  1.0000
  C   C474      1.0  0.19925  0.87437  0.64915  1.0000
  C   C475      1.0  0.16206  0.89350  0.63417  1.0000
  C   C476      1.0  0.16281  0.87492  0.67447  1.0000
  C   C477      1.0  0.16426  0.84963  0.63823  1.0000
  H   H742      1.0  0.20758  0.85927  0.66014  1.0000
  H   H743      1.0  0.20578  0.89192  0.65707  1.0000
  H   H744      1.0  0.20689  0.87339  0.63019  1.0000
  H   H745      1.0  0.14167  0.89276  0.63301  1.0000
  H   H746      1.0  0.16706  0.91146  0.64224  1.0000
  H   H747      1.0  0.16946  0.89337  0.61509  1.0000
  H   H748      1.0  0.26962  0.97882  0.79079  1.0000
  H   H749      1.0  0.36056  0.94277  0.55687  1.0000
  H   H750      1.0  0.25741  0.96215  0.81635  1.0000
  Fe  Fe97      1.0  0.17406  0.99960  0.66623  1.0000
  H   H751      1.0  0.30950  0.00453  0.81953  1.0000
  H   H752      1.0  0.48300  0.79528  0.70931  1.0000
  H   H753      1.0  0.29480  0.98006  0.85489  1.0000
  C   C478      1.0  0.28361  0.77674  0.51690  1.0000
  H   H754      1.0  0.28970  0.79552  0.51688  1.0000
  H   H755      1.0  0.49737  0.85365  0.59364  1.0000
  H   H756      1.0  0.29355  0.00140  0.73658  1.0000
  H   H757      1.0  0.50686  0.86503  0.56425  1.0000
  H   H758      1.0  0.01144  0.84111  0.79128  1.0000
  H   H759      1.0  0.36413  0.75954  0.51113  1.0000
  C   C479      1.0  0.86836  0.15946  0.39442  1.0000
  S   S193      1.0  0.87993  0.02841  0.36860  1.0000
  Fe  Fe98      1.0  0.70979  0.05475  0.20422  1.0000
  S   S194      1.0  0.67177  0.04016  0.21147  1.0000
  S   S195      1.0  0.74370  0.05638  0.22880  1.0000
  Fe  Fe99      1.0  0.69551  0.07682  0.15427  1.0000
  S   S196      1.0  0.65655  0.06410  0.15756  1.0000
  S   S197      1.0  0.71530  0.09695  0.12328  1.0000
  Fe  Fe100     1.0  0.65821  0.07651  0.19713  1.0000
  S   S198      1.0  0.62456  0.09723  0.21154  1.0000
  Fe  Fe101     1.0  0.67260  0.02866  0.17159  1.0000
  S   S199      1.0  0.69600  0.09204  0.19264  1.0000
  S   S200      1.0  0.71155  0.04039  0.16555  1.0000
  Fe  Fe102     1.0  0.55746  0.21330  0.33462  1.0000
  S   S201      1.0  0.54192  0.17720  0.32290  1.0000
  H   H760      1.0  0.00855  0.13822  0.25769  1.0000
  Fe  Fe103     1.0  0.57521  0.19318  0.38481  1.0000
  S   S202      1.0  0.56103  0.15556  0.37645  1.0000
  S   S203      1.0  0.59073  0.20719  0.42107  1.0000
  Fe  Fe104     1.0  0.57691  0.16113  0.33836  1.0000
  S   S204      1.0  0.60446  0.13472  0.32085  1.0000
  Fe  Fe105     1.0  0.52740  0.17511  0.36183  1.0000
  S   S205      1.0  0.59324  0.19761  0.34801  1.0000
  S   S206      1.0  0.54063  0.21240  0.37226  1.0000
  S   S207      1.0  0.66141  0.14870  0.03227  1.0000
  S   S208      1.0  0.66964  0.15847  0.49308  1.0000
  Fe  Fe106     1.0  0.95676  0.14464  0.32821  1.0000
  S   S209      1.0  0.96710  0.14827  0.36785  1.0000
  S   S210      1.0  0.93401  0.11438  0.31080  1.0000
  Fe  Fe107     1.0  0.98097  0.19417  0.31484  1.0000
  S   S211      1.0  0.98003  0.22168  0.28325  1.0000
  Fe  Fe108     1.0  0.95535  0.18787  0.36478  1.0000
  S   S212      1.0  0.92459  0.20328  0.38910  1.0000
  H   H761      1.0  0.99649  0.14901  0.22877  1.0000
  S   S213      1.0  0.94283  0.18322  0.32582  1.0000
  H   H762      1.0  0.93918  0.01615  0.33795  1.0000
  C   C480      1.0  0.91893  0.23306  0.40116  1.0000
  H   H763      1.0  0.58825  0.21450  0.23380  1.0000
  H   H764      1.0  0.60801  0.22665  0.29805  1.0000
  H   H765      1.0  0.75952  0.10773  0.16345  1.0000
  H   H766      1.0  0.76709  0.09536  0.19346  1.0000
  C   C481      1.0  0.58325  0.19048  0.27643  1.0000
  N   N50       1.0  0.88339  0.13984  0.38329  1.0000
  H   H767      1.0  0.85185  0.12081  0.36919  1.0000
  H   H768      1.0  0.61142  0.17498  0.23929  1.0000
  H   H769      1.0  0.69386  0.18141  0.45284  1.0000
  H   H770      1.0  0.77016  0.08472  0.12610  1.0000
  H   H771      1.0  0.81080  0.09164  0.18082  1.0000
  C   C482      1.0  0.61102  0.19173  0.44149  1.0000
  C   C483      1.0  0.61452  0.20125  0.46522  1.0000
  C   C484      1.0  0.63159  0.19058  0.48159  1.0000
  C   C485      1.0  0.64574  0.17049  0.47424  1.0000
  C   C486      1.0  0.64208  0.16079  0.45060  1.0000
  C   C487      1.0  0.62472  0.17126  0.43433  1.0000
  H   H772      1.0  0.60396  0.21702  0.47097  1.0000
  C   C488      1.0  0.67696  0.22534  0.43918  1.0000
  H   H773      1.0  0.65286  0.14520  0.44475  1.0000
  H   H774      1.0  0.62223  0.16375  0.41612  1.0000
  C   C489      1.0  0.70005  0.11132  0.09811  1.0000
  C   C490      1.0  0.67450  0.11064  0.09550  1.0000
  C   C491      1.0  0.66305  0.12232  0.07533  1.0000
  C   C492      1.0  0.67694  0.13484  0.05755  1.0000
  C   C493      1.0  0.70253  0.13544  0.06007  1.0000
  C   C494      1.0  0.71399  0.12370  0.08023  1.0000
  H   H775      1.0  0.66352  0.10120  0.10908  1.0000
  H   H776      1.0  0.64326  0.12172  0.07356  1.0000
  H   H777      1.0  0.71347  0.14515  0.04666  1.0000
  H   H778      1.0  0.73376  0.12443  0.08211  1.0000
  C   C495      1.0  0.61926  0.10740  0.24205  1.0000
  C   C496      1.0  0.59678  0.11889  0.24769  1.0000
  C   C497      1.0  0.59175  0.12715  0.27171  1.0000
  C   C498      1.0  0.60930  0.12421  0.29034  1.0000
  C   C499      1.0  0.63168  0.11255  0.28470  1.0000
  C   C500      1.0  0.63667  0.10420  0.26072  1.0000
  H   H779      1.0  0.58310  0.12127  0.23341  1.0000
  H   H780      1.0  0.57419  0.13544  0.27589  1.0000
  H   H781      1.0  0.64533  0.11003  0.29900  1.0000
  H   H782      1.0  0.65403  0.09536  0.25670  1.0000
  C   C501      1.0  0.89617  0.05089  0.35164  1.0000
  C   C502      1.0  0.89208  0.05477  0.32654  1.0000
  C   C503      1.0  0.90416  0.07399  0.31419  1.0000
  C   C504      1.0  0.92061  0.08934  0.32670  1.0000
  C   C505      1.0  0.92543  0.08483  0.35158  1.0000
  C   C506      1.0  0.91314  0.06581  0.36400  1.0000
  H   H783      1.0  0.87912  0.04340  0.31677  1.0000
  H   H784      1.0  0.90042  0.07722  0.29490  1.0000
  H   H785      1.0  0.93857  0.09606  0.36122  1.0000
  H   H786      1.0  0.91665  0.06275  0.38336  1.0000
  C   C507      1.0  0.77675  0.03665  0.26167  1.0000
  C   C508      1.0  0.75632  0.03206  0.24651  1.0000
  C   C509      1.0  0.89196  0.14781  0.35879  1.0000
  C   C510      1.0  0.52187  0.23882  0.27853  1.0000
  H   H787      1.0  0.78423  0.05492  0.26254  1.0000
  H   H788      1.0  0.88073  0.22549  0.40835  1.0000
  H   H789      1.0  0.63838  0.19213  0.24729  1.0000
  C   C511      1.0  0.60895  0.03173  0.23163  1.0000
  N   N51       1.0  0.78043  0.07417  0.16291  1.0000
  C   C512      1.0  0.78272  0.05153  0.17774  1.0000
  C   C513      1.0  0.53928  0.25543  0.28717  1.0000
  C   C514      1.0  0.77252  0.06800  0.13766  1.0000
  C   C515      1.0  0.80441  0.08669  0.16203  1.0000
  H   H790      1.0  0.79635  0.03862  0.16976  1.0000
  H   H791      1.0  0.76486  0.04175  0.17903  1.0000
  H   H792      1.0  0.78845  0.05555  0.19698  1.0000
  H   H793      1.0  0.58769  0.17645  0.29064  1.0000
  S   S214      1.0  0.99308  0.20096  0.35383  1.0000
  H   H794      1.0  0.78592  0.05573  0.12840  1.0000
  H   H795      1.0  0.66709  0.06062  0.01633  1.0000
  C   C516      1.0  0.74679  0.00838  0.24558  1.0000
  N   N52       1.0  0.59106  0.03085  0.21117  1.0000
  Fe  Fe109     1.0  0.00390  0.16077  0.35320  1.0000
  H   H796      1.0  0.80326  0.10386  0.15100  1.0000
  H   H797      1.0  0.81877  0.07485  0.15361  1.0000
  N   N53       1.0  0.60575  0.20230  0.26717  1.0000
  C   C517      1.0  0.61941  0.21295  0.28803  1.0000
  C   C518      1.0  0.59887  0.22188  0.24961  1.0000
  H   H798      1.0  0.57066  0.20404  0.28497  1.0000
  H   H799      1.0  0.63640  0.22230  0.28178  1.0000
  H   H800      1.0  0.62492  0.19858  0.30158  1.0000
  C   C519      1.0  0.57211  0.04996  0.21475  1.0000
  C   C520      1.0  0.71852  0.23822  0.44778  1.0000
  H   H801      1.0  0.58714  0.23606  0.25859  1.0000
  H   H802      1.0  0.67069  0.09064  0.02907  1.0000
  H   H803      1.0  0.91665  0.15117  0.40131  1.0000
  H   H804      1.0  0.85221  0.16413  0.38272  1.0000
  C   C521      1.0  0.78329  0.24196  0.03012  1.0000
  H   H805      1.0  0.89912  0.12884  0.41797  1.0000
  H   H806      1.0  0.86146  0.15402  0.41288  1.0000
  H   H807      1.0  0.90288  0.16490  0.35999  1.0000
  C   C522      1.0  0.86844  0.11746  0.38073  1.0000
  H   H808      1.0  0.87635  0.15131  0.34601  1.0000
  H   H809      1.0  0.69520  0.06879  0.03166  1.0000
  C   C523      1.0  0.60387  0.03516  0.18763  1.0000
  C   C524      1.0  0.69323  0.22233  0.48041  1.0000
  H   H810      1.0  0.91656  0.11990  0.39150  1.0000
  H   H811      1.0  0.87902  0.10251  0.37177  1.0000
  H   H812      1.0  0.52136  0.22042  0.28585  1.0000
  H   H813      1.0  0.90390  0.13375  0.35013  1.0000
  C   C525      1.0  0.00402  0.24012  0.27146  1.0000
  H   H814      1.0  0.70942  0.21809  0.49224  1.0000
  C   C526      1.0  0.90485  0.13469  0.39923  1.0000
  H   H815      1.0  0.67858  0.20930  0.48569  1.0000
  H   H816      1.0  0.59115  0.03396  0.17166  1.0000
  H   H817      1.0  0.71332  0.19315  0.42914  1.0000
  H   H818      1.0  0.58047  0.06853  0.21533  1.0000
  H   H819      1.0  0.75441  0.05860  0.13766  1.0000
  C   C527      1.0  0.92047  0.24932  0.31366  1.0000
  C   C528      1.0  0.62131  0.18386  0.25479  1.0000
  H   H820      1.0  0.93250  0.24018  0.29989  1.0000
  C   C529      1.0  0.70820  0.19530  0.44879  1.0000
  H   H821      1.0  0.61887  0.02158  0.18467  1.0000
  S   S215      1.0  0.55958  0.24789  0.31147  1.0000
  H   H822      1.0  0.79187  0.22841  0.04194  1.0000
  H   H823      1.0  0.66922  0.24379  0.44307  1.0000
  H   H824      1.0  0.68648  0.24095  0.48515  1.0000
  H   H825      1.0  0.86221  0.11045  0.39891  1.0000
  H   H826      1.0  0.87925  0.17651  0.39683  1.0000
  C   C530      1.0  0.76204  0.09054  0.17423  1.0000
  H   H827      1.0  0.80332  0.02154  0.28733  1.0000
  H   H828      1.0  0.61536  0.23126  0.24214  1.0000
  N   N54       1.0  0.69923  0.22031  0.45402  1.0000
  H   H829      1.0  0.55844  0.05003  0.19951  1.0000
  H   H830      1.0  0.62695  0.16901  0.26776  1.0000
  H   H831      1.0  0.57292  0.18129  0.26143  1.0000
  H   H832      1.0  0.68078  0.22422  0.41914  1.0000
  H   H833      1.0  0.59991  0.02882  0.24973  1.0000
  H   H834      1.0  0.74383  0.08161  0.17507  1.0000
  H   H835      1.0  0.72386  0.23701  0.42809  1.0000
  H   H836      1.0  0.61231  0.05361  0.18707  1.0000
  C   C531      1.0  0.89510  0.23904  0.40929  1.0000
  C   C532      1.0  0.68047  0.07567  0.01917  1.0000
  C   C533      1.0  0.93732  0.25077  0.40282  1.0000
  S   S216      1.0  0.99397  0.15499  0.31352  1.0000
  H   H837      1.0  0.63400  0.19813  0.49978  1.0000
  H   H838      1.0  0.66221  0.21187  0.44322  1.0000
  H   H839      1.0  0.72448  0.19052  0.46028  1.0000
  H   H840      1.0  0.56205  0.04732  0.23234  1.0000
  H   H841      1.0  0.94700  0.23828  0.35305  1.0000
  H   H842      1.0  0.95591  0.24630  0.39746  1.0000
  H   H843      1.0  0.61829  0.04979  0.23245  1.0000
  C   C534      1.0  0.78760  0.01777  0.27578  1.0000
  C   C535      1.0  0.00422  0.15495  0.24673  1.0000
  H   H844      1.0  0.98938  0.16499  0.25665  1.0000
  H   H845      1.0  0.00387  0.20254  0.23786  1.0000
  H   H846      1.0  0.91218  0.23467  0.32523  1.0000
  H   H847      1.0  0.72333  0.09823  0.01293  1.0000
  C   C536      1.0  0.76409  0.23495  0.01427  1.0000
  H   H848      1.0  0.75803  0.21613  0.01387  1.0000
  H   H849      1.0  0.73540  0.23522  0.45906  1.0000
  H   H850      1.0  0.96789  0.24571  0.32876  1.0000
  H   H851      1.0  0.62352  0.01754  0.22955  1.0000
  C   C537      1.0  0.95438  0.25364  0.34186  1.0000
  C   C538      1.0  0.99916  0.25509  0.25093  1.0000
  H   H852      1.0  0.98076  0.25595  0.24339  1.0000
  Fe  Fe110     1.0  0.70227  0.15769  0.95023  1.0000
  S   S217      1.0  0.66308  0.15569  0.96237  1.0000
  S   S218      1.0  0.72165  0.12483  0.93300  1.0000
  Fe  Fe111     1.0  0.70950  0.20793  0.97474  1.0000
  S   S219      1.0  0.67080  0.20800  0.98930  1.0000
  H   H853      1.0  0.76062  0.02731  0.62054  1.0000
  C   C539      1.0  0.76094  0.19854  0.61558  1.0000
  Fe  Fe112     1.0  0.66023  0.19546  0.95151  1.0000
  S   S220      1.0  0.62565  0.21118  0.93331  1.0000
  S   S221      1.0  0.71705  0.16922  0.98731  1.0000
  S   S222      1.0  0.69856  0.19657  0.93638  1.0000
  C   C540      1.0  0.52171  0.07035  0.68823  1.0000
  S   S223      1.0  0.54319  0.16050  0.65833  1.0000
  C   C541      1.0  0.76298  0.04285  0.63346  1.0000
  S   S224      1.0  0.67432  0.04073  0.86724  1.0000
  Fe  Fe113     1.0  0.87122  0.02043  0.66934  1.0000
  S   S225      1.0  0.86959  0.03313  0.70853  1.0000
  Fe  Fe114     1.0  0.84125  0.06536  0.65074  1.0000
  S   S226      1.0  0.83916  0.08146  0.68853  1.0000
  S   S227      1.0  0.82410  0.08217  0.61624  1.0000
  Fe  Fe115     1.0  0.87900  0.07016  0.69244  1.0000
  S   S228      1.0  0.91068  0.09075  0.71050  1.0000
  Fe  Fe116     1.0  0.83001  0.04304  0.70069  1.0000
  S   S229      1.0  0.79313  0.03806  0.72005  1.0000
  S   S230      1.0  0.88176  0.05705  0.65366  1.0000
  S   S231      1.0  0.83099  0.02738  0.66243  1.0000
  Fe  Fe117     1.0  0.70241  0.16046  0.58094  1.0000
  S   S232      1.0  0.69722  0.19901  0.59420  1.0000
  S   S233      1.0  0.71990  0.13580  0.61038  1.0000
  Fe  Fe118     1.0  0.67851  0.17340  0.53115  1.0000
  S   S234      1.0  0.67283  0.21285  0.54121  1.0000
  Fe  Fe119     1.0  0.71100  0.21072  0.55707  1.0000
  H   H854      1.0  0.71014  0.06929  0.79235  1.0000
  Fe  Fe120     1.0  0.65952  0.19734  0.57743  1.0000
  S   S235      1.0  0.62589  0.21486  0.59526  1.0000
  S   S236      1.0  0.71788  0.17221  0.54452  1.0000
  S   S237      1.0  0.66343  0.15792  0.56655  1.0000
  H   H855      1.0  0.58155  0.25414  0.78633  1.0000
  H   H856      1.0  0.60867  0.23586  0.79049  1.0000
  C   C542      1.0  0.93431  0.10726  0.69518  1.0000
  C   C543      1.0  0.95396  0.11667  0.70902  1.0000
  C   C544      1.0  0.97319  0.12970  0.69762  1.0000
  C   C545      1.0  0.97288  0.13365  0.67220  1.0000
  C   C546      1.0  0.95330  0.12409  0.65832  1.0000
  C   C547      1.0  0.93417  0.11091  0.66970  1.0000
  H   H857      1.0  0.95427  0.11399  0.72874  1.0000
  H   H858      1.0  0.98807  0.13695  0.70857  1.0000
  H   H859      1.0  0.95280  0.12707  0.63867  1.0000
  H   H860      1.0  0.91915  0.10389  0.65880  1.0000
  C   C548      1.0  0.79528  0.09735  0.61493  1.0000
  C   C549      1.0  0.78232  0.10351  0.63621  1.0000
  C   C550      1.0  0.75916  0.11503  0.63439  1.0000
  C   C551      1.0  0.74892  0.12095  0.61135  1.0000
  C   C552      1.0  0.76198  0.11495  0.59007  1.0000
  C   C553      1.0  0.78506  0.10327  0.59189  1.0000
  H   H861      1.0  0.79020  0.09947  0.65404  1.0000
  H   H862      1.0  0.74928  0.11983  0.65095  1.0000
  H   H863      1.0  0.75416  0.11903  0.57221  1.0000
  H   H864      1.0  0.79493  0.09850  0.57532  1.0000
  C   C554      1.0  0.78667  0.02045  0.74663  1.0000
  H   H865      1.0  0.71358  0.03267  0.67020  1.0000
  C   C555      1.0  0.72366  0.03594  0.65271  1.0000
  H   H866      1.0  0.74421  0.08908  0.84840  1.0000
  H   H867      1.0  0.78311  0.04552  0.63613  1.0000
  C   C556      1.0  0.56572  0.17583  0.64036  1.0000
  C   C557      1.0  0.58650  0.16277  0.63224  1.0000
  C   C558      1.0  0.60493  0.17433  0.61821  1.0000
  C   C559      1.0  0.60288  0.19919  0.61229  1.0000
  C   C560      1.0  0.58208  0.21223  0.62039  1.0000
  C   C561      1.0  0.56355  0.20063  0.63426  1.0000
  H   H868      1.0  0.58841  0.14361  0.63686  1.0000
  H   H869      1.0  0.62083  0.16407  0.61216  1.0000
  H   H870      1.0  0.58033  0.23145  0.61595  1.0000
  H   H871      1.0  0.54775  0.21095  0.64040  1.0000
  C   C562      1.0  0.70747  0.10106  0.91600  1.0000
  C   C563      1.0  0.68382  0.10352  0.90619  1.0000
  C   C564      1.0  0.67376  0.08465  0.89176  1.0000
  C   C565      1.0  0.68696  0.06292  0.88740  1.0000
  C   C566      1.0  0.71032  0.06016  0.89788  1.0000
  C   C567      1.0  0.72061  0.07926  0.91181  1.0000
  H   H872      1.0  0.67350  0.12020  0.90917  1.0000
  H   H873      1.0  0.65571  0.08701  0.88370  1.0000
  H   H874      1.0  0.72064  0.04349  0.89497  1.0000
  H   H875      1.0  0.73891  0.07714  0.91936  1.0000
  C   C568      1.0  0.76199  0.01660  0.75321  1.0000
  H   H876      1.0  0.80252  0.25062  0.97301  1.0000
  H   H877      1.0  0.53953  0.10577  0.65857  1.0000
  C   C569      1.0  0.80528  0.01082  0.76156  1.0000
  C   C570      1.0  0.62317  0.23916  0.91683  1.0000
  H   H878      1.0  0.72517  0.03742  0.85053  1.0000
  H   H879      1.0  0.54139  0.07449  0.69191  1.0000
  N   N55       1.0  0.78269  0.18979  0.60189  1.0000
  C   C571      1.0  0.77461  0.17794  0.57890  1.0000
  H   H880      1.0  0.78873  0.22462  0.58456  1.0000
  H   H881      1.0  0.75021  0.21212  0.60460  1.0000
  H   H882      1.0  0.74825  0.18320  0.62012  1.0000
  H   H883      1.0  0.76613  0.19135  0.56600  1.0000
  H   H884      1.0  0.76047  0.16382  0.58256  1.0000
  H   H885      1.0  0.79015  0.16898  0.56915  1.0000
  N   N56       1.0  0.73589  0.06157  0.82146  1.0000
  C   C572      1.0  0.72934  0.08382  0.83539  1.0000
  C   C573      1.0  0.75777  0.06632  0.80613  1.0000
  C   C574      1.0  0.71499  0.05452  0.80563  1.0000
  C   C575      1.0  0.74135  0.04145  0.83881  1.0000
  H   H886      1.0  0.71241  0.08094  0.84651  1.0000
  H   H887      1.0  0.51049  0.11715  0.64832  1.0000
  S   S238      1.0  0.74372  0.23676  0.55733  1.0000
  N   N57       1.0  0.59498  0.25260  0.82352  1.0000
  H   H888      1.0  0.75423  0.08101  0.79236  1.0000
  H   H889      1.0  0.77376  0.07192  0.81756  1.0000
  H   H890      1.0  0.71926  0.03775  0.79492  1.0000
  H   H891      1.0  0.98229  0.00994  0.67038  1.0000
  H   H892      1.0  0.69828  0.05052  0.81680  1.0000
  H   H893      1.0  0.74623  0.02430  0.82897  1.0000
  N   N58       1.0  0.75035  0.03835  0.65709  1.0000
  H   H894      1.0  0.95817  0.04607  0.65559  1.0000
  H   H895      1.0  0.74747  0.02384  0.74167  1.0000
  C   C576      1.0  0.93408  0.02224  0.70801  1.0000
  H   H896      1.0  0.66191  0.24350  0.91075  1.0000
  H   H897      1.0  0.92425  0.03894  0.71441  1.0000
  H   H898      1.0  0.98662  0.05077  0.69053  1.0000
  H   H899      1.0  0.61095  0.24316  0.85849  1.0000
  H   H900      1.0  0.71702  0.11088  0.98305  1.0000
  H   H901      1.0  0.83614  0.25302  0.00353  1.0000
  H   H902      1.0  0.75578  0.05960  0.62416  1.0000
  H   H903      1.0  0.77485  0.06224  0.67648  1.0000
  C   C577      1.0  0.75375  0.25563  0.53287  1.0000
  H   H904      1.0  0.82433  0.01367  0.75672  1.0000
  H   H905      1.0  0.71102  0.07047  0.96487  1.0000
  C   C578      1.0  0.99815  0.24283  0.77275  1.0000
  N   N59       1.0  0.69063  0.08449  0.99557  1.0000
  H   H906      1.0  0.71587  0.05283  0.64413  1.0000
  C   C579      1.0  0.59980  0.24952  0.91272  1.0000
  H   H907      1.0  0.96198  0.06242  0.70901  1.0000
  H   H908      1.0  0.57930  0.22467  0.80063  1.0000
  H   H909      1.0  0.77997  0.01684  0.67203  1.0000
  C   C580      1.0  0.75481  0.05907  0.67385  1.0000
  C   C581      1.0  0.70836  0.10430  0.00035  1.0000
  H   H910      1.0  0.58364  0.24001  0.91921  1.0000
  H   H911      1.0  0.59645  0.21824  0.84290  1.0000
  H   H912      1.0  0.84044  0.22565  0.96783  1.0000
  H   H913      1.0  0.72575  0.09961  0.82293  1.0000
  H   H914      1.0  0.51350  0.06364  0.70574  1.0000
  H   H915      1.0  0.99742  0.16512  0.56754  1.0000
  C   C582      1.0  0.94362  0.04063  0.66882  1.0000
  H   H916      1.0  0.67756  0.10142  0.96227  1.0000
  H   H917      1.0  0.93059  0.02841  0.65899  1.0000
  H   H918      1.0  0.74658  0.07629  0.66665  1.0000
  C   C583      1.0  0.51995  0.10057  0.65574  1.0000
  H   H919      1.0  0.78471  0.15619  0.62225  1.0000
  H   H920      1.0  0.81267  0.16444  0.60725  1.0000
  H   H921      1.0  0.81509  0.20477  0.58521  1.0000
  H   H922      1.0  0.62572  0.22936  0.83255  1.0000
  C   C584      1.0  0.70324  0.06422  0.98276  1.0000
  H   H923      1.0  0.76620  0.20743  0.63315  1.0000
  H   H924      1.0  0.75697  0.04591  0.85120  1.0000
  H   H925      1.0  0.92027  0.01018  0.69913  1.0000
  H   H926      1.0  0.51932  0.08626  0.64130  1.0000
  S   S239      1.0  0.99620  0.15060  0.65690  1.0000
  H   H927      1.0  0.00349  0.13737  0.60340  1.0000
  N   N60       1.0  0.95408  0.02851  0.69082  1.0000
  C   C585      1.0  0.84880  0.24120  0.95756  1.0000
  H   H928      1.0  0.69919  0.12030  0.00895  1.0000
  H   H929      1.0  0.69041  0.04895  0.97871  1.0000
  H   H930      1.0  0.84523  0.23819  0.93764  1.0000
  H   H931      1.0  0.74693  0.05563  0.69242  1.0000
  S   S240      1.0  0.72999  0.24424  0.97736  1.0000
  H   H932      1.0  0.76351  0.04967  0.79587  1.0000
  H   H933      1.0  0.98340  0.23098  0.77865  1.0000
  H   H934      1.0  0.80527  0.22004  0.61280  1.0000
  C   C586      1.0  0.79872  0.21073  0.59588  1.0000
  C   C587      1.0  0.60757  0.23504  0.84005  1.0000
  C   C588      1.0  0.79644  0.17196  0.61715  1.0000
  H   H935      1.0  0.80306  0.18029  0.63456  1.0000
  H   H936      1.0  0.93333  0.05749  0.67389  1.0000
  Fe  Fe121     1.0  0.67748  0.16842  0.99893  1.0000
  H   H937      1.0  0.64388  0.25274  0.96848  1.0000
  H   H938      1.0  0.97977  0.03677  0.71970  1.0000
  H   H939      1.0  0.94115  0.01252  0.72459  1.0000
  H   H940      1.0  0.71961  0.02043  0.64017  1.0000
  C   C589      1.0  0.67044  0.09392  0.97994  1.0000
  H   H941      1.0  0.52107  0.05509  0.67477  1.0000
  C   C590      1.0  0.75305  0.25225  0.99879  1.0000
  C   C591      1.0  0.59100  0.24125  0.79921  1.0000
  H   H942      1.0  0.66016  0.10885  0.98936  1.0000
  C   C592      1.0  0.97143  0.04530  0.70305  1.0000
  H   H943      1.0  0.65702  0.07934  0.97536  1.0000
  C   C593      1.0  0.75992  0.01558  0.66840  1.0000
  H   H944      1.0  0.86904  0.24025  0.96047  1.0000
  H   H945      1.0  0.75109  0.01184  0.68649  1.0000
  H   H946      1.0  0.00331  0.18208  0.60933  1.0000
  H   H947      1.0  0.52634  0.24183  0.72235  1.0000
  H   H948      1.0  0.55907  0.24327  0.83704  1.0000
  H   H949      1.0  0.52921  0.11751  0.70091  1.0000
  H   H950      1.0  0.71866  0.05670  0.99397  1.0000
  C   C594      1.0  0.52229  0.25523  0.73637  1.0000
  C   C595      1.0  0.64388  0.25154  0.90823  1.0000
  H   H951      1.0  0.71901  0.25702  0.51417  1.0000
  C   C596      1.0  0.50990  0.11184  0.69735  1.0000
  N   N61       1.0  0.80646  0.42982  0.03174  1.0000
  S   S241      1.0  0.53988  0.37009  0.15577  1.0000
  C   C597      1.0  0.88000  0.50003  0.43693  1.0000
  S   S242      1.0  0.66979  0.48387  0.20929  1.0000
  Fe  Fe122     1.0  0.69616  0.44892  0.15206  1.0000
  S   S243      1.0  0.69604  0.43329  0.19020  1.0000
  S   S244      1.0  0.70873  0.42358  0.12102  1.0000
  Fe  Fe123     1.0  0.65746  0.44799  0.19287  1.0000
  S   S245      1.0  0.62778  0.42448  0.21058  1.0000
  Fe  Fe124     1.0  0.70838  0.47049  0.20249  1.0000
  H   H952      1.0  0.83530  0.46337  0.30271  1.0000
  S   S246      1.0  0.65660  0.46176  0.15399  1.0000
  Fe  Fe125     1.0  0.83522  0.31090  0.05199  1.0000
  S   S247      1.0  0.82048  0.34689  0.03803  1.0000
  S   S248      1.0  0.81670  0.27378  0.04990  1.0000
  Fe  Fe126     1.0  0.88493  0.33299  0.06846  1.0000
  S   S249      1.0  0.87338  0.37042  0.05576  1.0000
  S   S250      1.0  0.92431  0.32179  0.07885  1.0000
  Fe  Fe127     1.0  0.83642  0.36224  0.07294  1.0000
  S   S251      1.0  0.81956  0.39262  0.09643  1.0000
  C   C598      1.0  0.88959  0.26252  0.41860  1.0000
  S   S252      1.0  0.84916  0.32580  0.08806  1.0000
  S   S253      1.0  0.87187  0.31490  0.03362  1.0000
  S   S254      1.0  0.86932  0.49285  0.36182  1.0000
  Fe  Fe128     1.0  0.86882  0.32894  0.44931  1.0000
  S   S255      1.0  0.83177  0.33530  0.43168  1.0000
  S   S256      1.0  0.90204  0.31059  0.43063  1.0000
  H   H953      1.0  0.76767  0.47292  0.29844  1.0000
  S   S257      1.0  0.81738  0.36764  0.48021  1.0000
  Fe  Fe129     1.0  0.81655  0.32800  0.46956  1.0000
  S   S258      1.0  0.77974  0.30833  0.47238  1.0000
  Fe  Fe130     1.0  0.83537  0.37455  0.44367  1.0000
  S   S259      1.0  0.81865  0.40748  0.42358  1.0000
  S   S260      1.0  0.85337  0.31930  0.48672  1.0000
  S   S261      1.0  0.87338  0.36903  0.45874  1.0000
  H   H954      1.0  0.83713  0.41307  0.05027  1.0000
  C   C599      1.0  0.77441  0.50184  0.25260  1.0000
  N   N62       1.0  0.93449  0.26681  0.32880  1.0000
  H   H955      1.0  0.51936  0.42015  0.22096  1.0000
  H   H956      1.0  0.90285  0.28886  0.33773  1.0000
  C   C600      1.0  0.90790  0.28036  0.41994  1.0000
  H   H957      1.0  0.80452  0.43625  0.07068  1.0000
  H   H958      1.0  0.81143  0.46279  0.05267  1.0000
  H   H959      1.0  0.66439  0.28414  0.01134  1.0000
  H   H960      1.0  0.53670  0.43038  0.16914  1.0000
  C   C601      1.0  0.74630  0.27892  0.49544  1.0000
  C   C602      1.0  0.85534  0.46956  0.37976  1.0000
  C   C603      1.0  0.83133  0.47194  0.38857  1.0000
  C   C604      1.0  0.82058  0.45284  0.40216  1.0000
  C   C605      1.0  0.83382  0.43137  0.40764  1.0000
  C   C606      1.0  0.85807  0.42923  0.39942  1.0000
  C   C607      1.0  0.86870  0.44819  0.38540  1.0000
  H   H961      1.0  0.82086  0.48831  0.38476  1.0000
  H   H962      1.0  0.80182  0.45467  0.40851  1.0000
  H   H963      1.0  0.86845  0.41276  0.40345  1.0000
  H   H964      1.0  0.88734  0.44618  0.37879  1.0000
  C   C608      1.0  0.94462  0.33365  0.10157  1.0000
  C   C609      1.0  0.94042  0.35606  0.11318  1.0000
  C   C610      1.0  0.95771  0.36524  0.13018  1.0000
  C   C611      1.0  0.97924  0.35207  0.13603  1.0000
  C   C612      1.0  0.98338  0.32961  0.12448  1.0000
  C   C613      1.0  0.96631  0.32062  0.10719  1.0000
  H   H965      1.0  0.92389  0.36636  0.10907  1.0000
  H   H966      1.0  0.95427  0.38262  0.13901  1.0000
  C   C614      1.0  0.52535  0.44434  0.17883  1.0000
  H   H967      1.0  0.96972  0.30321  0.09842  1.0000
  H   H968      1.0  0.53670  0.45155  0.19420  1.0000
  C   C615      1.0  0.77060  0.28752  0.49555  1.0000
  H   H969      1.0  0.82135  0.48865  0.33722  1.0000
  H   H970      1.0  0.51783  0.39851  0.19630  1.0000
  H   H971      1.0  0.78068  0.45077  0.05318  1.0000
  C   C616      1.0  0.73962  0.41423  0.11550  1.0000
  C   C617      1.0  0.74425  0.39503  0.09892  1.0000
  C   C618      1.0  0.76851  0.38751  0.09354  1.0000
  C   C619      1.0  0.78849  0.39945  0.10433  1.0000
  C   C620      1.0  0.78382  0.41858  0.12094  1.0000
  C   C621      1.0  0.75958  0.42579  0.12667  1.0000
  H   H972      1.0  0.72897  0.38593  0.09018  1.0000
  H   H973      1.0  0.77171  0.37263  0.08089  1.0000
  H   H974      1.0  0.79908  0.42796  0.12944  1.0000
  H   H975      1.0  0.75637  0.44057  0.13946  1.0000
  C   C622      1.0  0.95107  0.36513  0.03992  1.0000
  C   C623      1.0  0.56401  0.38515  0.17157  1.0000
  C   C624      1.0  0.57994  0.40037  0.15815  1.0000
  C   C625      1.0  0.59915  0.41300  0.16991  1.0000
  C   C626      1.0  0.60293  0.41020  0.19519  1.0000
  C   C627      1.0  0.58699  0.39503  0.20863  1.0000
  C   C628      1.0  0.56758  0.38262  0.19693  1.0000
  H   H976      1.0  0.57724  0.40256  0.13855  1.0000
  H   H977      1.0  0.61105  0.42488  0.15941  1.0000
  H   H978      1.0  0.58980  0.39270  0.22820  1.0000
  H   H979      1.0  0.55561  0.37084  0.20748  1.0000
  C   C629      1.0  0.81570  0.46072  0.29742  1.0000
  Fe  Fe131     1.0  0.85506  0.35984  0.49470  1.0000
  C   C630      1.0  0.54010  0.27903  0.27690  1.0000
  C   C631      1.0  0.74817  0.35582  0.50140  1.0000
  H   H980      1.0  0.55359  0.29198  0.28343  1.0000
  S   S262      1.0  0.71060  0.48541  0.16403  1.0000
  H   H981      1.0  0.52184  0.45953  0.16561  1.0000
  H   H982      1.0  0.81087  0.47538  0.28398  1.0000
  H   H983      1.0  0.94614  0.28784  0.41321  1.0000
  C   C632      1.0  0.94532  0.28579  0.31276  1.0000
  H   H984      1.0  0.74050  0.33709  0.49928  1.0000
  H   H985      1.0  0.92791  0.29129  0.35909  1.0000
  C   C633      1.0  0.79154  0.26627  0.03072  1.0000
  N   N63       1.0  0.79946  0.46150  0.31916  1.0000
  H   H986      1.0  0.77100  0.44045  0.30180  1.0000
  C   C634      1.0  0.91788  0.27838  0.34689  1.0000
  H   H987      1.0  0.98751  0.34107  0.01658  1.0000
  H   H988      1.0  0.73394  0.36916  0.49525  1.0000
  S   S263      1.0  0.74395  0.47433  0.22402  1.0000
  H   H989      1.0  0.81428  0.44292  0.28768  1.0000
  C   C635      1.0  0.77365  0.45820  0.31137  1.0000
  H   H990      1.0  0.51273  0.26325  0.35575  1.0000
  C   C636      1.0  0.79117  0.40757  0.03267  1.0000
  H   H991      1.0  0.95615  0.29920  0.32362  1.0000
  C   C637      1.0  0.80655  0.44179  0.33651  1.0000
  H   H992      1.0  0.82605  0.44361  0.34250  1.0000
  H   H993      1.0  0.79476  0.39544  0.01667  1.0000
  H   H994      1.0  0.87117  0.26687  0.42468  1.0000
  H   H995      1.0  0.52361  0.30465  0.25119  1.0000
  H   H996      1.0  0.79511  0.39670  0.04954  1.0000
  H   H997      1.0  0.88014  0.48938  0.41952  1.0000
  Fe  Fe132     1.0  0.85841  0.35188  0.02222  1.0000
  C   C638      1.0  0.83271  0.42277  0.03276  1.0000
  C   C639      1.0  0.74994  0.49538  0.24771  1.0000
  Fe  Fe133     1.0  0.67119  0.49686  0.17003  1.0000
  H   H998      1.0  0.79016  0.48675  0.34797  1.0000
  C   C640      1.0  0.73118  0.50495  0.26235  1.0000
  H   H999      1.0  0.79506  0.44215  0.35344  1.0000
  H   H1000     1.0  0.86502  0.49245  0.44857  1.0000
  H   H1001     1.0  0.99965  0.31909  0.12901  1.0000
  C   C641      1.0  0.52315  0.28628  0.25866  1.0000
  H   H1002     1.0  0.96462  0.26595  0.35446  1.0000
  C   C642      1.0  0.80204  0.48542  0.33139  1.0000
  N   N64       1.0  0.66462  0.37036  0.15327  1.0000
  C   C643      1.0  0.65559  0.34769  0.14169  1.0000
  C   C644      1.0  0.65561  0.39171  0.13912  1.0000
  C   C645      1.0  0.69179  0.37029  0.15343  1.0000
  C   C646      1.0  0.65540  0.37179  0.17877  1.0000
  H   H1003     1.0  0.66207  0.33118  0.15186  1.0000
  H   H1004     1.0  0.66211  0.34616  0.12236  1.0000
  H   H1005     1.0  0.63512  0.34721  0.14135  1.0000
  H   H1006     1.0  0.66151  0.40910  0.14779  1.0000
  H   H1007     1.0  0.66299  0.39184  0.12003  1.0000
  H   H1008     1.0  0.63521  0.39202  0.13794  1.0000
  H   H1009     1.0  0.69939  0.36960  0.13444  1.0000
  H   H1010     1.0  0.69935  0.35444  0.16390  1.0000
  H   H1011     1.0  0.69918  0.38722  0.16194  1.0000
  H   H1012     1.0  0.66154  0.38888  0.18797  1.0000
  H   H1013     1.0  0.66198  0.35615  0.19015  1.0000
  H   H1014     1.0  0.63494  0.37181  0.17934  1.0000
  H   H1015     1.0  0.76092  0.45872  0.32736  1.0000
  H   H1016     1.0  0.76386  0.35723  0.48836  1.0000
  H   H1017     1.0  0.79673  0.50074  0.31896  1.0000
  C   C647      1.0  0.93176  0.27428  0.41197  1.0000
  S   S264      1.0  0.00085  0.36497  0.15690  1.0000
  H   H1018     1.0  0.71233  0.49963  0.25908  1.0000
  H   H1019     1.0  0.89777  0.49632  0.44639  1.0000
  H   H1020     1.0  0.84486  0.43904  0.03172  1.0000
  H   H1021     1.0  0.92057  0.33074  0.02278  1.0000
  H   H1022     1.0  0.96194  0.35336  0.05273  1.0000
  N   N65       1.0  0.95052  0.35482  0.01483  1.0000
  H   H1023     1.0  0.73380  0.28498  0.48118  1.0000
  H   H1024     1.0  0.83775  0.41028  0.01740  1.0000
  H   H1025     1.0  0.80453  0.42341  0.32808  1.0000
  C   C648      1.0  0.93969  0.33010  0.01569  1.0000
  H   H1026     1.0  0.77122  0.41211  0.03287  1.0000
  H   H1027     1.0  0.93088  0.29615  0.30255  1.0000
  C   C649      1.0  0.80050  0.44564  0.05292  1.0000
  H   H1028     1.0  0.95907  0.38380  0.04014  1.0000
  H   H1029     1.0  0.95016  0.31770  0.02823  1.0000
  H   H1030     1.0  0.78900  0.49449  0.24129  1.0000
  H   H1031     1.0  0.90913  0.26449  0.35903  1.0000
  H   H1032     1.0  0.95794  0.27755  0.29888  1.0000
  H   H1033     1.0  0.78646  0.30241  0.01576  1.0000
  H   H1034     1.0  0.93223  0.36642  0.04784  1.0000
  C   C650      1.0  0.78031  0.28364  0.01542  1.0000
  H   H1035     1.0  0.71217  0.25729  0.45120  1.0000
  H   H1036     1.0  0.90533  0.25859  0.30344  1.0000
  Fe  Fe134     1.0  0.58553  0.33406  0.85927  1.0000
  S   S265      1.0  0.59705  0.34309  0.82063  1.0000
  S   S266      1.0  0.61625  0.31548  0.88137  1.0000
  Fe  Fe135     1.0  0.53501  0.35869  0.85102  1.0000
  S   S267      1.0  0.54325  0.36771  0.81162  1.0000
  Fe  Fe136     1.0  0.55945  0.32982  0.80989  1.0000
  S   S268      1.0  0.56127  0.30276  0.77824  1.0000
  Fe  Fe137     1.0  0.57998  0.38002  0.82627  1.0000
  S   S269      1.0  0.59200  0.41809  0.81405  1.0000
  S   S270      1.0  0.54849  0.31945  0.84847  1.0000
  S   S271      1.0  0.57119  0.37232  0.86572  1.0000
  S   S272      1.0  0.86509  0.36916  0.98482  1.0000
  S   S273      1.0  0.87033  0.37793  0.52929  1.0000
  S   S274      1.0  0.68224  0.47987  0.85491  1.0000
  Fe  Fe138     1.0  0.86977  0.44989  0.68809  1.0000
  S   S275      1.0  0.83099  0.43650  0.68645  1.0000
  S   S276      1.0  0.89671  0.42046  0.70193  1.0000
  S   S277      1.0  0.81465  0.48719  0.65900  1.0000
  Fe  Fe139     1.0  0.81964  0.47425  0.69820  1.0000
  S   S278      1.0  0.79389  0.47288  0.73128  1.0000
  Fe  Fe140     1.0  0.82967  0.45035  0.64761  1.0000
  S   S279      1.0  0.81234  0.42534  0.61891  1.0000
  H   H1037     1.0  0.80520  0.28673  0.51472  1.0000
  S   S280      1.0  0.86916  0.46155  0.64824  1.0000
  S   S281      1.0  0.99064  0.31409  0.86253  1.0000
  Fe  Fe141     1.0  0.95834  0.36599  0.82543  1.0000
  S   S282      1.0  0.93947  0.33033  0.83438  1.0000
  S   S283      1.0  0.94305  0.40138  0.80853  1.0000
  Fe  Fe142     1.0  0.95576  0.33414  0.87236  1.0000
  S   S284      1.0  0.93897  0.32040  0.90834  1.0000
  Fe  Fe143     1.0  0.97571  0.31278  0.82405  1.0000
  S   S285      1.0  0.97741  0.27652  0.80379  1.0000
  S   S286      1.0  0.97205  0.37099  0.86439  1.0000
  H   H1038     1.0  0.56246  0.46720  0.87288  1.0000
  H   H1039     1.0  0.80596  0.43182  0.99225  1.0000
  N   N66       1.0  0.66550  0.28551  0.97177  1.0000
  C   C651      1.0  0.91000  0.41570  0.73151  1.0000
  C   C652      1.0  0.91335  0.43479  0.74823  1.0000
  C   C653      1.0  0.92353  0.43004  0.77165  1.0000
  C   C654      1.0  0.93075  0.40624  0.77858  1.0000
  C   C655      1.0  0.92778  0.38722  0.76174  1.0000
  C   C656      1.0  0.91755  0.39197  0.73832  1.0000
  H   H1040     1.0  0.90838  0.45328  0.74301  1.0000
  H   H1041     1.0  0.92596  0.44496  0.78442  1.0000
  H   H1042     1.0  0.93332  0.36883  0.76676  1.0000
  H   H1043     1.0  0.91532  0.37707  0.72550  1.0000
  H   H1044     1.0  0.71278  0.45126  0.74858  1.0000
  N   N67       1.0  0.53355  0.44691  0.85527  1.0000
  H   H1045     1.0  0.90605  0.41705  0.64780  1.0000
  C   C657      1.0  0.76700  0.38503  0.52870  1.0000
  C   C658      1.0  0.85361  0.44869  0.75582  1.0000
  C   C659      1.0  0.82780  0.41398  0.59261  1.0000
  C   C660      1.0  0.85077  0.42285  0.58544  1.0000
  C   C661      1.0  0.86320  0.41223  0.56540  1.0000
  C   C662      1.0  0.85264  0.39295  0.55206  1.0000
  C   C663      1.0  0.82936  0.38455  0.55880  1.0000
  C   C664      1.0  0.81708  0.39493  0.57907  1.0000
  H   H1046     1.0  0.85900  0.43780  0.59541  1.0000
  H   H1047     1.0  0.88121  0.41883  0.56032  1.0000
  H   H1048     1.0  0.82136  0.36941  0.54897  1.0000
  H   H1049     1.0  0.79947  0.38781  0.58472  1.0000
  H   H1050     1.0  0.62861  0.27022  0.81278  1.0000
  Fe  Fe144     1.0  0.85455  0.49791  0.66171  1.0000
  H   H1051     1.0  0.76638  0.32311  0.53440  1.0000
  H   H1052     1.0  0.84021  0.46241  0.74880  1.0000
  C   C665      1.0  0.88495  0.35526  0.96313  1.0000
  C   C666      1.0  0.89183  0.36821  0.94185  1.0000
  C   C667      1.0  0.90832  0.35789  0.92475  1.0000
  C   C668      1.0  0.91797  0.33445  0.92878  1.0000
  C   C669      1.0  0.91095  0.32150  0.94999  1.0000
  C   C670      1.0  0.89455  0.33181  0.96707  1.0000
  H   H1053     1.0  0.88450  0.38636  0.93862  1.0000
  H   H1054     1.0  0.91355  0.36802  0.90846  1.0000
  H   H1055     1.0  0.91833  0.30336  0.95320  1.0000
  H   H1056     1.0  0.88940  0.32161  0.98326  1.0000
  S   S287      1.0  0.85880  0.48715  0.70183  1.0000
  C   C671      1.0  0.77693  0.49785  0.74319  1.0000
  C   C672      1.0  0.78648  0.28015  0.51441  1.0000
  H   H1057     1.0  0.80685  0.26206  0.94233  1.0000
  C   C673      1.0  0.61660  0.43499  0.82684  1.0000
  C   C674      1.0  0.63496  0.42396  0.84115  1.0000
  C   C675      1.0  0.65483  0.43796  0.84988  1.0000
  C   C676      1.0  0.65629  0.46314  0.84480  1.0000
  C   C677      1.0  0.63754  0.47428  0.83112  1.0000
  C   C678      1.0  0.61799  0.46020  0.82191  1.0000
  H   H1058     1.0  0.63411  0.40456  0.84507  1.0000
  H   H1059     1.0  0.66920  0.42920  0.86056  1.0000
  H   H1060     1.0  0.83594  0.28548  0.99935  1.0000
  H   H1061     1.0  0.60389  0.46893  0.81086  1.0000
  C   C679      1.0  0.53647  0.28627  0.76538  1.0000
  H   H1062     1.0  0.79035  0.34141  0.52155  1.0000
  H   H1063     1.0  0.52714  0.44812  0.89428  1.0000
  C   C680      1.0  0.61800  0.28531  0.89338  1.0000
  C   C681      1.0  0.85991  0.41252  0.78069  1.0000
  H   H1064     1.0  0.57143  0.43751  0.86181  1.0000
  H   H1065     1.0  0.65745  0.28420  0.89050  1.0000
  C   C682      1.0  0.82644  0.41420  0.75159  1.0000
  H   H1066     1.0  0.86385  0.44180  0.73961  1.0000
  C   C683      1.0  0.84994  0.28501  0.95164  1.0000
  H   H1067     1.0  0.85642  0.37054  0.65097  1.0000
  H   H1068     1.0  0.64906  0.31864  0.98528  1.0000
  H   H1069     1.0  0.81673  0.39894  0.76095  1.0000
  H   H1070     1.0  0.72036  0.37273  0.53857  1.0000
  H   H1071     1.0  0.76995  0.47944  0.77760  1.0000
  H   H1072     1.0  0.53799  0.43676  0.81731  1.0000
  C   C684      1.0  0.59719  0.27251  0.90109  1.0000
  C   C685      1.0  0.55966  0.45380  0.85781  1.0000
  C   C686      1.0  0.70084  0.47343  0.79088  1.0000
  H   H1073     1.0  0.62886  0.27738  0.98424  1.0000
  H   H1074     1.0  0.84323  0.30322  0.95796  1.0000
  H   H1075     1.0  0.78168  0.34524  0.55321  1.0000
  H   H1076     1.0  0.72578  0.34049  0.54249  1.0000
  C   C687      1.0  0.57100  0.25951  0.83420  1.0000
  C   C688      1.0  0.90366  0.40582  0.63090  1.0000
  H   H1077     1.0  0.51147  0.42386  0.83217  1.0000
  C   C689      1.0  0.67652  0.27892  0.99578  1.0000
  H   H1078     1.0  0.56081  0.27237  0.82191  1.0000
  H   H1079     1.0  0.57332  0.26867  0.85229  1.0000
  C   C690      1.0  0.99940  0.26683  0.78184  1.0000
  H   H1080     1.0  0.56679  0.46212  0.84054  1.0000
  C   C691      1.0  0.77444  0.34177  0.53441  1.0000
  C   C692      1.0  0.98488  0.44244  0.83718  1.0000
  C   C693      1.0  0.69473  0.49676  0.75348  1.0000
  H   H1081     1.0  0.70101  0.28559  0.95439  1.0000
  H   H1082     1.0  0.86817  0.39802  0.66450  1.0000
  H   H1083     1.0  0.99936  0.41655  0.79772  1.0000
  H   H1084     1.0  0.87030  0.28492  0.95362  1.0000
  H   H1085     1.0  0.89297  0.41703  0.61750  1.0000
  H   H1086     1.0  0.69466  0.28789  0.99846  1.0000
  H   H1087     1.0  0.90623  0.36475  0.60451  1.0000
  C   C694      1.0  0.86670  0.38763  0.64704  1.0000
  H   H1088     1.0  0.78175  0.44862  0.00716  1.0000
  H   H1089     1.0  0.81228  0.42579  0.74235  1.0000
  N   N68       1.0  0.84125  0.42860  0.76910  1.0000
  C   C695      1.0  0.88824  0.36826  0.61356  1.0000
  C   C696      1.0  0.82506  0.43903  0.78820  1.0000
  C   C697      1.0  0.54143  0.26869  0.74723  1.0000
  Fe  Fe145     1.0  0.00560  0.35062  0.85185  1.0000
  H   H1090     1.0  0.92220  0.40273  0.62290  1.0000
  C   C698      1.0  0.81173  0.26514  0.96195  1.0000
  H   H1091     1.0  0.87213  0.40409  0.76666  1.0000
  H   H1092     1.0  0.60144  0.28825  0.80809  1.0000
  H   H1093     1.0  0.63819  0.49370  0.82741  1.0000
  H   H1094     1.0  0.83566  0.45028  0.80150  1.0000
  H   H1095     1.0  0.89698  0.35075  0.65921  1.0000
  N   N69       1.0  0.68723  0.47470  0.76735  1.0000
  H   H1096     1.0  0.93501  0.36376  0.97950  1.0000
  H   H1097     1.0  0.98454  0.37152  0.00406  1.0000
  H   H1098     1.0  0.81544  0.42446  0.79871  1.0000
  C   C699      1.0  0.76663  0.49576  0.76679  1.0000
  H   H1099     1.0  0.85127  0.39735  0.79122  1.0000
  H   H1100     1.0  0.92456  0.36402  0.64685  1.0000
  H   H1101     1.0  0.72098  0.47188  0.78787  1.0000
  H   H1102     1.0  0.83813  0.40619  0.73685  1.0000
  N   N70       1.0  0.89116  0.38250  0.63644  1.0000
  C   C700      1.0  0.66057  0.47583  0.77235  1.0000
  C   C701      1.0  0.90602  0.36832  0.65430  1.0000
  H   H1103     1.0  0.69767  0.49003  0.80222  1.0000
  C   C702      1.0  0.69277  0.45268  0.75268  1.0000
  H   H1104     1.0  0.63231  0.27846  0.95149  1.0000
  H   H1105     1.0  0.87649  0.37812  0.60000  1.0000
  H   H1106     1.0  0.73992  0.36194  0.56301  1.0000
  C   C703      1.0  0.76115  0.27663  0.99952  1.0000
  H   H1107     1.0  0.68383  0.49912  0.73631  1.0000
  H   H1108     1.0  0.87939  0.35030  0.61712  1.0000
  H   H1109     1.0  0.64964  0.47677  0.75506  1.0000
  C   C704      1.0  0.66162  0.31226  0.97049  1.0000
  H   H1110     1.0  0.65574  0.49222  0.78342  1.0000
  H   H1111     1.0  0.86673  0.45861  0.76785  1.0000
  H   H1112     1.0  0.69497  0.45752  0.80228  1.0000
  H   H1113     1.0  0.61333  0.28400  0.83851  1.0000
  H   H1114     1.0  0.54158  0.41227  0.83888  1.0000
  H   H1115     1.0  0.87191  0.42280  0.79360  1.0000
  H   H1116     1.0  0.85526  0.39886  0.63433  1.0000
  H   H1117     1.0  0.90873  0.37871  0.67168  1.0000
  H   H1118     1.0  0.65324  0.31778  0.95256  1.0000
  H   H1119     1.0  0.71441  0.49582  0.74806  1.0000
  H   H1120     1.0  0.57917  0.28067  0.89891  1.0000
  H   H1121     1.0  0.77246  0.38944  0.54790  1.0000
  H   H1122     1.0  0.93919  0.32155  0.99716  1.0000
  C   C705      1.0  0.68227  0.27791  0.95185  1.0000
  H   H1123     1.0  0.75271  0.29012  0.98758  1.0000
  H   H1124     1.0  0.68730  0.43571  0.76262  1.0000
  H   H1125     1.0  0.81072  0.45115  0.77988  1.0000
  C   C706      1.0  0.73456  0.35884  0.54350  1.0000
  H   H1126     1.0  0.67928  0.32228  0.97239  1.0000
  C   C707      1.0  0.51217  0.29027  0.77266  1.0000
  S   S288      1.0  0.99327  0.34797  0.81241  1.0000
  H   H1127     1.0  0.56016  0.26558  0.74137  1.0000
  N   N71       1.0  0.75606  0.36039  0.52700  1.0000
  H   H1128     1.0  0.53540  0.41843  0.88264  1.0000
  H   H1129     1.0  0.97581  0.34554  0.98600  1.0000
  H   H1130     1.0  0.94274  0.38971  0.99797  1.0000
  H   H1131     1.0  0.80351  0.28295  0.96749  1.0000
  H   H1132     1.0  0.68280  0.45303  0.73479  1.0000
  H   H1133     1.0  0.97402  0.42804  0.84674  1.0000
  C   C708      1.0  0.77800  0.26441  0.53309  1.0000
  C   C709      1.0  0.64128  0.27454  0.89669  1.0000
  H   H1134     1.0  0.98507  0.45890  0.84913  1.0000
  C   C710      1.0  0.61029  0.27469  0.82061  1.0000
  H   H1135     1.0  0.84574  0.28355  0.93166  1.0000
  H   H1136     1.0  0.79032  0.25901  0.54778  1.0000
  C   C711      1.0  0.53096  0.42923  0.83498  1.0000
  C   C712      1.0  0.93546  0.37075  0.99870  1.0000
  C   C713      1.0  0.64163  0.27300  0.96892  1.0000
  H   H1137     1.0  0.99784  0.39748  0.82432  1.0000
  C   C714      1.0  0.97576  0.35320  0.00499  1.0000
  H   H1138     1.0  0.97459  0.44714  0.82005  1.0000
  H   H1139     1.0  0.67548  0.28408  0.93359  1.0000
  H   H1140     1.0  0.65431  0.45946  0.78283  1.0000
  C   C715      1.0  0.52500  0.43555  0.87841  1.0000
  H   H1141     1.0  0.75392  0.39946  0.52243  1.0000
  H   H1142     1.0  0.91610  0.37188  0.00524  1.0000
  C   C716      1.0  0.73791  0.26297  0.51397  1.0000
  N   N72       1.0  0.83862  0.26488  0.96583  1.0000
  H   H1143     1.0  0.86409  0.26859  0.99596  1.0000
  C   C717      1.0  0.84399  0.26814  0.99226  1.0000
  H   H1144     1.0  0.78379  0.38659  0.51717  1.0000
  H   H1145     1.0  0.67997  0.25890  0.99716  1.0000
  H   H1146     1.0  0.81259  0.46021  0.00733  1.0000
  C   C718      1.0  0.80146  0.44321  0.00859  1.0000
  H   H1147     1.0  0.52006  0.48267  0.86473  1.0000
  H   H1148     1.0  0.52460  0.47782  0.83238  1.0000
  C   C719      1.0  0.51860  0.46889  0.84980  1.0000
  H   H1149     1.0  0.68434  0.25763  0.95124  1.0000
  C   C720      1.0  0.00866  0.41219  0.81548  1.0000
  H   H1150     1.0  0.94699  0.62111  0.29068  1.0000
  H   H1151     1.0  0.88841  0.64875  0.11912  1.0000
  S   S289      1.0  0.65997  0.53501  0.15677  1.0000
  H   H1152     1.0  0.82325  0.64203  0.48487  1.0000
  Fe  Fe146     1.0  0.80589  0.55257  0.32804  1.0000
  S   S290      1.0  0.84257  0.54120  0.31274  1.0000
  S   S291      1.0  0.76781  0.54601  0.31222  1.0000
  Fe  Fe147     1.0  0.82877  0.57473  0.37511  1.0000
  S   S292      1.0  0.86703  0.56503  0.36311  1.0000
  S   S293      1.0  0.81599  0.59004  0.41193  1.0000
  Fe  Fe148     1.0  0.85563  0.57834  0.32528  1.0000
  S   S294      1.0  0.87643  0.60865  0.30493  1.0000
  Fe  Fe149     1.0  0.85066  0.52893  0.35174  1.0000
  S   S295      1.0  0.81810  0.59035  0.33832  1.0000
  S   S296      1.0  0.81324  0.53788  0.36595  1.0000
  Fe  Fe150     1.0  0.98552  0.70274  0.20921  1.0000
  S   S297      1.0  0.87584  0.64839  0.49348  1.0000
  Fe  Fe151     1.0  0.95903  0.69440  0.15962  1.0000
  S   S298      1.0  0.97339  0.65615  0.15675  1.0000
  S   S299      1.0  0.93197  0.71030  0.13157  1.0000
  Fe  Fe152     1.0  0.96417  0.65249  0.19690  1.0000
  S   S300      1.0  0.94594  0.61756  0.21112  1.0000
  S   S301      1.0  0.94749  0.68984  0.19917  1.0000
  S   S302      1.0  0.99565  0.71113  0.16972  1.0000
  S   S303      1.0  0.88788  0.65400  0.03889  1.0000
  Fe  Fe153     1.0  0.57981  0.65145  0.19647  1.0000
  S   S304      1.0  0.56631  0.65331  0.15765  1.0000
  S   S305      1.0  0.59695  0.61653  0.21248  1.0000
  Fe  Fe154     1.0  0.55706  0.70193  0.20846  1.0000
  S   S306      1.0  0.54151  0.70630  0.17021  1.0000
  S   S307      1.0  0.55615  0.73367  0.23571  1.0000
  Fe  Fe155     1.0  0.53072  0.66658  0.17399  1.0000
  Fe  Fe156     1.0  0.57852  0.69272  0.15763  1.0000
  S   S308      1.0  0.59921  0.70699  0.12390  1.0000
  S   S309      1.0  0.54361  0.66325  0.21311  1.0000
  S   S310      1.0  0.59472  0.68988  0.19561  1.0000
  H   H1153     1.0  0.00305  0.63370  0.25482  1.0000
  H   H1154     1.0  0.86719  0.62494  0.17965  1.0000
  C   C721      1.0  0.61162  0.73682  0.12048  1.0000
  H   H1155     1.0  0.60590  0.74781  0.15795  1.0000
  H   H1156     1.0  0.87722  0.59795  0.16361  1.0000
  C   C722      1.0  0.85220  0.53046  0.42044  1.0000
  H   H1157     1.0  0.92818  0.62886  0.13046  1.0000
  H   H1158     1.0  0.58050  0.74826  0.35880  1.0000
  H   H1159     1.0  0.57195  0.59538  0.16283  1.0000
  C   C723      1.0  0.96631  0.61981  0.28401  1.0000
  C   C724      1.0  0.92120  0.69514  0.10480  1.0000
  C   C725      1.0  0.90278  0.70625  0.09035  1.0000
  C   C726      1.0  0.89285  0.69424  0.06970  1.0000
  C   C727      1.0  0.90102  0.67079  0.06348  1.0000
  C   C728      1.0  0.91980  0.65988  0.07762  1.0000
  C   C729      1.0  0.93003  0.67208  0.09799  1.0000
  H   H1160     1.0  0.89593  0.72416  0.09534  1.0000
  H   H1161     1.0  0.87842  0.70289  0.05901  1.0000
  H   H1162     1.0  0.92644  0.64185  0.07283  1.0000
  H   H1163     1.0  0.94467  0.66364  0.10848  1.0000
  C   C730      1.0  0.89336  0.61014  0.27707  1.0000
  C   C731      1.0  0.90329  0.58939  0.26580  1.0000
  C   C732      1.0  0.91872  0.59191  0.24511  1.0000
  C   C733      1.0  0.92430  0.61513  0.23543  1.0000
  C   C734      1.0  0.91346  0.63577  0.24599  1.0000
  C   C735      1.0  0.89837  0.63329  0.26688  1.0000
  H   H1164     1.0  0.89967  0.57147  0.27346  1.0000
  H   H1165     1.0  0.92689  0.57578  0.23699  1.0000
  H   H1166     1.0  0.91708  0.65372  0.23845  1.0000
  H   H1167     1.0  0.89064  0.64944  0.27537  1.0000
  H   H1168     1.0  0.53292  0.55028  0.19539  1.0000
  H   H1169     1.0  0.93909  0.65696  0.02273  1.0000
  C   C736      1.0  0.64226  0.55730  0.17260  1.0000
  C   C737      1.0  0.63360  0.55345  0.19651  1.0000
  C   C738      1.0  0.62027  0.57200  0.20861  1.0000
  C   C739      1.0  0.61511  0.59444  0.19689  1.0000
  C   C740      1.0  0.62370  0.59825  0.17297  1.0000
  C   C741      1.0  0.63728  0.57981  0.16097  1.0000
  H   H1170     1.0  0.63710  0.53619  0.20567  1.0000
  H   H1171     1.0  0.61361  0.56883  0.22708  1.0000
  H   H1172     1.0  0.61987  0.61541  0.16370  1.0000
  H   H1173     1.0  0.64391  0.58301  0.14249  1.0000
  C   C742      1.0  0.73699  0.75619  0.49770  1.0000
  C   C743      1.0  0.52452  0.59161  0.14930  1.0000
  C   C744      1.0  0.00782  0.75347  0.28010  1.0000
  N   N73       1.0  0.70572  0.74709  0.09295  1.0000
  H   H1174     1.0  0.52673  0.54451  0.16342  1.0000
  C   C745      1.0  0.85885  0.63325  0.47028  1.0000
  C   C746      1.0  0.87151  0.62126  0.45125  1.0000
  C   C747      1.0  0.85867  0.60849  0.43281  1.0000
  C   C748      1.0  0.83302  0.60734  0.43347  1.0000
  C   C749      1.0  0.82039  0.61930  0.45251  1.0000
  C   C750      1.0  0.83320  0.63241  0.47069  1.0000
  H   H1175     1.0  0.89136  0.62205  0.45068  1.0000
  H   H1176     1.0  0.86860  0.59956  0.41815  1.0000
  H   H1177     1.0  0.80052  0.61868  0.45301  1.0000
  C   C751      1.0  0.68423  0.73185  0.08673  1.0000
  S   S311      1.0  0.98722  0.72338  0.24567  1.0000
  H   H1178     1.0  0.99047  0.64111  0.32143  1.0000
  H   H1179     1.0  0.54075  0.61720  0.18751  1.0000
  H   H1180     1.0  0.94516  0.66371  0.27551  1.0000
  C   C752      1.0  0.97968  0.65351  0.30921  1.0000
  H   H1181     1.0  0.89528  0.52551  0.39734  1.0000
  H   H1182     1.0  0.98158  0.69252  0.03005  1.0000
  H   H1183     1.0  0.61968  0.73170  0.08207  1.0000
  H   H1184     1.0  0.96410  0.71996  0.02450  1.0000
  N   N74       1.0  0.87644  0.52644  0.43206  1.0000
  H   H1185     1.0  0.54250  0.59276  0.20925  1.0000
  H   H1186     1.0  0.54512  0.73307  0.33437  1.0000
  C   C753      1.0  0.74722  0.73257  0.49860  1.0000
  H   H1187     1.0  0.96278  0.65459  0.24911  1.0000
  C   C754      1.0  0.96279  0.69971  0.02617  1.0000
  C   C755      1.0  0.56266  0.57780  0.16731  1.0000
  H   H1188     1.0  0.84896  0.55017  0.41638  1.0000
  C   C756      1.0  0.76144  0.52704  0.28688  1.0000
  H   H1189     1.0  0.99439  0.74571  0.29248  1.0000
  H   H1190     1.0  0.93134  0.61356  0.15949  1.0000
  C   C757      1.0  0.91814  0.61778  0.14434  1.0000
  H   H1191     1.0  0.52694  0.57918  0.13336  1.0000
  N   N75       1.0  0.89625  0.63091  0.15359  1.0000
  H   H1192     1.0  0.57200  0.57008  0.18383  1.0000
  C   C758      1.0  0.87949  0.63654  0.13287  1.0000
  H   H1193     1.0  0.80597  0.56328  0.50410  1.0000
  H   H1194     1.0  0.95120  0.69567  0.04257  1.0000
  S   S312      1.0  0.00171  0.66476  0.20881  1.0000
  C   C759      1.0  0.72031  0.73488  0.11241  1.0000
  C   C760      1.0  0.00349  0.64146  0.27374  1.0000
  C   C761      1.0  0.88351  0.61543  0.17187  1.0000
  C   C762      1.0  0.52937  0.74472  0.25045  1.0000
  C   C763      1.0  0.90394  0.65393  0.16537  1.0000
  H   H1195     1.0  0.88793  0.66479  0.17191  1.0000
  C   C764      1.0  0.62096  0.74410  0.09747  1.0000
  H   H1196     1.0  0.87379  0.61968  0.12305  1.0000
  H   H1197     1.0  0.91598  0.65028  0.18150  1.0000
  C   C765      1.0  0.53296  0.59908  0.19223  1.0000
  H   H1198     1.0  0.96569  0.61181  0.26521  1.0000
  H   H1199     1.0  0.79905  0.52276  0.27553  1.0000
  H   H1200     1.0  0.89588  0.61068  0.18757  1.0000
  H   H1201     1.0  0.86322  0.53379  0.46847  1.0000
  C   C766      1.0  0.52458  0.55815  0.17839  1.0000
  C   C767      1.0  0.87756  0.54014  0.45541  1.0000
  H   H1202     1.0  0.67198  0.72922  0.10293  1.0000
  H   H1203     1.0  0.89395  0.55512  0.41146  1.0000
  H   H1204     1.0  0.73659  0.74601  0.11762  1.0000
  C   C768      1.0  0.72113  0.75052  0.07087  1.0000
  H   H1205     1.0  0.70915  0.73193  0.12931  1.0000
  H   H1206     1.0  0.67294  0.74043  0.07192  1.0000
  H   H1207     1.0  0.91438  0.66572  0.15239  1.0000
  N   N76       1.0  0.53617  0.58164  0.17179  1.0000
  H   H1208     1.0  0.87457  0.56010  0.45227  1.0000
  H   H1209     1.0  0.51323  0.60204  0.19663  1.0000
  N   N77       1.0  0.97842  0.64396  0.28386  1.0000
  C   C769      1.0  0.96415  0.66117  0.26839  1.0000
  H   H1210     1.0  0.86260  0.64611  0.13924  1.0000
  N   N78       1.0  0.71345  0.56039  0.21151  1.0000
  C   C770      1.0  0.69975  0.53792  0.21747  1.0000
  C   C771      1.0  0.73469  0.56257  0.22835  1.0000
  C   C772      1.0  0.69706  0.58183  0.21433  1.0000
  C   C773      1.0  0.72219  0.55903  0.18582  1.0000
  H   H1211     1.0  0.68360  0.53581  0.20514  1.0000
  H   H1212     1.0  0.69288  0.53808  0.23672  1.0000
  H   H1213     1.0  0.71148  0.52134  0.21521  1.0000
  H   H1214     1.0  0.72872  0.56342  0.24792  1.0000
  H   H1215     1.0  0.74732  0.54655  0.22671  1.0000
  H   H1216     1.0  0.74554  0.57932  0.22446  1.0000
  H   H1217     1.0  0.70679  0.59920  0.21017  1.0000
  H   H1218     1.0  0.68972  0.58312  0.23339  1.0000
  H   H1219     1.0  0.68095  0.58078  0.20169  1.0000
  H   H1220     1.0  0.70652  0.55731  0.17270  1.0000
  H   H1221     1.0  0.73430  0.54280  0.18300  1.0000
  H   H1222     1.0  0.73269  0.57563  0.18056  1.0000
  H   H1223     1.0  0.89576  0.53787  0.46453  1.0000
  H   H1224     1.0  0.97282  0.67952  0.26777  1.0000
  H   H1225     1.0  0.91310  0.60017  0.13554  1.0000
  H   H1226     1.0  0.72717  0.71670  0.10625  1.0000
  C   C774      1.0  0.73694  0.52076  0.28184  1.0000
  H   H1227     1.0  0.96098  0.65545  0.31730  1.0000
  C   C775      1.0  0.78016  0.51776  0.27201  1.0000
  H   H1228     1.0  0.72239  0.52782  0.29339  1.0000
  H   H1229     1.0  0.73919  0.71813  0.48770  1.0000
  H   H1230     1.0  0.72761  0.73277  0.06327  1.0000
  H   H1231     1.0  0.83691  0.52412  0.43239  1.0000
  H   H1232     1.0  0.53247  0.60966  0.14414  1.0000
  C   C776      1.0  0.89593  0.53519  0.41535  1.0000
  H   H1233     1.0  0.85075  0.52048  0.40277  1.0000
  H   H1234     1.0  0.56601  0.56508  0.15176  1.0000
  H   H1235     1.0  0.68988  0.71341  0.08021  1.0000
  H   H1236     1.0  0.58569  0.74132  0.31438  1.0000
  H   H1237     1.0  0.97618  0.60651  0.29603  1.0000
  H   H1238     1.0  0.82681  0.58627  0.49338  1.0000
  C   C777      1.0  0.61304  0.75313  0.14017  1.0000
  H   H1239     1.0  0.81592  0.74833  0.02453  1.0000
  C   C778      1.0  0.00880  0.74541  0.25559  1.0000
  C   C779      1.0  0.79757  0.75592  0.02322  1.0000
  H   H1240     1.0  0.91515  0.69517  0.01533  1.0000
  H   H1241     1.0  0.53142  0.75199  0.31126  1.0000
  H   H1242     1.0  0.98848  0.67186  0.30964  1.0000
  C   C780      1.0  0.82306  0.57336  0.50879  1.0000
  H   H1243     1.0  0.91454  0.53209  0.42329  1.0000
  C   C781      1.0  0.54010  0.75231  0.32977  1.0000
  H   H1244     1.0  0.83847  0.55996  0.50948  1.0000
  S   S313      1.0  0.99220  0.65980  0.87879  1.0000
  Fe  Fe157     1.0  0.87602  0.69424  0.57447  1.0000
  S   S314      1.0  0.83751  0.69432  0.58901  1.0000
  S   S315      1.0  0.90708  0.70625  0.60003  1.0000
  Fe  Fe158     1.0  0.85975  0.66762  0.52698  1.0000
  S   S316      1.0  0.82005  0.66678  0.53845  1.0000
  Fe  Fe159     1.0  0.82635  0.70568  0.55070  1.0000
  S   S317      1.0  0.80277  0.74019  0.54830  1.0000
  Fe  Fe160     1.0  0.83513  0.65561  0.57557  1.0000
  S   S318      1.0  0.81740  0.62527  0.59825  1.0000
  S   S319      1.0  0.86534  0.70739  0.53671  1.0000
  S   S320      1.0  0.87430  0.65450  0.56348  1.0000
  H   H1245     1.0  0.95141  0.64131  0.90650  1.0000
  C   C782      1.0  0.83924  0.65657  0.88142  1.0000
  S   S321      1.0  0.55249  0.67071  0.85164  1.0000
  Fe  Fe161     1.0  0.87515  0.69466  0.95851  1.0000
  S   S322      1.0  0.87778  0.65560  0.97016  1.0000
  S   S323      1.0  0.90574  0.71328  0.93704  1.0000
  Fe  Fe162     1.0  0.82485  0.70105  0.98368  1.0000
  C   C783      1.0  0.77793  0.74584  0.52808  1.0000
  S   S324      1.0  0.78953  0.72357  0.98487  1.0000
  C   C784      1.0  0.66067  0.62455  0.88797  1.0000
  Fe  Fe163     1.0  0.83783  0.65249  0.95938  1.0000
  S   S325      1.0  0.82661  0.62112  0.93390  1.0000
  H   H1246     1.0  0.54294  0.68448  0.74383  1.0000
  S   S326      1.0  0.83627  0.69100  0.94521  1.0000
  Fe  Fe164     1.0  0.68584  0.52055  0.84675  1.0000
  S   S327      1.0  0.67128  0.53572  0.81141  1.0000
  Fe  Fe165     1.0  0.70517  0.57092  0.86342  1.0000
  S   S328      1.0  0.69132  0.58919  0.82872  1.0000
  S   S329      1.0  0.71853  0.59567  0.89467  1.0000
  Fe  Fe166     1.0  0.65699  0.56707  0.83395  1.0000
  S   S330      1.0  0.61626  0.57552  0.82888  1.0000
  Fe  Fe167     1.0  0.70692  0.55598  0.80957  1.0000
  S   S331      1.0  0.72688  0.55871  0.77306  1.0000
  S   S332      1.0  0.66960  0.55055  0.86967  1.0000
  S   S333      1.0  0.72281  0.53906  0.84383  1.0000
  C   C785      1.0  0.87597  0.68854  0.65308  1.0000
  S   S334      1.0  0.87180  0.53222  0.64500  1.0000
  C   C786      1.0  0.74709  0.53561  0.76250  1.0000
  C   C787      1.0  0.75761  0.53781  0.73902  1.0000
  H   H1247     1.0  0.54297  0.70333  0.80876  1.0000
  H   H1248     1.0  0.89379  0.64701  0.85258  1.0000
  H   H1249     1.0  0.80194  0.61720  0.51585  1.0000
  H   H1250     1.0  0.92779  0.71895  0.99628  1.0000
  C   C788      1.0  0.79649  0.61492  0.92259  1.0000
  C   C789      1.0  0.79332  0.59664  0.90470  1.0000
  C   C790      1.0  0.76973  0.59079  0.89558  1.0000
  C   C791      1.0  0.74893  0.60302  0.90445  1.0000
  C   C792      1.0  0.75215  0.62141  0.92222  1.0000
  C   C793      1.0  0.77574  0.62745  0.93112  1.0000
  H   H1251     1.0  0.80918  0.58675  0.89798  1.0000
  H   H1252     1.0  0.76761  0.57656  0.88199  1.0000
  H   H1253     1.0  0.73626  0.63102  0.92926  1.0000
  H   H1254     1.0  0.77782  0.64154  0.94487  1.0000
  C   C794      1.0  0.56995  0.64420  0.84483  1.0000
  C   C795      1.0  0.59578  0.64548  0.84534  1.0000
  C   C796      1.0  0.61029  0.62479  0.83986  1.0000
  C   C797      1.0  0.59907  0.60250  0.83446  1.0000
  C   C798      1.0  0.57329  0.60136  0.83359  1.0000
  C   C799      1.0  0.55877  0.62212  0.83861  1.0000
  H   H1255     1.0  0.60456  0.66262  0.84977  1.0000
  H   H1256     1.0  0.63009  0.62601  0.83975  1.0000
  H   H1257     1.0  0.56445  0.58423  0.82918  1.0000
  H   H1258     1.0  0.53894  0.62092  0.83802  1.0000
  H   H1259     1.0  0.56191  0.72637  0.79498  1.0000
  H   H1260     1.0  0.89656  0.68126  0.88187  1.0000
  H   H1261     1.0  0.86633  0.62889  0.85104  1.0000
  H   H1262     1.0  0.84685  0.61421  0.52276  1.0000
  H   H1263     1.0  0.56438  0.65313  0.76777  1.0000
  C   C800      1.0  0.83291  0.59958  0.61116  1.0000
  C   C801      1.0  0.85826  0.59621  0.60859  1.0000
  C   C802      1.0  0.86982  0.57551  0.61906  1.0000
  C   C803      1.0  0.85618  0.55773  0.63185  1.0000
  C   C804      1.0  0.83078  0.56098  0.63413  1.0000
  C   C805      1.0  0.81926  0.58186  0.62395  1.0000
  H   H1264     1.0  0.86900  0.60953  0.59862  1.0000
  H   H1265     1.0  0.88948  0.57314  0.61717  1.0000
  H   H1266     1.0  0.82005  0.54754  0.64400  1.0000
  H   H1267     1.0  0.79963  0.58425  0.62603  1.0000
  H   H1268     1.0  0.81306  0.57812  0.57023  1.0000
  H   H1269     1.0  0.87167  0.68765  0.90232  1.0000
  H   H1270     1.0  0.89690  0.63768  0.89671  1.0000
  H   H1271     1.0  0.52441  0.69312  0.76967  1.0000
  C   C806      1.0  0.91484  0.73700  0.60732  1.0000
  C   C807      1.0  0.93299  0.74140  0.62522  1.0000
  H   H1272     1.0  0.94188  0.72611  0.63431  1.0000
  H   H1273     1.0  0.94258  0.65319  0.99022  1.0000
  C   C808      1.0  0.96929  0.67494  0.89638  1.0000
  C   C809      1.0  0.96845  0.70043  0.89839  1.0000
  C   C810      1.0  0.94901  0.71186  0.91109  1.0000
  C   C811      1.0  0.93042  0.69798  0.92226  1.0000
  C   C812      1.0  0.93166  0.67246  0.92100  1.0000
  C   C813      1.0  0.95081  0.66104  0.90784  1.0000
  H   H1274     1.0  0.98248  0.71137  0.88963  1.0000
  H   H1275     1.0  0.94829  0.73161  0.91204  1.0000
  H   H1276     1.0  0.91774  0.66154  0.92986  1.0000
  H   H1277     1.0  0.66665  0.60959  0.87548  1.0000
  N   N79       1.0  0.64605  0.61496  0.90872  1.0000
  C   C814      1.0  0.51721  0.75212  0.78235  1.0000
  C   C815      1.0  0.92745  0.69882  0.99942  1.0000
  H   H1278     1.0  0.66804  0.58241  0.91244  1.0000
  C   C816      1.0  0.75200  0.51467  0.77654  1.0000
  H   H1279     1.0  0.54665  0.66030  0.79464  1.0000
  C   C817      1.0  0.66141  0.59810  0.92358  1.0000
  C   C818      1.0  0.58649  0.69748  0.76444  1.0000
  H   H1280     1.0  0.65114  0.59055  0.93952  1.0000
  C   C819      1.0  0.84333  0.60028  0.53731  1.0000
  C   C820      1.0  0.79954  0.60363  0.53095  1.0000
  S   S335      1.0  0.82495  0.66200  0.99750  1.0000
  H   H1281     1.0  0.65365  0.64590  0.93170  1.0000
  H   H1282     1.0  0.83324  0.66287  0.89988  1.0000
  H   H1283     1.0  0.67812  0.60740  0.93075  1.0000
  C   C821      1.0  0.54235  0.69633  0.76038  1.0000
  H   H1284     1.0  0.85206  0.63119  0.65060  1.0000
  H   H1285     1.0  0.83969  0.65769  0.66566  1.0000
  H   H1286     1.0  0.83121  0.63803  0.87891  1.0000
  N   N80       1.0  0.82057  0.58647  0.53237  1.0000
  H   H1287     1.0  0.86853  0.69434  0.87018  1.0000
  S   S336      1.0  0.86376  0.70879  0.99572  1.0000
  H   H1288     1.0  0.60264  0.69413  0.77661  1.0000
  H   H1289     1.0  0.57945  0.66074  0.79608  1.0000
  H   H1290     1.0  0.58687  0.71711  0.75882  1.0000
  H   H1291     1.0  0.57555  0.70230  0.81303  1.0000
  N   N81       1.0  0.56327  0.69138  0.77707  1.0000
  H   H1292     1.0  0.87206  0.64535  0.91701  1.0000
  H   H1293     1.0  0.84220  0.61013  0.55509  1.0000
  N   N82       1.0  0.86634  0.65607  0.87943  1.0000
  H   H1294     1.0  0.86602  0.65997  0.84011  1.0000
  H   H1295     1.0  0.88967  0.75393  0.58183  1.0000
  H   H1296     1.0  0.86878  0.62042  0.89621  1.0000
  H   H1297     1.0  0.54236  0.71564  0.75386  1.0000
  H   H1298     1.0  0.88897  0.63255  0.67737  1.0000
  C   C822      1.0  0.87618  0.68089  0.88357  1.0000
  C   C823      1.0  0.88785  0.65289  0.67671  1.0000
  H   H1299     1.0  0.67771  0.63373  0.89448  1.0000
  C   C824      1.0  0.85197  0.65156  0.65056  1.0000
  H   H1300     1.0  0.86773  0.69562  0.63569  1.0000
  H   H1301     1.0  0.85970  0.58808  0.53828  1.0000
  C   C825      1.0  0.56345  0.66524  0.78411  1.0000
  H   H1302     1.0  0.88472  0.65909  0.61474  1.0000
  H   H1303     1.0  0.69233  0.51371  0.76455  1.0000
  H   H1304     1.0  0.84338  0.65754  0.63292  1.0000
  C   C826      1.0  0.89246  0.65299  0.63265  1.0000
  H   H1305     1.0  0.62613  0.64864  0.91356  1.0000
  H   H1306     1.0  0.87667  0.65895  0.69270  1.0000
  H   H1307     1.0  0.86479  0.69574  0.66855  1.0000
  H   H1308     1.0  0.91139  0.66059  0.63371  1.0000
  N   N83       1.0  0.87705  0.66150  0.65327  1.0000
  H   H1309     1.0  0.62663  0.62897  0.94007  1.0000
  C   C827      1.0  0.87656  0.63913  0.89809  1.0000
  Fe  Fe168     1.0  0.51119  0.67468  0.84502  1.0000
  H   H1310     1.0  0.79997  0.55714  0.54883  1.0000
  C   C828      1.0  0.87343  0.64761  0.85467  1.0000
  H   H1311     1.0  0.83077  0.66903  0.86756  1.0000
  H   H1312     1.0  0.75392  0.55398  0.72807  1.0000
  H   H1313     1.0  0.98063  0.75010  0.77112  1.0000
  H   H1314     1.0  0.65003  0.63803  0.87685  1.0000
  H   H1315     1.0  0.69186  0.75092  0.56978  1.0000
  C   C829      1.0  0.56085  0.70654  0.79938  1.0000
  H   H1316     1.0  0.90680  0.66010  0.67924  1.0000
  H   H1317     1.0  0.61374  0.59300  0.91419  1.0000
  C   C830      1.0  0.62442  0.60172  0.89915  1.0000
  H   H1318     1.0  0.58897  0.68631  0.74756  1.0000
  C   C831      1.0  0.63775  0.63553  0.92423  1.0000
  H   H1319     1.0  0.89391  0.63269  0.63225  1.0000
  H   H1320     1.0  0.61166  0.61422  0.88913  1.0000
  H   H1321     1.0  0.89467  0.69669  0.65436  1.0000
  H   H1322     1.0  0.62985  0.58706  0.88603  1.0000
  H   H1323     1.0  0.96921  0.71469  0.97908  1.0000
  Fe  Fe169     1.0  0.86484  0.66916  0.00700  1.0000
  C   C832      1.0  0.78123  0.74699  0.00560  1.0000
  H   H1324     1.0  0.96082  0.68635  0.96511  1.0000
  H   H1325     1.0  0.91883  0.69051  0.98293  1.0000
  H   H1326     1.0  0.78197  0.59386  0.52760  1.0000
  H   H1327     1.0  0.83247  0.55634  0.55519  1.0000
  H   H1328     1.0  0.78036  0.52088  0.71122  1.0000
  C   C833      1.0  0.77261  0.51908  0.72943  1.0000
  C   C834      1.0  0.81636  0.56868  0.55246  1.0000
  C   C835      1.0  0.76767  0.72740  0.51366  1.0000
  H   H1329     1.0  0.79741  0.61410  0.54838  1.0000
  H   H1330     1.0  0.74421  0.51294  0.79474  1.0000
  N   N84       1.0  0.95233  0.68879  0.00366  1.0000
  H   H1331     1.0  0.51566  0.74665  0.80142  1.0000
  H   H1332     1.0  0.77530  0.70911  0.51437  1.0000
  H   H1333     1.0  0.98718  0.68760  0.98494  1.0000
  H   H1334     1.0  0.74470  0.75011  0.99053  1.0000
  C   C836      1.0  0.96811  0.69460  0.98232  1.0000
  C   C837      1.0  0.95081  0.66196  0.00673  1.0000
  C   C838      1.0  0.90361  0.75700  0.59567  1.0000
  C   C839      1.0  0.75745  0.75705  0.00409  1.0000
  H   H1335     1.0  0.96928  0.65367  0.00978  1.0000
  Fe  Fe170     1.0  0.69198  0.79836  0.47395  1.0000
  S   S337      1.0  0.70735  0.83477  0.48459  1.0000
  H   H1336     1.0  0.54016  0.80040  0.33874  1.0000
  Fe  Fe171     1.0  0.64493  0.82104  0.45096  1.0000
  S   S338      1.0  0.65719  0.85927  0.45986  1.0000
  S   S339      1.0  0.60826  0.80778  0.43548  1.0000
  Fe  Fe172     1.0  0.69507  0.84744  0.44695  1.0000
  S   S340      1.0  0.71892  0.86310  0.41585  1.0000
  H   H1337     1.0  0.00684  0.81930  0.29972  1.0000
  S   S341      1.0  0.68163  0.81011  0.43578  1.0000
  S   S342      1.0  0.65413  0.80575  0.48840  1.0000
  Fe  Fe173     1.0  0.83024  0.95003  0.37105  1.0000
  S   S343      1.0  0.83209  0.93234  0.33392  1.0000
  S   S344      1.0  0.81037  0.93566  0.40528  1.0000
  S   S345      1.0  0.86279  0.98049  0.31472  1.0000
  Fe  Fe174     1.0  0.82299  0.96998  0.31914  1.0000
  S   S346      1.0  0.79101  0.96952  0.29194  1.0000
  Fe  Fe175     1.0  0.87169  0.94429  0.33289  1.0000
  S   S347      1.0  0.90470  0.92456  0.31603  1.0000
  H   H1338     1.0  0.93611  0.83853  0.27128  1.0000
  S   S348      1.0  0.87070  0.95926  0.37122  1.0000
  H   H1339     1.0  0.73773  0.76160  0.07509  1.0000
  H   H1340     1.0  0.92251  0.95300  0.35661  1.0000
  Fe  Fe176     1.0  0.69987  0.87758  0.07862  1.0000
  S   S349      1.0  0.66193  0.86798  0.06558  1.0000
  S   S350      1.0  0.71304  0.90995  0.10139  1.0000
  Fe  Fe177     1.0  0.72186  0.82931  0.05835  1.0000
  S   S351      1.0  0.68547  0.81610  0.04452  1.0000
  S   S352      1.0  0.75803  0.80858  0.05799  1.0000
  Fe  Fe178     1.0  0.68103  0.85518  0.03101  1.0000
  Fe  Fe179     1.0  0.66981  0.82996  0.08027  1.0000
  S   S353      1.0  0.64725  0.81274  0.11122  1.0000
  S   S354      1.0  0.71844  0.86739  0.04313  1.0000
  S   S355      1.0  0.70684  0.84047  0.09492  1.0000
  H   H1341     1.0  0.75252  0.92340  0.34675  1.0000
  H   H1342     1.0  0.54335  0.84612  0.43699  1.0000
  S   S356      1.0  0.53695  0.85656  0.35599  1.0000
  H   H1343     1.0  0.78027  0.77746  0.46722  1.0000
  S   S357      1.0  0.65457  0.99364  0.15819  1.0000
  C   C840      1.0  0.94071  0.95923  0.36338  1.0000
  C   C841      1.0  0.94717  0.83337  0.28775  1.0000
  H   H1344     1.0  0.53493  0.83813  0.46785  1.0000
  H   H1345     1.0  0.97299  0.99347  0.37716  1.0000
  C   C842      1.0  0.63325  0.78354  0.11393  1.0000
  C   C843      1.0  0.77331  0.82969  0.43367  1.0000
  C   C844      1.0  0.77817  0.99406  0.27470  1.0000
  H   H1346     1.0  0.97404  0.85598  0.25284  1.0000
  C   C845      1.0  0.76642  0.78492  0.03754  1.0000
  C   C846      1.0  0.95279  0.97143  0.32243  1.0000
  H   H1347     1.0  0.57116  0.76115  0.29250  1.0000
  C   C847      1.0  0.67121  0.97190  0.14062  1.0000
  C   C848      1.0  0.69673  0.96964  0.14269  1.0000
  C   C849      1.0  0.70923  0.95093  0.13004  1.0000
  C   C850      1.0  0.69648  0.93454  0.11485  1.0000
  C   C851      1.0  0.67105  0.93738  0.11204  1.0000
  C   C852      1.0  0.65844  0.95569  0.12523  1.0000
  H   H1348     1.0  0.70678  0.98188  0.15455  1.0000
  H   H1349     1.0  0.72890  0.94895  0.13228  1.0000
  H   H1350     1.0  0.66108  0.92548  0.09977  1.0000
  H   H1351     1.0  0.63873  0.95748  0.12330  1.0000
  C   C853      1.0  0.92666  0.90607  0.33157  1.0000
  C   C854      1.0  0.92169  0.89500  0.35423  1.0000
  C   C855      1.0  0.93933  0.87951  0.36532  1.0000
  C   C856      1.0  0.96230  0.87546  0.35423  1.0000
  C   C857      1.0  0.96759  0.88731  0.33205  1.0000
  C   C858      1.0  0.94970  0.90217  0.32057  1.0000
  H   H1352     1.0  0.90402  0.89781  0.36289  1.0000
  H   H1353     1.0  0.93506  0.87047  0.38252  1.0000
  H   H1354     1.0  0.98534  0.88476  0.32358  1.0000
  H   H1355     1.0  0.95374  0.91074  0.30309  1.0000
  H   H1356     1.0  0.74534  0.77434  0.43803  1.0000
  H   H1357     1.0  0.78778  0.77019  0.42265  1.0000
  H   H1358     1.0  0.54598  0.79599  0.30665  1.0000
  C   C859      1.0  0.58923  0.82168  0.41295  1.0000
  C   C860      1.0  0.59501  0.84401  0.40180  1.0000
  C   C861      1.0  0.57890  0.85442  0.38428  1.0000
  C   C862      1.0  0.55681  0.84277  0.37795  1.0000
  C   C863      1.0  0.55107  0.82046  0.38913  1.0000
  C   C864      1.0  0.56729  0.80992  0.40639  1.0000
  H   H1359     1.0  0.61187  0.85323  0.40668  1.0000
  H   H1360     1.0  0.58354  0.87168  0.37570  1.0000
  H   H1361     1.0  0.53421  0.81126  0.38450  1.0000
  H   H1362     1.0  0.56272  0.79263  0.41495  1.0000
  C   C865      1.0  0.74452  0.88318  0.41368  1.0000
  C   C866      1.0  0.75625  0.88594  0.39077  1.0000
  C   C867      1.0  0.77671  0.90148  0.38799  1.0000
  C   C868      1.0  0.78549  0.91480  0.40804  1.0000
  C   C869      1.0  0.77394  0.91184  0.43100  1.0000
  C   C870      1.0  0.75363  0.89609  0.43386  1.0000
  H   H1363     1.0  0.74955  0.87583  0.37509  1.0000
  H   H1364     1.0  0.78575  0.90312  0.37038  1.0000
  H   H1365     1.0  0.78063  0.92198  0.44667  1.0000
  H   H1366     1.0  0.74487  0.89418  0.45160  1.0000
  H   H1367     1.0  0.54502  0.78027  0.25680  1.0000
  H   H1368     1.0  0.71018  0.95549  0.33109  1.0000
  H   H1369     1.0  0.74770  0.94569  0.38717  1.0000
  H   H1370     1.0  0.93824  0.96476  0.38289  1.0000
  H   H1371     1.0  0.93469  0.96631  0.31443  1.0000
  C   C871      1.0  0.63165  0.76735  0.09416  1.0000
  C   C872      1.0  0.55413  0.79400  0.32529  1.0000
  H   H1372     1.0  0.99381  0.80432  0.25797  1.0000
  N   N85       1.0  0.77241  0.80300  0.43799  1.0000
  C   C873      1.0  0.75195  0.96284  0.37696  1.0000
  H   H1373     1.0  0.68578  0.78073  0.08779  1.0000
  H   H1374     1.0  0.98563  0.83676  0.31782  1.0000
  H   H1375     1.0  0.73930  0.00055  0.34745  1.0000
  H   H1376     1.0  0.58943  0.77979  0.35624  1.0000
  H   H1377     1.0  0.56039  0.77196  0.36955  1.0000
  H   H1378     1.0  0.73477  0.80304  0.44959  1.0000
  H   H1379     1.0  0.93850  0.81700  0.29627  1.0000
  C   C874      1.0  0.71698  0.95672  0.35037  1.0000
  H   H1380     1.0  0.70644  0.97150  0.35968  1.0000
  H   H1381     1.0  0.98303  0.86652  0.28274  1.0000
  H   H1382     1.0  0.80297  0.78173  0.05264  1.0000
  H   H1383     1.0  0.56561  0.00527  0.19551  1.0000
  C   C875      1.0  0.62381  0.77633  0.13689  1.0000
  C   C876      1.0  0.78146  0.79740  0.46304  1.0000
  C   C877      1.0  0.98391  0.85067  0.27001  1.0000
  N   N86       1.0  0.66155  0.87498  0.15454  1.0000
  C   C878      1.0  0.64110  0.86397  0.16851  1.0000
  C   C879      1.0  0.68272  0.85797  0.15440  1.0000
  C   C880      1.0  0.66897  0.89828  0.16604  1.0000
  C   C881      1.0  0.65345  0.87966  0.12903  1.0000
  H   H1384     1.0  0.62475  0.87627  0.16872  1.0000
  H   H1385     1.0  0.64645  0.86013  0.18790  1.0000
  H   H1386     1.0  0.63524  0.84631  0.16014  1.0000
  H   H1387     1.0  0.68922  0.85380  0.17336  1.0000
  H   H1388     1.0  0.67787  0.84033  0.14547  1.0000
  H   H1389     1.0  0.69851  0.86586  0.14405  1.0000
  H   H1390     1.0  0.65380  0.91201  0.16563  1.0000
  H   H1391     1.0  0.68482  0.90659  0.15617  1.0000
  H   H1392     1.0  0.67465  0.89560  0.18551  1.0000
  H   H1393     1.0  0.66897  0.88603  0.11747  1.0000
  H   H1394     1.0  0.63872  0.89381  0.12813  1.0000
  H   H1395     1.0  0.64611  0.86287  0.12029  1.0000
  H   H1396     1.0  0.00361  0.84770  0.26523  1.0000
  H   H1397     1.0  0.91432  0.99512  0.34207  1.0000
  C   C882      1.0  0.79017  0.77485  0.03910  1.0000
  H   H1398     1.0  0.97995  0.80501  0.31239  1.0000
  H   H1399     1.0  0.96498  0.95511  0.32105  1.0000
  H   H1400     1.0  0.71297  0.78340  0.10621  1.0000
  H   H1401     1.0  0.56989  0.80688  0.32645  1.0000
  H   H1402     1.0  0.75207  0.94075  0.31859  1.0000
  H   H1403     1.0  0.71089  0.76027  0.05602  1.0000
  H   H1404     1.0  0.75031  0.97119  0.25860  1.0000
  S   S358      1.0  0.81952  0.98716  0.35650  1.0000
  C   C883      1.0  0.93278  0.00035  0.34917  1.0000
  H   H1405     1.0  0.77713  0.94400  0.33959  1.0000
  H   H1406     1.0  0.80097  0.80295  0.46545  1.0000
  H   H1407     1.0  0.71245  0.93917  0.35978  1.0000
  H   H1408     1.0  0.63835  0.77283  0.07628  1.0000
  C   C884      1.0  0.75769  0.98950  0.25960  1.0000
  C   C885      1.0  0.57950  0.76051  0.31124  1.0000
  H   H1409     1.0  0.76686  0.83451  0.41481  1.0000
  H   H1410     1.0  0.80741  0.79650  0.42092  1.0000
  H   H1411     1.0  0.62480  0.78872  0.15230  1.0000
  C   C886      1.0  0.75687  0.94150  0.33849  1.0000
  C   C887      1.0  0.98700  0.82208  0.30377  1.0000
  H   H1412     1.0  0.77218  0.96556  0.37826  1.0000
  Fe  Fe180     1.0  0.86009  0.99496  0.35323  1.0000
  H   H1413     1.0  0.76750  0.85769  0.01220  1.0000
  H   H1414     1.0  0.78142  0.79402  0.40065  1.0000
  C   C888      1.0  0.75000  0.77583  0.02006  1.0000
  C   C889      1.0  0.78797  0.79037  0.41973  1.0000
  C   C890      1.0  0.97449  0.80808  0.26361  1.0000
  H   H1415     1.0  0.73890  0.79930  0.41720  1.0000
  H   H1416     1.0  0.73154  0.78310  0.01889  1.0000
  S   S359      1.0  0.98333  0.85461  0.36803  1.0000
  H   H1417     1.0  0.76121  0.83975  0.44672  1.0000
  S   S360      1.0  0.71103  0.76168  0.47891  1.0000
  H   H1418     1.0  0.73114  0.00458  0.23393  1.0000
  H   H1419     1.0  0.96713  0.79083  0.27163  1.0000
  N   N87       1.0  0.97312  0.82854  0.28127  1.0000
  C   C891      1.0  0.74679  0.79452  0.43551  1.0000
  Fe  Fe181     1.0  0.66836  0.84312  0.49668  1.0000
  H   H1420     1.0  0.96052  0.98611  0.31057  1.0000
  H   H1421     1.0  0.98793  0.97197  0.35713  1.0000
  H   H1422     1.0  0.95323  0.94307  0.36301  1.0000
  N   N88       1.0  0.74367  0.96152  0.35108  1.0000
  H   H1423     1.0  0.79225  0.83699  0.43579  1.0000
  H   H1424     1.0  0.77046  0.80716  0.47719  1.0000
  N   N89       1.0  0.95018  0.97957  0.34818  1.0000
  H   H1425     1.0  0.52959  0.81700  0.44329  1.0000
  H   H1426     1.0  0.74298  0.97818  0.38690  1.0000
  H   H1427     1.0  0.76886  0.98899  0.33847  1.0000
  C   C892      1.0  0.52914  0.83672  0.44829  1.0000
  H   H1428     1.0  0.94552  0.84861  0.30121  1.0000
  H   H1429     1.0  0.74302  0.98450  0.31884  1.0000
  H   H1430     1.0  0.96384  0.81208  0.24657  1.0000
  H   H1431     1.0  0.51838  0.88393  0.43968  1.0000
  H   H1432     1.0  0.51083  0.85513  0.40582  1.0000
  C   C893      1.0  0.74885  0.98494  0.33849  1.0000
  N   N90       1.0  0.56182  0.76847  0.33025  1.0000
  H   H1433     1.0  0.68575  0.76945  0.11867  1.0000
  C   C894      1.0  0.52939  0.76856  0.26007  1.0000
  C   C895      1.0  0.69725  0.77120  0.10183  1.0000
  H   H1434     1.0  0.56971  0.00247  0.22821  1.0000
  C   C896      1.0  0.57357  0.76704  0.35476  1.0000
  C   C897      1.0  0.97436  0.98727  0.35774  1.0000
  H   H1435     1.0  0.59608  0.77235  0.31096  1.0000
  H   H1436     1.0  0.98198  0.00271  0.34677  1.0000
  H   H1437     1.0  0.59323  0.99179  0.20760  1.0000
  C   C898      1.0  0.57935  0.00651  0.21064  1.0000
  H   H1438     1.0  0.52577  0.75839  0.34302  1.0000
  H   H1439     1.0  0.50968  0.87611  0.47060  1.0000
  H   H1440     1.0  0.50953  0.79567  0.28117  1.0000
  H   H1441     1.0  0.93011  0.00692  0.36833  1.0000
  Fe  Fe182     1.0  0.98698  0.81830  0.70648  1.0000
  S   S361      1.0  0.98281  0.78831  0.73524  1.0000
  Fe  Fe183     1.0  0.96488  0.86901  0.69465  1.0000
  S   S362      1.0  0.97756  0.86747  0.65558  1.0000
  S   S363      1.0  0.94074  0.89794  0.71263  1.0000
  Fe  Fe184     1.0  0.96459  0.82829  0.65564  1.0000
  S   S364      1.0  0.93776  0.81617  0.62572  1.0000
  S   S365      1.0  0.94975  0.83102  0.69381  1.0000
  H   H1442     1.0  0.77978  0.87150  0.98480  1.0000
  S   S366      1.0  0.66046  0.86084  0.53380  1.0000
  H   H1443     1.0  0.59225  0.93562  0.87490  1.0000
  S   S367      1.0  0.72636  0.98953  0.87269  1.0000
  Fe  Fe185     1.0  0.67832  0.95308  0.83478  1.0000
  S   S368      1.0  0.71494  0.93714  0.84637  1.0000
  S   S369      1.0  0.64883  0.92760  0.81902  1.0000
  Fe  Fe186     1.0  0.70774  0.95435  0.88317  1.0000
  S   S370      1.0  0.71889  0.93967  0.92097  1.0000
  Fe  Fe187     1.0  0.73030  0.97369  0.83482  1.0000
  S   S371      1.0  0.76799  0.97798  0.81727  1.0000
  S   S372      1.0  0.67032  0.96831  0.87265  1.0000
  H   H1444     1.0  0.94734  0.82133  0.80187  1.0000
  Fe  Fe188     1.0  0.56623  0.81792  0.70858  1.0000
  S   S373      1.0  0.55175  0.85613  0.71376  1.0000
  S   S374      1.0  0.56446  0.79227  0.74147  1.0000
  Fe  Fe189     1.0  0.58580  0.82945  0.65675  1.0000
  S   S375      1.0  0.57286  0.86842  0.65899  1.0000
  S   S376      1.0  0.60079  0.81165  0.62176  1.0000
  Fe  Fe190     1.0  0.58785  0.86815  0.69786  1.0000
  S   S377      1.0  0.61119  0.90053  0.71063  1.0000
  Fe  Fe191     1.0  0.53816  0.85254  0.67474  1.0000
  S   S378      1.0  0.60320  0.83001  0.69441  1.0000
  S   S379      1.0  0.55015  0.81352  0.67079  1.0000
  C   C899      1.0  0.77458  0.99393  0.78968  1.0000
  S   S380      1.0  0.66784  0.86184  0.99177  1.0000
  H   H1445     1.0  0.54161  0.81953  0.60140  1.0000
  C   C900      1.0  0.74818  0.85059  0.95315  1.0000
  H   H1446     1.0  0.62270  0.94202  0.86407  1.0000
  H   H1447     1.0  0.60484  0.91904  0.84930  1.0000
  H   H1448     1.0  0.74145  0.83522  0.94164  1.0000
  C   C901      1.0  0.70398  0.91819  0.94025  1.0000
  C   C902      1.0  0.71096  0.91668  0.96510  1.0000
  C   C903      1.0  0.69987  0.89971  0.98109  1.0000
  C   C904      1.0  0.68190  0.88377  0.97230  1.0000
  C   C905      1.0  0.67515  0.88500  0.94734  1.0000
  C   C906      1.0  0.68610  0.90219  0.93139  1.0000
  H   H1449     1.0  0.72480  0.92899  0.97211  1.0000
  H   H1450     1.0  0.68768  0.79332  0.60564  1.0000
  H   H1451     1.0  0.66150  0.87250  0.94034  1.0000
  H   H1452     1.0  0.68113  0.90286  0.91218  1.0000
  H   H1453     1.0  0.65633  0.91169  0.87072  1.0000
  C   C907      1.0  0.70691  0.76462  0.57071  1.0000
  Fe  Fe192     1.0  0.68951  0.00244  0.85984  1.0000
  H   H1454     1.0  0.69783  0.78667  0.52797  1.0000
  H   H1455     1.0  0.56099  0.84146  0.61591  1.0000
  C   C908      1.0  0.63950  0.91991  0.78853  1.0000
  C   C909      1.0  0.62279  0.90059  0.78523  1.0000
  C   C910      1.0  0.61428  0.89413  0.76157  1.0000
  C   C911      1.0  0.62215  0.90715  0.74085  1.0000
  C   C912      1.0  0.63887  0.92648  0.74416  1.0000
  C   C913      1.0  0.64761  0.93275  0.76779  1.0000
  H   H1456     1.0  0.61636  0.89048  0.80105  1.0000
  H   H1457     1.0  0.60144  0.87925  0.75939  1.0000
  H   H1458     1.0  0.64508  0.93670  0.72830  1.0000
  H   H1459     1.0  0.66038  0.94768  0.76996  1.0000
  C   C914      1.0  0.64175  0.84798  0.55726  1.0000
  C   C915      1.0  0.63932  0.86031  0.57978  1.0000
  C   C916      1.0  0.62614  0.84985  0.59949  1.0000
  C   C917      1.0  0.61553  0.82675  0.59695  1.0000
  C   C918      1.0  0.61743  0.81469  0.57425  1.0000
  C   C919      1.0  0.63024  0.82532  0.55444  1.0000
  H   H1460     1.0  0.64809  0.87787  0.58218  1.0000
  H   H1461     1.0  0.62491  0.85933  0.61689  1.0000
  H   H1462     1.0  0.60917  0.79686  0.57206  1.0000
  H   H1463     1.0  0.63155  0.81574  0.53716  1.0000
  H   H1464     1.0  0.71119  0.82652  0.56588  1.0000
  C   C920      1.0  0.92860  0.92358  0.69656  1.0000
  C   C921      1.0  0.93490  0.92848  0.67213  1.0000
  C   C922      1.0  0.92433  0.94860  0.65971  1.0000
  C   C923      1.0  0.90742  0.96407  0.67155  1.0000
  C   C924      1.0  0.90140  0.95942  0.69610  1.0000
  C   C925      1.0  0.91194  0.93924  0.70851  1.0000
  H   H1465     1.0  0.94790  0.91676  0.66278  1.0000
  H   H1466     1.0  0.92922  0.95216  0.64076  1.0000
  H   H1467     1.0  0.88837  0.97113  0.70544  1.0000
  H   H1468     1.0  0.90696  0.93563  0.72743  1.0000
  C   C926      1.0  0.92908  0.78546  0.61935  1.0000
  C   C927      1.0  0.91079  0.78106  0.60159  1.0000
  H   H1469     1.0  0.60927  0.92919  0.91660  1.0000
  H   H1470     1.0  0.73577  0.82620  0.00923  1.0000
  H   H1471     1.0  0.90226  0.79633  0.59214  1.0000
  H   H1472     1.0  0.95876  0.83429  0.74854  1.0000
  H   H1473     1.0  0.81374  0.99044  0.79461  1.0000
  H   H1474     1.0  0.55547  0.88582  0.60777  1.0000
  C   C928      1.0  0.96674  0.82174  0.79550  1.0000
  H   H1475     1.0  0.67893  0.81091  0.53953  1.0000
  N   N91       1.0  0.69735  0.78978  0.56742  1.0000
  H   H1476     1.0  0.74877  0.87797  0.99397  1.0000
  S   S381      1.0  0.89422  0.98865  0.65470  1.0000
  H   H1477     1.0  0.55003  0.77332  0.78814  1.0000
  H   H1478     1.0  0.96915  0.80626  0.78247  1.0000
  C   C929      1.0  0.53701  0.88156  0.60005  1.0000
  H   H1479     1.0  0.66888  0.77976  0.54187  1.0000
  H   H1480     1.0  0.93694  0.85004  0.76741  1.0000
  C   C930      1.0  0.54227  0.83858  0.60849  1.0000
  H   H1481     1.0  0.67244  0.81448  0.58549  1.0000
  H   H1482     1.0  0.98112  0.86316  0.81787  1.0000
  C   C931      1.0  0.74751  0.77474  0.51175  1.0000
  H   H1483     1.0  0.00190  0.83069  0.76163  1.0000
  H   H1484     1.0  0.52939  0.83998  0.62421  1.0000
  H   H1485     1.0  0.88694  0.91010  0.65480  1.0000
  H   H1486     1.0  0.90362  0.87431  0.67759  1.0000
  N   N92       1.0  0.53648  0.85679  0.58924  1.0000
  C   C932      1.0  0.53664  0.76723  0.77479  1.0000
  H   H1487     1.0  0.76743  0.80683  0.96724  1.0000
  H   H1488     1.0  0.52341  0.77174  0.71385  1.0000
  H   H1489     1.0  0.74002  0.79306  0.51089  1.0000
  H   H1490     1.0  0.64009  0.93428  0.90605  1.0000
  H   H1491     1.0  0.97326  0.88353  0.79299  1.0000
  H   H1492     1.0  0.66314  0.78309  0.58615  1.0000
  C   C933      1.0  0.95666  0.84931  0.76213  1.0000
  C   C934      1.0  0.55503  0.85503  0.56948  1.0000
  C   C935      1.0  0.73202  0.83203  0.98997  1.0000
  H   H1493     1.0  0.77582  0.78390  0.53799  1.0000
  C   C936      1.0  0.77362  0.82328  0.97752  1.0000
  C   C937      1.0  0.60106  0.88910  0.88862  1.0000
  H   H1494     1.0  0.60813  0.87471  0.90137  1.0000
  H   H1495     1.0  0.59608  0.88000  0.87101  1.0000
  H   H1496     1.0  0.58385  0.89663  0.89671  1.0000
  N   N93       1.0  0.75423  0.84229  0.97837  1.0000
  C   C938      1.0  0.68522  0.79186  0.54317  1.0000
  H   H1497     1.0  0.79057  0.83018  0.96850  1.0000
  C   C939      1.0  0.76298  0.86329  0.99297  1.0000
  H   H1498     1.0  0.51339  0.82610  0.74386  1.0000
  N   N94       1.0  0.97279  0.84538  0.78371  1.0000
  C   C940      1.0  0.99872  0.84504  0.77570  1.0000
  S   S382      1.0  0.69424  0.98868  0.82095  1.0000
  C   C941      1.0  0.75595  0.00323  0.77453  1.0000
  H   H1499     1.0  0.84837  0.87327  0.63719  1.0000
  H   H1500     1.0  0.97884  0.81791  0.81159  1.0000
  C   C942      1.0  0.60929  0.92709  0.86756  1.0000
  H   H1501     1.0  0.63809  0.88917  0.85563  1.0000
  C   C943      1.0  0.00535  0.77677  0.75570  1.0000
  H   H1502     1.0  0.55139  0.86849  0.55452  1.0000
  H   H1503     1.0  0.94969  0.86615  0.80798  1.0000
  C   C944      1.0  0.96905  0.86543  0.80146  1.0000
  C   C945      1.0  0.88987  0.89983  0.63738  1.0000
  H   H1504     1.0  0.90846  0.90470  0.63045  1.0000
  H   H1505     1.0  0.75688  0.99947  0.65638  1.0000
  H   H1506     1.0  0.96100  0.86676  0.75247  1.0000
  H   H1507     1.0  0.73349  0.86488  0.95325  1.0000
  C   C946      1.0  0.90612  0.86505  0.65955  1.0000
  H   H1508     1.0  0.87620  0.90671  0.62376  1.0000
  H   H1509     1.0  0.92503  0.86916  0.65317  1.0000
  C   C947      1.0  0.86280  0.86746  0.65054  1.0000
  H   H1510     1.0  0.87872  0.86625  0.60336  1.0000
  H   H1511     1.0  0.64990  0.88320  0.88598  1.0000
  H   H1512     1.0  0.63261  0.90650  0.92190  1.0000
  N   N95       1.0  0.88765  0.87317  0.64131  1.0000
  H   H1513     1.0  0.86064  0.84746  0.65380  1.0000
  H   H1514     1.0  0.90526  0.84493  0.66268  1.0000
  C   C948      1.0  0.67940  0.79535  0.58702  1.0000
  H   H1515     1.0  0.57389  0.85858  0.57665  1.0000
  C   C949      1.0  0.53892  0.77449  0.75012  1.0000
  H   H1516     1.0  0.91085  0.86347  0.61084  1.0000
  H   H1517     1.0  0.85909  0.87692  0.66826  1.0000
  N   N96       1.0  0.61947  0.90849  0.88460  1.0000
  C   C950      1.0  0.64191  0.89761  0.87385  1.0000
  H   H1518     1.0  0.70502  0.89923  0.00028  1.0000
  C   C951      1.0  0.62560  0.92012  0.90832  1.0000
  C   C952      1.0  0.89190  0.86026  0.61785  1.0000
  H   H1519     1.0  0.89002  0.84008  0.62012  1.0000
  H   H1520     1.0  0.71691  0.84573  0.99054  1.0000
  C   C953      1.0  0.71784  0.80738  0.56871  1.0000
  C   C954      1.0  0.79923  0.99769  0.78303  1.0000
  H   H1521     1.0  0.55540  0.83641  0.56126  1.0000
  S   S383      1.0  0.00122  0.81328  0.66792  1.0000
  H   H1522     1.0  0.72504  0.81587  0.97978  1.0000
  H   H1523     1.0  0.00417  0.86281  0.76732  1.0000
  H   H1524     1.0  0.95414  0.76853  0.64495  1.0000
  C   C955      1.0  0.94002  0.76547  0.63129  1.0000
  H   H1525     1.0  0.73695  0.99992  0.77917  1.0000
  H   H1526     1.0  0.72725  0.80655  0.58688  1.0000
  H   H1527     1.0  0.76445  0.85865  0.94382  1.0000
  S   S384      1.0  0.00110  0.85677  0.71083  1.0000
  C   C956      1.0  0.51173  0.85193  0.57918  1.0000
  H   H1528     1.0  0.53248  0.89587  0.58617  1.0000
  H   H1529     1.0  0.95431  0.99299  0.67404  1.0000
  H   H1530     1.0  0.77882  0.81701  0.99636  1.0000
  H   H1531     1.0  0.52355  0.88331  0.61540  1.0000
  C   C957      1.0  0.76782  0.76954  0.52698  1.0000
  H   H1532     1.0  0.71635  0.76235  0.58875  1.0000
  C   C958      1.0  0.52150  0.76665  0.73299  1.0000
  H   H1533     1.0  0.97502  0.99614  0.69952  1.0000
  H   H1534     1.0  0.73187  0.80361  0.55437  1.0000
  C   C959      1.0  0.96705  0.00592  0.68337  1.0000
  H   H1535     1.0  0.51038  0.83307  0.57167  1.0000
  C   C960      1.0  0.99888  0.75782  0.77196  1.0000
  H   H1536     1.0  0.72045  0.75980  0.55613  1.0000
