data_image0
_chemical_formula_structural       H2SFeS2FeS2FeSFeS3H2C3HFeS2NH2CH2C6H6C6H4CH6CH4CH3SCHCHNC4H9C2H5CH5CHCHC2N3H4CHC5HSC2HSH2CFeCHFeHSFeCH2CH2S2CH5CHCH2C3HNHSCH3SH3S2FeSNH4SFe2SCHFeS2CSHSCHFeH3SH5C4H2C6H2FeH2FeCHCH3CHSHC3FeSCFeS2FeSFeS3HSCFe2HS4CFeS3FeSFeSCHCHCFeH2C7H7C2H3C6H4C3HCH2C6H5SHNFeC3SHSCNH4SCSH3SHC2H3FeC2SFeC3HCH3CH3NC4H4SH11CH2C3SH2FeH6CNC4H13NHCH7CFeHCHNCH6SHC2HCH4C2H9C2HC2H2NCSHC2FeS4NSH3CFeCHSCH3FeSHSFeS2FeSFeCSFeS2FeSFeSFeS2Fe2HSHNFeCHC6H4C3H2C8H3S2CH2C6H4CH4CH2C7H4C2H2CH2NHCS2HSHFeH3CHSH4FeS2H9NSHNH2C2HCH2CH2CH3CNHCH2CFeH2CHFeCH7C2HCHSHCHCH4NC4H12CH3CHC2HSC2SC2NSHCHCHCHCH8CH3CHS3CH2C2HSHFeS2FeS2FeSFeHS2C2SCH4C6H4CH3C5H2CHCNCFeHSHCH2C2H2C2HSHSH2SH5FeHSHCH2NHCHCH4C2H3CH4CFeSHS2FeS2FeSHS3H2CSHC2SCH7C6H3CFe2NSC3SHCH5CH4FeHC2NFeC4HCSH8SC3H3FeHCH3CH4C2HSCH3NH2SH2C2H2CSFeS2FeHSHCFe2S2HCH2C4H3CHC2H8C6H4CNCHNH3CH2CH4SH3NHNC3HCHCH2C3H2SH5CH2CSCHCHCH2SH3SC3H2C2HCHSFeCH7SC2HSCH2CSHCHC2HFeH2CH2NCH2SH3CHFeCHNCH5CHCH2CSCHSCSC2H3SHC2FeCSC2SH2FeHFeSFeHSH4FeHSHSHSCH2CHSH2SH2NFeC4HCFeCHCH6NHCFeCH2SFeS2FeSCFeSFeS3FeH2FeSFeSHSCH2SH4C3H2C6H4CHC7H4NC4HCH2CFeHC2H8NCH7CSH2SHCHCHCNH2SH2SH2CH7C2H2NHCH2SNH2C2H2FeS2FeSFeS2HCS2H3CFeSCH3SCHSH2FeH9FeH3C4HCH3C6H4SNC4HCNHCH3CS2H2FeCH2CHCNCH2C2HC2H6CH2SH4SH2CHSCHCH2C2SHCSH2SCNCHC2SCH2NH2C4H3FeH2C2HCH2C3HC4H3CHCHCH6CH3CHC2H3C2H3CSHFeSNCHS2HCH3SFeH5C2SCHNHC3HCH2FeH2FeSHCHCNFeC5H8C6HSC3NSH4CH4CHSH2FeCH4CSH2SCHSFe2SFeS2FeS2FeSFeS3HS2C2H3FeS2FeSFeSFeS3HC2H4SC6H5C8H4C6H4C2H3C6H4CHC2HCH7NC4H3CH5CH3C3HCH2CH6CHNC4H5FeCFe2H10NC2HC2NC2H3CH2NH2C4H3C3H2CNCHCHCH3CH2C2H2SNHCH4FeHNH2CHCSH5C2H4NH2SCSHSH9S2H3FeS2FeS2Fe3SFeSHFeHCFeS3HC2HFeH2FeS2FeSHFeSFeS4CHSH3C9H5SHC3HSC2H2SH2C6H5SC2FeHCH2SHC3SHNH2C3H2CN2H2NC2H8NHC2H3CH2CH4FeHCHFeH2CS2H4CHC2H3CH2C2HSCHNCSH5CFeSH4CH2CFeHSCSC2HCH3CH4CHC2HFeHSHCH4FeSHCSHFeSFeSH2CHCSCHCHC2HNH2C6H5CSNHCSH2CSHCH3C3H3SNCH2CH3SHC2HC2HFeCH7CH2SCH3FeS3FeS2FeS2FeSFeS3CSH4C5H3C7H3CFeH2C6H5SHC2HNHC3HFeCS2CH3C2HFeC4NH2CFeHCHCH5C2H9C2H2CH5NHCH2CH4C2H4CH2C2H2CHNHCH2C2H5CNSCH
_chemical_formula_sum              "H1152 S288 Fe144 C720 N72"
_cell_length_a       61.2199
_cell_length_b       69.3623
_cell_length_c       31.9268
_cell_angle_alpha    85.0703
_cell_angle_beta     87.3228
_cell_angle_gamma    108.265

_space_group_name_H-M_alt    "P 1"
_space_group_IT_number       1

loop_
  _space_group_symop_operation_xyz
  'x, y, z'

loop_
  _atom_site_type_symbol
  _atom_site_label
  _atom_site_symmetry_multiplicity
  _atom_site_fract_x
  _atom_site_fract_y
  _atom_site_fract_z
  _atom_site_occupancy
  H   H1        1.0  0.34441  0.12860  0.10576  1.0000
  H   H2        1.0  0.40752  0.08845  0.11448  1.0000
  S   S1        1.0  0.35466  0.07256  0.05588  1.0000
  Fe  Fe1       1.0  0.27902  0.06114  0.28907  1.0000
  S   S2        1.0  0.30455  0.08982  0.30629  1.0000
  S   S3        1.0  0.25799  0.06241  0.23333  1.0000
  Fe  Fe2       1.0  0.28389  0.03517  0.36910  1.0000
  S   S4        1.0  0.30973  0.06197  0.39284  1.0000
  S   S5        1.0  0.27593  0.00202  0.39603  1.0000
  Fe  Fe3       1.0  0.28686  0.08005  0.37104  1.0000
  S   S6        1.0  0.27991  0.10323  0.41043  1.0000
  Fe  Fe4       1.0  0.32514  0.06956  0.32616  1.0000
  S   S7        1.0  0.36362  0.07922  0.31497  1.0000
  S   S8        1.0  0.25947  0.05257  0.35309  1.0000
  S   S9        1.0  0.30117  0.04150  0.30325  1.0000
  H   H3        1.0  0.17095  0.24864  0.52682  1.0000
  H   H4        1.0  0.37552  0.16792  0.39449  1.0000
  C   C1        1.0  0.34360  0.12722  0.07139  1.0000
  C   C2        1.0  0.27369  0.22396  0.06612  1.0000
  C   C3        1.0  0.39185  0.23700  0.25343  1.0000
  H   H5        1.0  0.24261  0.23229  0.06409  1.0000
  Fe  Fe5       1.0  0.29915  0.21321  0.34196  1.0000
  S   S10       1.0  0.27214  0.18590  0.32236  1.0000
  S   S11       1.0  0.32637  0.21077  0.38506  1.0000
  N   N1        1.0  0.35321  0.16258  0.34368  1.0000
  H   H6        1.0  0.34840  0.17230  0.40466  1.0000
  H   H7        1.0  0.24273  0.11562  0.27564  1.0000
  C   C4        1.0  0.34227  0.14066  0.35831  1.0000
  H   H8        1.0  0.43322  0.08546  0.09051  1.0000
  H   H9        1.0  0.40951  0.04247  0.06513  1.0000
  C   C5        1.0  0.27840  0.12628  0.38508  1.0000
  C   C6        1.0  0.27733  0.12904  0.34140  1.0000
  C   C7        1.0  0.27494  0.14723  0.32229  1.0000
  C   C8        1.0  0.27452  0.16301  0.34664  1.0000
  C   C9        1.0  0.27647  0.16055  0.39008  1.0000
  C   C10       1.0  0.27808  0.14211  0.40930  1.0000
  H   H10       1.0  0.27802  0.11707  0.32250  1.0000
  H   H11       1.0  0.27388  0.14927  0.28856  1.0000
  H   H12       1.0  0.27623  0.17269  0.40905  1.0000
  H   H13       1.0  0.27902  0.14011  0.44310  1.0000
  H   H14       1.0  0.37477  0.04688  0.09968  1.0000
  H   H15       1.0  0.38088  0.18152  0.29977  1.0000
  C   C11       1.0  0.28625  0.07502  0.09447  1.0000
  C   C12       1.0  0.26413  0.07522  0.10684  1.0000
  C   C13       1.0  0.25594  0.07136  0.14941  1.0000
  C   C14       1.0  0.26988  0.06755  0.18048  1.0000
  C   C15       1.0  0.29232  0.06774  0.16857  1.0000
  C   C16       1.0  0.30046  0.07136  0.12548  1.0000
  H   H16       1.0  0.25304  0.07803  0.08324  1.0000
  H   H17       1.0  0.23858  0.07115  0.15823  1.0000
  H   H18       1.0  0.30319  0.06476  0.19239  1.0000
  H   H19       1.0  0.31761  0.07125  0.11644  1.0000
  C   C17       1.0  0.37030  0.06230  0.28311  1.0000
  H   H20       1.0  0.29912  0.14589  0.05591  1.0000
  H   H21       1.0  0.35489  0.13374  0.37176  1.0000
  H   H22       1.0  0.37074  0.19037  0.36981  1.0000
  H   H23       1.0  0.32169  0.16980  0.34922  1.0000
  H   H24       1.0  0.34368  0.18729  0.31298  1.0000
  H   H25       1.0  0.29795  0.11973  0.06637  1.0000
  C   C18       1.0  0.38348  0.04865  0.12936  1.0000
  H   H26       1.0  0.25256  0.09376  0.28054  1.0000
  H   H27       1.0  0.26535  0.20846  0.05928  1.0000
  H   H28       1.0  0.30814  0.13718  0.10483  1.0000
  H   H29       1.0  0.43647  0.05035  0.08915  1.0000
  C   C19       1.0  0.36238  0.17376  0.37978  1.0000
  H   H30       1.0  0.33474  0.13179  0.33208  1.0000
  H   H31       1.0  0.23390  0.09609  0.24045  1.0000
  H   H32       1.0  0.19302  0.09363  0.26149  1.0000
  S   S12       1.0  0.38302  0.22528  0.30550  1.0000
  C   C20       1.0  0.31610  0.00150  0.04098  1.0000
  H   H33       1.0  0.37863  0.03312  0.14651  1.0000
  C   C21       1.0  0.33590  0.17089  0.32528  1.0000
  H   H34       1.0  0.32804  0.16248  0.29873  1.0000
  N   N2        1.0  0.21725  0.08778  0.30330  1.0000
  C   C22       1.0  0.21024  0.06576  0.29790  1.0000
  C   C23       1.0  0.22334  0.09086  0.34710  1.0000
  C   C24       1.0  0.19796  0.09565  0.29436  1.0000
  C   C25       1.0  0.23745  0.09887  0.27370  1.0000
  H   H35       1.0  0.20587  0.06291  0.26502  1.0000
  H   H36       1.0  0.19507  0.05680  0.31970  1.0000
  H   H37       1.0  0.22443  0.05934  0.30407  1.0000
  H   H38       1.0  0.23828  0.08562  0.35465  1.0000
  H   H39       1.0  0.22829  0.10728  0.35251  1.0000
  H   H40       1.0  0.20874  0.08228  0.37046  1.0000
  H   H41       1.0  0.20265  0.11224  0.29819  1.0000
  H   H42       1.0  0.18239  0.08756  0.31607  1.0000
  H   H43       1.0  0.41282  0.06896  0.18170  1.0000
  C   C26       1.0  0.37227  0.16510  0.31136  1.0000
  C   C27       1.0  0.35558  0.05414  0.25242  1.0000
  H   H44       1.0  0.34164  0.06002  0.24508  1.0000
  H   H45       1.0  0.25922  0.01811  0.46866  1.0000
  H   H46       1.0  0.40038  0.06166  0.31490  1.0000
  H   H47       1.0  0.32802  0.13824  0.38322  1.0000
  H   H48       1.0  0.38571  0.15902  0.32411  1.0000
  C   C28       1.0  0.38883  0.05518  0.29141  1.0000
  H   H49       1.0  0.36594  0.15692  0.28358  1.0000
  H   H50       1.0  0.24764  0.21709  0.24763  1.0000
  H   H51       1.0  0.31501  0.00327  0.33917  1.0000
  H   H52       1.0  0.34640  0.03114  0.20947  1.0000
  H   H53       1.0  0.25541  0.23816  0.15810  1.0000
  C   C29       1.0  0.25422  0.24723  0.18470  1.0000
  H   H54       1.0  0.34187  0.02107  0.31694  1.0000
  C   C30       1.0  0.34503  0.16237  0.05634  1.0000
  H   H55       1.0  0.34633  0.16481  0.09024  1.0000
  C   C31       1.0  0.35838  0.03790  0.23209  1.0000
  C   C32       1.0  0.26553  0.22383  0.23261  1.0000
  N   N3        1.0  0.34348  0.00604  0.37773  1.0000
  N   N4        1.0  0.33207  0.14093  0.05092  1.0000
  N   N5        1.0  0.40874  0.05762  0.12093  1.0000
  H   H56       1.0  0.37619  0.05824  0.14830  1.0000
  H   H57       1.0  0.26754  0.21447  0.20694  1.0000
  H   H58       1.0  0.37584  0.00857  0.40330  1.0000
  H   H59       1.0  0.33431  0.11094  0.06763  1.0000
  C   C33       1.0  0.41943  0.01162  0.47154  1.0000
  H   H60       1.0  0.41316  0.02857  0.11282  1.0000
  C   C34       1.0  0.37584  0.02976  0.24268  1.0000
  C   C35       1.0  0.41352  0.00585  0.51488  1.0000
  C   C36       1.0  0.39148  0.03872  0.27142  1.0000
  C   C37       1.0  0.29735  0.23065  0.07132  1.0000
  C   C38       1.0  0.41742  0.04420  0.09591  1.0000
  H   H61       1.0  0.43866  0.06665  0.15643  1.0000
  S   S13       1.0  0.37986  0.22047  0.06391  1.0000
  C   C39       1.0  0.41961  0.05950  0.16141  1.0000
  C   C40       1.0  0.26088  0.23746  0.06862  1.0000
  H   H62       1.0  0.36289  0.16687  0.04124  1.0000
  S   S14       1.0  0.32401  0.23080  0.28796  1.0000
  H   H63       1.0  0.40535  0.03276  0.27883  1.0000
  H   H64       1.0  0.40660  0.07709  0.06604  1.0000
  C   C41       1.0  0.41429  0.07802  0.09705  1.0000
  Fe  Fe6       1.0  0.35090  0.23033  0.33211  1.0000
  C   C42       1.0  0.36834  0.00863  0.37234  1.0000
  H   H65       1.0  0.43156  0.02655  0.46103  1.0000
  Fe  Fe7       1.0  0.35069  0.23085  0.04208  1.0000
  H   H66       1.0  0.27969  0.24045  0.46085  1.0000
  S   S15       1.0  0.31356  0.21418  0.06372  1.0000
  Fe  Fe8       1.0  0.32367  0.24025  0.40630  1.0000
  C   C43       1.0  0.38432  0.24281  0.17972  1.0000
  H   H67       1.0  0.35882  0.22440  0.22845  1.0000
  H   H68       1.0  0.41615  0.04427  0.17962  1.0000
  C   C44       1.0  0.30828  0.13574  0.07038  1.0000
  H   H69       1.0  0.29715  0.24484  0.17079  1.0000
  H   H70       1.0  0.00694  0.23328  0.50777  1.0000
  S   S16       1.0  0.29446  0.24124  0.36678  1.0000
  S   S17       1.0  0.37743  0.00820  0.22005  1.0000
  C   C45       1.0  0.37651  0.23400  0.22141  1.0000
  H   H71       1.0  0.27737  0.22195  0.25689  1.0000
  H   H72       1.0  0.31483  0.01609  0.04808  1.0000
  H   H73       1.0  0.37806  0.02335  0.35382  1.0000
  H   H74       1.0  0.41467  0.15890  0.06735  1.0000
  H   H75       1.0  0.37253  0.24024  0.15505  1.0000
  C   C46       1.0  0.33399  0.00612  0.33604  1.0000
  H   H76       1.0  0.34887  0.03809  0.38045  1.0000
  C   C47       1.0  0.99663  0.24296  0.51427  1.0000
  H   H77       1.0  0.36157  0.13065  0.05744  1.0000
  H   H78       1.0  0.23603  0.24160  0.19845  1.0000
  C   C48       1.0  0.41486  0.24900  0.24358  1.0000
  C   C49       1.0  0.25669  0.00204  0.47662  1.0000
  C   C50       1.0  0.28334  0.24831  0.48879  1.0000
  H   H79       1.0  0.24772  0.24529  0.50491  1.0000
  N   N6        1.0  0.27050  0.24553  0.21647  1.0000
  H   H80       1.0  0.33662  0.17314  0.04183  1.0000
  S   S18       1.0  0.36299  0.01870  0.04103  1.0000
  C   C51       1.0  0.34036  0.02308  0.39948  1.0000
  H   H81       1.0  0.41416  0.00302  0.40847  1.0000
  H   H82       1.0  0.32183  0.02155  0.40497  1.0000
  H   H83       1.0  0.34783  0.02380  0.43060  1.0000
  S   S19       1.0  0.29528  0.08020  0.04003  1.0000
  H   H84       1.0  0.37392  0.01574  0.89880  1.0000
  H   H85       1.0  0.24130  0.00107  0.53938  1.0000
  H   H86       1.0  0.31397  0.01707  0.91446  1.0000
  S   S20       1.0  0.45330  0.02704  0.65817  1.0000
  S   S21       1.0  0.40462  0.12015  0.03362  1.0000
  Fe  Fe9       1.0  0.42690  0.02676  0.70994  1.0000
  S   S22       1.0  0.43461  0.05062  0.75630  1.0000
  N   N7        1.0  0.33737  0.00102  0.89720  1.0000
  H   H87       1.0  0.30824  0.00133  0.54129  1.0000
  H   H88       1.0  0.38603  0.04335  0.74324  1.0000
  H   H89       1.0  0.30714  0.23627  0.93563  1.0000
  H   H90       1.0  0.47903  0.05983  0.79790  1.0000
  S   S23       1.0  0.32900  0.04877  0.97821  1.0000
  Fe  Fe10      1.0  0.32750  0.07495  0.01369  1.0000
  Fe  Fe11      1.0  0.35841  0.04836  0.01677  1.0000
  S   S24       1.0  0.35160  0.09840  0.96549  1.0000
  C   C52       1.0  0.33779  0.00740  0.85171  1.0000
  H   H91       1.0  0.43303  0.06580  0.83686  1.0000
  Fe  Fe12      1.0  0.35623  0.07182  0.93415  1.0000
  S   S25       1.0  0.35353  0.06668  0.86512  1.0000
  S   S26       1.0  0.38592  0.06988  0.97112  1.0000
  C   C53       1.0  0.33138  0.13838  0.00546  1.0000
  S   S27       1.0  0.40427  0.20657  0.95299  1.0000
  H   H92       1.0  0.27083  0.24468  0.92739  1.0000
  S   S28       1.0  0.36209  0.23336  0.97385  1.0000
  C   C54       1.0  0.35724  0.01515  0.91523  1.0000
  H   H93       1.0  0.40172  0.07220  0.87999  1.0000
  Fe  Fe13      1.0  0.42302  0.01297  0.62078  1.0000
  H   H94       1.0  0.33588  0.02286  0.84646  1.0000
  H   H95       1.0  0.39812  0.23831  0.85376  1.0000
  H   H96       1.0  0.45768  0.23696  0.86330  1.0000
  S   S29       1.0  0.39699  0.01604  0.67006  1.0000
  H   H97       1.0  0.35502  0.05077  0.78531  1.0000
  H   H98       1.0  0.41546  0.22240  0.86640  1.0000
  H   H99       1.0  0.32312  0.14869  0.98878  1.0000
  H   H100      1.0  0.32139  0.12242  0.00026  1.0000
  H   H101      1.0  0.35434  0.00812  0.83453  1.0000
  C   C55       1.0  0.40479  0.14424  0.01116  1.0000
  C   C56       1.0  0.40420  0.18266  0.97621  1.0000
  C   C57       1.0  0.39905  0.16610  0.95207  1.0000
  C   C58       1.0  0.39905  0.14686  0.96968  1.0000
  H   H102      1.0  0.39502  0.16810  0.91968  1.0000
  H   H103      1.0  0.39520  0.13418  0.95073  1.0000
  C   C59       1.0  0.41161  0.05394  0.78726  1.0000
  C   C60       1.0  0.38944  0.04942  0.77323  1.0000
  C   C61       1.0  0.37190  0.05366  0.79711  1.0000
  C   C62       1.0  0.37614  0.06175  0.83590  1.0000
  C   C63       1.0  0.39815  0.06573  0.85048  1.0000
  C   C64       1.0  0.41589  0.06211  0.82595  1.0000
  H   H104      1.0  0.43449  0.24634  0.91785  1.0000
  H   H105      1.0  0.46396  0.02655  0.77077  1.0000
  Fe  Fe14      1.0  0.37910  0.09443  0.00615  1.0000
  H   H106      1.0  0.35639  0.03098  0.91237  1.0000
  H   H107      1.0  0.41505  0.23204  0.81256  1.0000
  Fe  Fe15      1.0  0.39320  0.22645  0.99570  1.0000
  C   C65       1.0  0.41016  0.16086  0.03525  1.0000
  H   H108      1.0  0.30876  0.24466  0.98733  1.0000
  C   C66       1.0  0.40962  0.18002  0.01795  1.0000
  H   H109      1.0  0.41386  0.19283  0.03659  1.0000
  H   H110      1.0  0.35777  0.01057  0.94935  1.0000
  H   H111      1.0  0.09082  0.24517  0.82669  1.0000
  C   C67       1.0  0.41494  0.23599  0.84559  1.0000
  H   H112      1.0  0.34906  0.14180  0.98995  1.0000
  S   S30       1.0  0.42521  0.02349  0.55102  1.0000
  H   H113      1.0  0.45808  0.24639  0.80893  1.0000
  C   C68       1.0  0.31568  0.00151  0.91874  1.0000
  C   C69       1.0  0.31336  0.24988  0.95322  1.0000
  C   C70       1.0  0.45648  0.25012  0.84192  1.0000
  Fe  Fe16      1.0  0.44192  0.42564  0.31971  1.0000
  S   S31       1.0  0.41000  0.43284  0.34026  1.0000
  C   C71       1.0  0.17113  0.32649  0.04597  1.0000
  Fe  Fe17      1.0  0.41615  0.37987  0.32637  1.0000
  S   S32       1.0  0.38264  0.38351  0.34912  1.0000
  S   S33       1.0  0.41813  0.34887  0.31531  1.0000
  Fe  Fe18      1.0  0.39174  0.40952  0.29787  1.0000
  S   S34       1.0  0.36540  0.41321  0.25317  1.0000
  Fe  Fe19      1.0  0.40418  0.40593  0.38917  1.0000
  S   S35       1.0  0.39222  0.40671  0.45682  1.0000
  S   S36       1.0  0.42421  0.40468  0.27306  1.0000
  S   S37       1.0  0.43723  0.40009  0.37108  1.0000
  H   H114      1.0  0.25782  0.26336  0.17101  1.0000
  S   S38       1.0  0.32324  0.28711  0.27788  1.0000
  C   C72       1.0  0.26523  0.25105  0.51384  1.0000
  Fe  Fe20      1.0  0.09145  0.35513  0.06405  1.0000
  Fe  Fe21      1.0  0.39780  0.25408  0.06493  1.0000
  H   H115      1.0  0.29851  0.26996  0.18340  1.0000
  S   S39       1.0  0.09711  0.37927  0.10940  1.0000
  S   S40       1.0  0.08849  0.32337  0.09014  1.0000
  S   S41       1.0  0.27925  0.33174  0.10449  1.0000
  S   S42       1.0  0.34785  0.35215  0.11137  1.0000
  C   C73       1.0  0.98171  0.31000  0.42653  1.0000
  Fe  Fe22      1.0  0.01616  0.39308  0.29173  1.0000
  S   S43       1.0  0.04471  0.39194  0.33278  1.0000
  S   S44       1.0  0.01162  0.38030  0.22857  1.0000
  S   S45       1.0  0.01509  0.40420  0.40870  1.0000
  Fe  Fe23      1.0  0.04069  0.42072  0.35500  1.0000
  S   S46       1.0  0.06811  0.44745  0.37568  1.0000
  Fe  Fe24      1.0  0.01602  0.37581  0.38226  1.0000
  S   S47       1.0  0.01370  0.34797  0.42585  1.0000
  C   C74       1.0  0.06650  0.47067  0.35141  1.0000
  H   H116      1.0  0.02189  0.46542  0.40063  1.0000
  C   C75       1.0  0.40739  0.25494  0.17018  1.0000
  H   H117      1.0  0.05786  0.45898  0.29191  1.0000
  C   C76       1.0  0.18808  0.31811  0.05889  1.0000
  Fe  Fe25      1.0  0.27074  0.34948  0.04876  1.0000
  H   H118      1.0  0.42684  0.25132  0.26797  1.0000
  H   H119      1.0  0.19421  0.38159  0.14980  1.0000
  C   C77       1.0  0.08664  0.40699  0.49640  1.0000
  C   C78       1.0  0.07348  0.37861  0.14404  1.0000
  C   C79       1.0  0.05135  0.36534  0.13996  1.0000
  C   C80       1.0  0.03258  0.36585  0.16649  1.0000
  C   C81       1.0  0.03588  0.37931  0.19779  1.0000
  C   C82       1.0  0.05813  0.39209  0.20283  1.0000
  C   C83       1.0  0.07685  0.39186  0.17575  1.0000
  H   H120      1.0  0.04874  0.35496  0.11591  1.0000
  H   H121      1.0  0.01542  0.35589  0.16277  1.0000
  H   H122      1.0  0.06081  0.40258  0.22672  1.0000
  H   H123      1.0  0.09391  0.40219  0.17904  1.0000
  H   H124      1.0  0.47313  0.38166  0.53129  1.0000
  H   H125      1.0  0.40016  0.46099  0.21925  1.0000
  H   H126      1.0  0.43982  0.46531  0.27628  1.0000
  C   C84       1.0  0.42249  0.25818  0.20236  1.0000
  C   C85       1.0  0.30945  0.40352  0.51232  1.0000
  H   H127      1.0  0.08465  0.36825  0.48628  1.0000
  H   H128      1.0  0.36268  0.34367  0.42073  1.0000
  H   H129      1.0  0.41824  0.33340  0.11429  1.0000
  C   C86       1.0  0.39291  0.33284  0.29688  1.0000
  C   C87       1.0  0.37405  0.33965  0.28938  1.0000
  C   C88       1.0  0.35277  0.32576  0.28170  1.0000
  C   C89       1.0  0.35046  0.30509  0.28088  1.0000
  C   C90       1.0  0.36985  0.29866  0.28455  1.0000
  C   C91       1.0  0.39098  0.31246  0.29295  1.0000
  H   H130      1.0  0.37564  0.35550  0.29034  1.0000
  H   H131      1.0  0.33801  0.33097  0.27752  1.0000
  H   H132      1.0  0.36856  0.28297  0.28124  1.0000
  H   H133      1.0  0.40564  0.30718  0.29772  1.0000
  C   C92       1.0  0.40364  0.39339  0.49465  1.0000
  C   C93       1.0  0.41369  0.45388  0.21208  1.0000
  C   C94       1.0  0.06032  0.47191  0.30993  1.0000
  H   H134      1.0  0.35723  0.31918  0.15786  1.0000
  C   C95       1.0  0.41306  0.37839  0.48365  1.0000
  H   H135      1.0  0.01512  0.32713  0.06211  1.0000
  H   H136      1.0  0.41389  0.37517  0.45121  1.0000
  C   C96       1.0  0.35148  0.36877  0.15135  1.0000
  C   C97       1.0  0.36918  0.36974  0.17817  1.0000
  C   C98       1.0  0.37310  0.38296  0.20986  1.0000
  C   C99       1.0  0.35970  0.39576  0.21459  1.0000
  C   C100      1.0  0.34194  0.39488  0.18773  1.0000
  C   C101      1.0  0.33769  0.38127  0.15637  1.0000
  H   H137      1.0  0.37996  0.36026  0.17454  1.0000
  H   H138      1.0  0.38664  0.38328  0.23039  1.0000
  H   H139      1.0  0.33145  0.40470  0.19117  1.0000
  H   H140      1.0  0.32401  0.38069  0.13577  1.0000
  H   H141      1.0  0.42854  0.35584  0.50615  1.0000
  S   S48       1.0  0.35132  0.25936  0.35785  1.0000
  H   H142      1.0  0.16451  0.27021  0.50150  1.0000
  N   N8        1.0  0.43716  0.46882  0.20948  1.0000
  Fe  Fe26      1.0  0.31577  0.34450  0.07538  1.0000
  C   C102      1.0  0.00813  0.46214  0.37819  1.0000
  C   C103      1.0  0.42128  0.36743  0.51480  1.0000
  C   C104      1.0  0.04537  0.39347  0.49389  1.0000
  S   S49       1.0  0.01403  0.42319  0.31052  1.0000
  H   H143      1.0  0.99297  0.47085  0.45189  1.0000
  S   S50       1.0  0.32904  0.25135  0.47100  1.0000
  C   C105      1.0  0.98569  0.33107  0.42431  1.0000
  N   N9        1.0  0.38953  0.31294  0.15385  1.0000
  H   H144      1.0  0.35862  0.29860  0.19454  1.0000
  H   H145      1.0  0.42875  0.48539  0.25852  1.0000
  H   H146      1.0  0.07498  0.48681  0.40627  1.0000
  H   H147      1.0  0.37307  0.28317  0.13492  1.0000
  S   S51       1.0  0.25548  0.27438  0.07822  1.0000
  C   C106      1.0  0.05742  0.48994  0.29148  1.0000
  S   S52       1.0  0.02861  0.29019  0.07106  1.0000
  H   H148      1.0  0.00218  0.31821  0.30341  1.0000
  H   H149      1.0  0.01673  0.46577  0.34575  1.0000
  H   H150      1.0  0.30342  0.27962  0.09027  1.0000
  S   S53       1.0  0.14241  0.31049  0.04730  1.0000
  H   H151      1.0  0.27258  0.27394  0.24099  1.0000
  C   C107      1.0  0.36886  0.31383  0.17831  1.0000
  C   C108      1.0  0.40282  0.33360  0.13392  1.0000
  H   H152      1.0  0.42667  0.49359  0.18201  1.0000
  H   H153      1.0  0.37369  0.32464  0.20263  1.0000
  H   H154      1.0  0.44032  0.26756  0.19527  1.0000
  Fe  Fe27      1.0  0.27580  0.30746  0.06080  1.0000
  C   C109      1.0  0.44134  0.47747  0.25021  1.0000
  C   C110      1.0  0.07009  0.48768  0.37421  1.0000
  S   S54       1.0  0.36778  0.26409  0.04714  1.0000
  Fe  Fe28      1.0  0.32249  0.25845  0.31700  1.0000
  C   C111      1.0  0.40406  0.30526  0.18227  1.0000
  C   C112      1.0  0.21103  0.33058  0.05958  1.0000
  C   C113      1.0  0.38231  0.29909  0.12086  1.0000
  H   H155      1.0  0.13379  0.38240  0.16882  1.0000
  C   C114      1.0  0.29518  0.26423  0.08279  1.0000
  H   H156      1.0  0.99892  0.44543  0.38277  1.0000
  H   H157      1.0  0.39113  0.34178  0.42611  1.0000
  H   H158      1.0  0.99567  0.30388  0.43219  1.0000
  C   C115      1.0  0.47122  0.47947  0.34179  1.0000
  H   H159      1.0  0.08683  0.42262  0.48429  1.0000
  H   H160      1.0  0.10375  0.40557  0.48701  1.0000
  H   H161      1.0  0.41953  0.30386  0.16461  1.0000
  N   N10       1.0  0.36432  0.31298  0.42563  1.0000
  C   C116      1.0  0.34300  0.30456  0.40419  1.0000
  C   C117      1.0  0.37450  0.33505  0.41201  1.0000
  C   C118      1.0  0.38100  0.30241  0.41459  1.0000
  C   C119      1.0  0.35880  0.30987  0.47176  1.0000
  H   H162      1.0  0.33466  0.28798  0.41427  1.0000
  H   H163      1.0  0.34666  0.30625  0.36935  1.0000
  H   H164      1.0  0.30966  0.40163  0.47802  1.0000
  H   H165      1.0  0.41151  0.44127  0.23749  1.0000
  S   S55       1.0  0.24570  0.36734  0.04838  1.0000
  H   H166      1.0  0.03066  0.38174  0.48205  1.0000
  H   H167      1.0  0.05385  0.35834  0.48479  1.0000
  H   H168      1.0  0.39746  0.30854  0.42959  1.0000
  H   H169      1.0  0.38538  0.30427  0.37994  1.0000
  H   H170      1.0  0.34572  0.31712  0.48109  1.0000
  H   H171      1.0  0.39441  0.28985  0.19853  1.0000
  H   H172      1.0  0.08483  0.40585  0.53140  1.0000
  H   H173      1.0  0.16320  0.39418  0.17994  1.0000
  H   H174      1.0  0.04449  0.40880  0.48228  1.0000
  H   H175      1.0  0.40902  0.34432  0.15806  1.0000
  H   H176      1.0  0.98318  0.26181  0.08274  1.0000
  C   C120      1.0  0.98853  0.26409  0.04939  1.0000
  H   H177      1.0  0.01906  0.49985  0.40184  1.0000
  H   H178      1.0  0.05675  0.38149  0.42019  1.0000
  C   C121      1.0  0.26790  0.25733  0.25171  1.0000
  C   C122      1.0  0.00254  0.33544  0.06779  1.0000
  C   C123      1.0  0.06813  0.37064  0.49634  1.0000
  S   S56       1.0  0.41782  0.26702  0.11898  1.0000
  H   H179      1.0  0.35159  0.29332  0.48304  1.0000
  H   H180      1.0  0.06985  0.40859  0.42004  1.0000
  Fe  Fe29      1.0  0.06166  0.31370  0.04425  1.0000
  H   H181      1.0  0.40987  0.44674  0.18220  1.0000
  H   H182      1.0  0.39207  0.34009  0.11329  1.0000
  H   H183      1.0  0.99047  0.29900  0.24143  1.0000
  H   H184      1.0  0.41018  0.31558  0.20712  1.0000
  H   H185      1.0  0.29560  0.39013  0.52894  1.0000
  H   H186      1.0  0.32443  0.37257  0.53700  1.0000
  C   C124      1.0  0.40256  0.39740  0.53683  1.0000
  N   N11       1.0  0.15826  0.37067  0.13817  1.0000
  C   C125      1.0  0.16151  0.38509  0.09974  1.0000
  C   C126      1.0  0.18032  0.36709  0.14630  1.0000
  C   C127      1.0  0.14069  0.35110  0.13228  1.0000
  C   C128      1.0  0.15037  0.37941  0.17436  1.0000
  H   H187      1.0  0.14512  0.38795  0.09242  1.0000
  H   H188      1.0  0.16745  0.37909  0.07177  1.0000
  H   H189      1.0  0.17448  0.40011  0.10323  1.0000
  H   H190      1.0  0.17859  0.35658  0.17553  1.0000
  H   H191      1.0  0.18635  0.35997  0.12001  1.0000
  H   H192      1.0  0.34013  0.38485  0.48762  1.0000
  H   H193      1.0  0.13818  0.33962  0.16013  1.0000
  H   H194      1.0  0.14550  0.34431  0.10435  1.0000
  H   H195      1.0  0.32573  0.25554  0.08742  1.0000
  H   H196      1.0  0.98711  0.31581  0.14411  1.0000
  H   H197      1.0  0.14735  0.36884  0.20385  1.0000
  H   H198      1.0  0.12370  0.35321  0.12746  1.0000
  H   H199      1.0  0.39747  0.29859  0.10085  1.0000
  N   N12       1.0  0.06769  0.39113  0.48006  1.0000
  H   H200      1.0  0.05263  0.49078  0.25934  1.0000
  C   C129      1.0  0.30594  0.25514  0.50075  1.0000
  H   H201      1.0  0.98317  0.41509  0.46531  1.0000
  H   H202      1.0  0.08738  0.39212  0.42182  1.0000
  H   H203      1.0  0.45229  0.45241  0.16884  1.0000
  H   H204      1.0  0.30446  0.41738  0.51671  1.0000
  H   H205      1.0  0.47230  0.46895  0.20028  1.0000
  H   H206      1.0  0.22391  0.32399  0.07018  1.0000
  H   H207      1.0  0.18339  0.30192  0.06889  1.0000
  C   C130      1.0  0.27173  0.25771  0.07603  1.0000
  Fe  Fe30      1.0  0.98873  0.40459  0.36349  1.0000
  H   H208      1.0  0.24990  0.25208  0.26639  1.0000
  C   C131      1.0  0.07056  0.39345  0.43349  1.0000
  H   H209      1.0  0.37393  0.28571  0.42484  1.0000
  N   N13       1.0  0.99217  0.47398  0.38449  1.0000
  C   C132      1.0  0.21709  0.35155  0.04756  1.0000
  H   H210      1.0  0.35447  0.38683  0.53533  1.0000
  H   H211      1.0  0.34610  0.43756  0.51017  1.0000
  H   H212      1.0  0.45489  0.46875  0.35487  1.0000
  H   H213      1.0  0.37446  0.31641  0.48876  1.0000
  H   H214      1.0  0.37068  0.30407  0.09972  1.0000
  H   H215      1.0  0.37823  0.33793  0.37726  1.0000
  S   S57       1.0  0.98777  0.37492  0.33995  1.0000
  H   H216      1.0  0.43617  0.47943  0.14456  1.0000
  C   C133      1.0  0.43932  0.48543  0.17573  1.0000
  C   C134      1.0  0.31037  0.26509  0.53746  1.0000
  H   H217      1.0  0.33014  0.31240  0.41101  1.0000
  C   C135      1.0  0.33799  0.38652  0.52182  1.0000
  H   H218      1.0  0.99366  0.33584  0.23887  1.0000
  H   H219      1.0  0.00896  0.34551  0.09281  1.0000
  H   H220      1.0  0.45901  0.48863  0.24975  1.0000
  H   H221      1.0  0.99098  0.29762  0.11034  1.0000
  C   C136      1.0  0.45430  0.45847  0.20006  1.0000
  C   C137      1.0  0.98355  0.31360  0.31430  1.0000
  H   H222      1.0  0.98326  0.47377  0.32017  1.0000
  H   H223      1.0  0.45247  0.44532  0.22402  1.0000
  H   H224      1.0  0.20634  0.29044  0.49531  1.0000
  H   H225      1.0  0.45689  0.49691  0.17299  1.0000
  H   H226      1.0  0.06623  0.36840  0.53141  1.0000
  H   H227      1.0  0.35145  0.42184  0.47149  1.0000
  H   H228      1.0  0.98127  0.32546  0.33393  1.0000
  H   H229      1.0  0.30720  0.25333  0.22014  1.0000
  H   H230      1.0  0.21270  0.26877  0.52044  1.0000
  C   C138      1.0  0.34995  0.42317  0.50598  1.0000
  C   C139      1.0  0.29438  0.25374  0.19678  1.0000
  H   H231      1.0  0.27936  0.25575  0.27694  1.0000
  C   C140      1.0  0.00531  0.49604  0.37944  1.0000
  C   C141      1.0  0.20769  0.28248  0.52636  1.0000
  H   H232      1.0  0.36729  0.42483  0.51738  1.0000
  H   H233      1.0  0.17808  0.30390  0.53058  1.0000
  N   N14       1.0  0.33211  0.40519  0.52859  1.0000
  C   C142      1.0  0.16712  0.26292  0.53248  1.0000
  S   S58       1.0  0.47686  0.44854  0.29778  1.0000
  H   H234      1.0  0.04265  0.39186  0.52881  1.0000
  C   C143      1.0  0.47808  0.49965  0.35243  1.0000
  C   C144      1.0  0.30791  0.25065  0.08070  1.0000
  Fe  Fe31      1.0  0.41799  0.38810  0.73048  1.0000
  S   S59       1.0  0.41575  0.35634  0.71781  1.0000
  S   S60       1.0  0.38405  0.38980  0.75653  1.0000
  S   S61       1.0  0.45056  0.39428  0.76418  1.0000
  S   S62       1.0  0.43610  0.40265  0.66762  1.0000
  N   N15       1.0  0.09449  0.27638  0.80565  1.0000
  S   S63       1.0  0.06270  0.34554  0.02137  1.0000
  H   H235      1.0  0.26229  0.35820  0.87095  1.0000
  H   H236      1.0  0.21041  0.34558  0.86090  1.0000
  H   H237      1.0  0.07599  0.38376  0.70997  1.0000
  C   C145      1.0  0.17732  0.34738  0.03289  1.0000
  Fe  Fe32      1.0  0.25366  0.28583  0.63109  1.0000
  C   C146      1.0  0.35188  0.32140  0.67863  1.0000
  H   H238      1.0  0.20494  0.37615  0.02441  1.0000
  S   S64       1.0  0.22755  0.28286  0.68526  1.0000
  C   C147      1.0  0.05473  0.39237  0.77877  1.0000
  H   H239      1.0  0.98515  0.26399  0.78595  1.0000
  H   H240      1.0  0.24308  0.33239  0.87632  1.0000
  H   H241      1.0  0.10940  0.28911  0.74306  1.0000
  Fe  Fe33      1.0  0.09005  0.34385  0.97355  1.0000
  S   S65       1.0  0.09410  0.35517  0.90441  1.0000
  H   H242      1.0  0.11892  0.30037  0.83380  1.0000
  S   S66       1.0  0.06393  0.30334  0.60010  1.0000
  Fe  Fe34      1.0  0.04248  0.30049  0.71833  1.0000
  S   S67       1.0  0.07983  0.31291  0.69587  1.0000
  S   S68       1.0  0.02918  0.29749  0.78652  1.0000
  Fe  Fe35      1.0  0.06836  0.32870  0.64126  1.0000
  S   S69       1.0  0.08987  0.36106  0.62016  1.0000
  Fe  Fe36      1.0  0.07241  0.28652  0.65733  1.0000
  C   C148      1.0  0.05019  0.40664  0.61654  1.0000
  S   S70       1.0  0.03150  0.31872  0.66728  1.0000
  Fe  Fe37      1.0  0.28282  0.32782  0.64967  1.0000
  S   S71       1.0  0.28416  0.29639  0.66971  1.0000
  S   S72       1.0  0.31482  0.35271  0.62214  1.0000
  Fe  Fe38      1.0  0.23051  0.31520  0.66405  1.0000
  S   S73       1.0  0.20106  0.32779  0.65562  1.0000
  Fe  Fe39      1.0  0.25814  0.29666  0.72185  1.0000
  S   S74       1.0  0.25688  0.28430  0.78998  1.0000
  Fe  Fe40      1.0  0.43663  0.37126  0.65758  1.0000
  S   S75       1.0  0.25920  0.32900  0.70454  1.0000
  S   S76       1.0  0.25434  0.31729  0.60730  1.0000
  Fe  Fe41      1.0  0.02745  0.29187  0.62986  1.0000
  Fe  Fe42      1.0  0.30136  0.33736  0.98586  1.0000
  H   H243      1.0  0.37929  0.29805  0.67050  1.0000
  S   S77       1.0  0.31430  0.34173  0.91714  1.0000
  H   H244      1.0  0.11890  0.31245  0.63688  1.0000
  N   N16       1.0  0.36271  0.31774  0.63900  1.0000
  Fe  Fe43      1.0  0.44929  0.36307  0.74766  1.0000
  C   C149      1.0  0.38352  0.31211  0.64800  1.0000
  H   H245      1.0  0.25307  0.36677  0.96045  1.0000
  C   C150      1.0  0.27184  0.30140  0.82439  1.0000
  C   C151      1.0  0.26481  0.29769  0.86758  1.0000
  C   C152      1.0  0.27741  0.31027  0.89623  1.0000
  C   C153      1.0  0.29729  0.32645  0.88186  1.0000
  C   C154      1.0  0.30412  0.33031  0.83861  1.0000
  C   C155      1.0  0.29132  0.31794  0.80984  1.0000
  H   H246      1.0  0.24966  0.28494  0.87884  1.0000
  H   H247      1.0  0.27193  0.30718  0.92945  1.0000
  H   H248      1.0  0.31945  0.34281  0.82733  1.0000
  H   H249      1.0  0.29687  0.32087  0.77657  1.0000
  C   C156      1.0  0.07446  0.37842  0.61818  1.0000
  C   C157      1.0  0.05056  0.37178  0.61598  1.0000
  C   C158      1.0  0.03845  0.38589  0.61513  1.0000
  H   H250      1.0  0.04145  0.35585  0.61402  1.0000
  H   H251      1.0  0.02011  0.38072  0.61258  1.0000
  C   C159      1.0  0.12660  0.28533  0.65958  1.0000
  C   C160      1.0  0.13214  0.30621  0.64702  1.0000
  C   C161      1.0  0.15498  0.31909  0.64676  1.0000
  C   C162      1.0  0.17245  0.31123  0.65902  1.0000
  C   C163      1.0  0.16690  0.29036  0.67206  1.0000
  C   C164      1.0  0.14402  0.27741  0.67212  1.0000
  C   C165      1.0  0.08631  0.39922  0.61856  1.0000
  C   C166      1.0  0.41108  0.32302  0.82485  1.0000
  H   H252      1.0  0.18019  0.28420  0.68207  1.0000
  H   H253      1.0  0.20453  0.36394  0.89236  1.0000
  H   H254      1.0  0.22985  0.37129  0.85618  1.0000
  S   S78       1.0  0.99452  0.28462  0.59611  1.0000
  S   S79       1.0  0.45664  0.34003  0.79479  1.0000
  C   C167      1.0  0.18003  0.29547  0.56066  1.0000
  H   H255      1.0  0.33137  0.28993  0.95984  1.0000
  H   H256      1.0  0.00290  0.34541  0.03837  1.0000
  C   C168      1.0  0.07655  0.33829  0.87252  1.0000
  C   C169      1.0  0.05660  0.32282  0.88963  1.0000
  C   C170      1.0  0.04219  0.31024  0.86304  1.0000
  C   C171      1.0  0.04788  0.31284  0.81945  1.0000
  C   C172      1.0  0.06809  0.32799  0.80256  1.0000
  C   C173      1.0  0.08230  0.34079  0.82898  1.0000
  H   H257      1.0  0.05200  0.32087  0.92324  1.0000
  H   H258      1.0  0.02652  0.29863  0.87628  1.0000
  H   H259      1.0  0.07251  0.33025  0.76905  1.0000
  H   H260      1.0  0.09777  0.35271  0.81571  1.0000
  C   C174      1.0  0.00218  0.26960  0.96323  1.0000
  H   H261      1.0  0.30715  0.27907  0.99786  1.0000
  H   H262      1.0  0.41661  0.26163  0.90374  1.0000
  H   H263      1.0  0.33563  0.32488  0.67310  1.0000
  H   H264      1.0  0.15916  0.33522  0.63656  1.0000
  C   C175      1.0  0.00238  0.25612  0.54626  1.0000
  H   H265      1.0  0.32774  0.27009  0.54722  1.0000
  H   H266      1.0  0.29578  0.27558  0.59058  1.0000
  C   C176      1.0  0.06590  0.37059  0.73288  1.0000
  C   C177      1.0  0.36393  0.38097  0.71950  1.0000
  C   C178      1.0  0.34115  0.36924  0.73271  1.0000
  C   C179      1.0  0.32572  0.36069  0.70297  1.0000
  C   C180      1.0  0.33297  0.36433  0.65996  1.0000
  C   C181      1.0  0.35550  0.37660  0.64677  1.0000
  C   C182      1.0  0.37098  0.38471  0.67649  1.0000
  H   H267      1.0  0.33559  0.36640  0.76592  1.0000
  H   H268      1.0  0.30832  0.35124  0.71340  1.0000
  H   H269      1.0  0.36125  0.37943  0.61362  1.0000
  H   H270      1.0  0.38834  0.39411  0.66607  1.0000
  C   C183      1.0  0.01766  0.27946  0.99176  1.0000
  C   C184      1.0  0.39336  0.31135  0.85487  1.0000
  H   H271      1.0  0.37556  0.30921  0.84879  1.0000
  H   H272      1.0  0.40688  0.32968  0.79579  1.0000
  C   C185      1.0  0.41084  0.38652  0.56783  1.0000
  H   H273      1.0  0.45717  0.31904  0.87604  1.0000
  H   H274      1.0  0.40952  0.38953  0.60024  1.0000
  N   N17       1.0  0.18589  0.27684  0.55338  1.0000
  H   H275      1.0  0.43411  0.26861  0.78888  1.0000
  C   C186      1.0  0.21856  0.35867  0.87902  1.0000
  S   S80       1.0  0.37583  0.28835  0.92967  1.0000
  S   S81       1.0  0.43061  0.35770  0.59558  1.0000
  H   H276      1.0  0.30379  0.28502  0.88204  1.0000
  S   S82       1.0  0.03517  0.42428  0.61845  1.0000
  H   H277      1.0  0.33038  0.30502  0.61219  1.0000
  Fe  Fe44      1.0  0.99877  0.41049  0.64682  1.0000
  H   H278      1.0  0.01600  0.38203  0.73781  1.0000
  H   H279      1.0  0.16447  0.35383  0.02183  1.0000
  H   H280      1.0  0.10486  0.40441  0.61993  1.0000
  C   C187      1.0  0.34609  0.30101  0.62002  1.0000
  H   H281      1.0  0.31784  0.39412  0.59227  1.0000
  S   S83       1.0  0.03544  0.27263  0.68373  1.0000
  H   H282      1.0  0.01672  0.35873  0.79772  1.0000
  H   H283      1.0  0.34785  0.40885  0.58750  1.0000
  H   H284      1.0  0.17252  0.26155  0.61516  1.0000
  H   H285      1.0  0.42575  0.29860  0.92947  1.0000
  Fe  Fe45      1.0  0.46881  0.40586  0.69942  1.0000
  S   S84       1.0  0.08661  0.31113  0.99307  1.0000
  S   S85       1.0  0.24638  0.26352  0.58192  1.0000
  H   H286      1.0  0.37858  0.33467  0.57975  1.0000
  H   H287      1.0  0.39225  0.30941  0.61872  1.0000
  H   H288      1.0  0.01957  0.48540  0.63606  1.0000
  H   H289      1.0  0.34737  0.30782  0.70249  1.0000
  H   H290      1.0  0.27001  0.26967  0.93600  1.0000
  H   H291      1.0  0.44844  0.28574  0.82531  1.0000
  H   H292      1.0  0.10533  0.26246  0.75417  1.0000
  H   H293      1.0  0.22892  0.37559  0.95236  1.0000
  H   H294      1.0  0.20241  0.27677  0.61107  1.0000
  N   N18       1.0  0.30349  0.26598  0.93905  1.0000
  S   S86       1.0  0.09793  0.26910  0.66079  1.0000
  H   H295      1.0  0.08919  0.29675  0.84950  1.0000
  N   N19       1.0  0.04614  0.37467  0.75441  1.0000
  H   H296      1.0  0.07795  0.36771  0.75572  1.0000
  H   H297      1.0  0.06605  0.38940  0.80320  1.0000
  C   C188      1.0  0.03260  0.35659  0.78327  1.0000
  C   C189      1.0  0.03124  0.37925  0.72262  1.0000
  H   H298      1.0  0.36348  0.33459  0.69287  1.0000
  C   C190      1.0  0.42159  0.30512  0.90010  1.0000
  H   H299      1.0  0.05815  0.27058  0.82063  1.0000
  H   H300      1.0  0.98465  0.32238  0.55440  1.0000
  C   C191      1.0  0.39856  0.30238  0.89252  1.0000
  H   H301      1.0  0.35406  0.34084  0.60036  1.0000
  H   H302      1.0  0.02699  0.34262  0.76649  1.0000
  C   C192      1.0  0.43413  0.32584  0.83236  1.0000
  H   H303      1.0  0.26077  0.34185  0.91818  1.0000
  H   H304      1.0  0.04021  0.39590  0.79522  1.0000
  H   H305      1.0  0.02466  0.36634  0.70321  1.0000
  C   C193      1.0  0.07418  0.41333  0.61767  1.0000
  N   N20       1.0  0.23177  0.35279  0.91263  1.0000
  H   H306      1.0  0.08444  0.25961  0.86704  1.0000
  C   C194      1.0  0.24227  0.37053  0.93590  1.0000
  H   H307      1.0  0.25365  0.38376  0.91460  1.0000
  H   H308      1.0  0.22522  0.33166  0.96873  1.0000
  C   C195      1.0  0.43361  0.27179  0.82241  1.0000
  Fe  Fe46      1.0  0.38166  0.26596  0.98026  1.0000
  H   H309      1.0  0.00744  0.27167  0.92995  1.0000
  H   H310      1.0  0.20155  0.34036  0.95602  1.0000
  C   C196      1.0  0.25023  0.34599  0.89363  1.0000
  H   H311      1.0  0.32648  0.42137  0.58053  1.0000
  Fe  Fe47      1.0  0.11392  0.32416  0.03672  1.0000
  C   C197      1.0  0.10129  0.29644  0.82252  1.0000
  H   H312      1.0  0.20847  0.32204  0.92597  1.0000
  H   H313      1.0  0.39647  0.32456  0.66188  1.0000
  H   H314      1.0  0.03482  0.28920  0.98044  1.0000
  H   H315      1.0  0.06495  0.40630  0.75790  1.0000
  H   H316      1.0  0.12839  0.28093  0.77614  1.0000
  H   H317      1.0  0.30538  0.29615  0.95358  1.0000
  H   H318      1.0  0.27236  0.25263  0.97963  1.0000
  C   C198      1.0  0.27806  0.25786  0.94575  1.0000
  C   C199      1.0  0.29232  0.26819  0.56206  1.0000
  H   H319      1.0  0.06874  0.28304  0.76895  1.0000
  C   C200      1.0  0.11011  0.27723  0.76829  1.0000
  H   H320      1.0  0.08335  0.42939  0.61856  1.0000
  S   S87       1.0  0.41382  0.25940  0.99810  1.0000
  H   H321      1.0  0.38115  0.34963  0.62336  1.0000
  C   C201      1.0  0.21608  0.33597  0.94200  1.0000
  H   H322      1.0  0.00675  0.49248  0.59013  1.0000
  C   C202      1.0  0.42033  0.37160  0.55692  1.0000
  H   H323      1.0  0.06012  0.35707  0.71482  1.0000
  H   H324      1.0  0.22223  0.29276  0.54166  1.0000
  H   H325      1.0  0.10137  0.30885  0.79795  1.0000
  H   H326      1.0  0.11385  0.26375  0.84831  1.0000
  N   N21       1.0  0.38541  0.36839  0.88328  1.0000
  C   C203      1.0  0.36766  0.37690  0.86747  1.0000
  C   C204      1.0  0.37415  0.34751  0.90432  1.0000
  C   C205      1.0  0.39855  0.38147  0.91377  1.0000
  C   C206      1.0  0.40130  0.36774  0.84753  1.0000
  H   H327      1.0  0.37555  0.39256  0.85091  1.0000
  H   H328      1.0  0.35534  0.37769  0.89355  1.0000
  H   H329      1.0  0.35738  0.36738  0.84443  1.0000
  H   H330      1.0  0.38704  0.34032  0.91542  1.0000
  H   H331      1.0  0.36256  0.34755  0.93222  1.0000
  H   H332      1.0  0.36334  0.33745  0.88268  1.0000
  H   H333      1.0  0.41210  0.37546  0.92628  1.0000
  H   H334      1.0  0.38704  0.38234  0.94112  1.0000
  H   H335      1.0  0.40728  0.39733  0.89884  1.0000
  H   H336      1.0  0.39190  0.35818  0.82368  1.0000
  H   H337      1.0  0.41500  0.36142  0.85806  1.0000
  H   H338      1.0  0.40999  0.38327  0.83097  1.0000
  C   C207      1.0  0.36937  0.33651  0.60925  1.0000
  H   H339      1.0  0.35378  0.29763  0.59037  1.0000
  H   H340      1.0  0.04060  0.39317  0.70110  1.0000
  H   H341      1.0  0.34029  0.28668  0.64193  1.0000
  C   C208      1.0  0.31221  0.28355  0.96365  1.0000
  H   H342      1.0  0.04267  0.35358  0.80967  1.0000
  C   C209      1.0  0.07053  0.27133  0.79333  1.0000
  C   C210      1.0  0.43933  0.31679  0.86998  1.0000
  H   H343      1.0  0.16350  0.29175  0.58053  1.0000
  S   S88       1.0  0.47030  0.37500  0.68586  1.0000
  C   C211      1.0  0.31050  0.27259  0.89379  1.0000
  C   C212      1.0  0.09598  0.26052  0.83837  1.0000
  S   S89       1.0  0.11922  0.35681  0.01384  1.0000
  C   C213      1.0  0.26964  0.26096  0.55055  1.0000
  C   C214      1.0  0.20024  0.35995  0.03411  1.0000
  N   N22       1.0  0.43458  0.25425  0.85122  1.0000
  S   S90       1.0  0.30762  0.36437  0.02302  1.0000
  H   H344      1.0  0.13977  0.26128  0.68220  1.0000
  C   C215      1.0  0.33102  0.40751  0.57418  1.0000
  H   H345      1.0  0.99247  0.49013  0.64158  1.0000
  C   C216      1.0  0.43326  0.25906  0.89525  1.0000
  H   H346      1.0  0.98372  0.30181  0.03329  1.0000
  C   C217      1.0  0.18874  0.26648  0.59417  1.0000
  H   H347      1.0  0.30391  0.25981  0.87415  1.0000
  C   C218      1.0  0.98894  0.26852  0.55513  1.0000
  H   H348      1.0  0.47166  0.26356  0.84616  1.0000
  H   H349      1.0  0.98497  0.27580  0.85743  1.0000
  H   H350      1.0  0.39542  0.40902  0.54563  1.0000
  H   H351      1.0  0.15043  0.25845  0.55217  1.0000
  H   H352      1.0  0.44745  0.27305  0.90062  1.0000
  H   H353      1.0  0.47194  0.40457  0.60758  1.0000
  H   H354      1.0  0.01700  0.25649  0.56429  1.0000
  H   H355      1.0  0.41757  0.27566  0.82944  1.0000
  C   C219      1.0  0.47750  0.41339  0.57613  1.0000
  H   H356      1.0  0.46211  0.41021  0.55737  1.0000
  H   H357      1.0  0.19362  0.30616  0.57722  1.0000
  H   H358      1.0  0.33248  0.25560  0.94852  1.0000
  C   C220      1.0  0.00966  0.49533  0.62351  1.0000
  H   H359      1.0  0.32964  0.27855  0.88796  1.0000
  S   S91       1.0  0.26405  0.32403  0.00765  1.0000
  S   S92       1.0  0.99154  0.40987  0.71612  1.0000
  S   S93       1.0  0.31282  0.31868  0.03558  1.0000
  C   C221      1.0  0.01074  0.27674  0.03486  1.0000
  H   H360      1.0  0.06488  0.25643  0.77985  1.0000
  H   H361      1.0  0.19396  0.25272  0.58987  1.0000
  C   C222      1.0  0.98987  0.67132  0.17161  1.0000
  C   C223      1.0  0.09485  0.59307  0.52680  1.0000
  H   H362      1.0  0.01805  0.71663  0.10892  1.0000
  S   S94       1.0  0.13194  0.67900  0.13851  1.0000
  H   H363      1.0  0.07474  0.69822  0.15119  1.0000
  Fe  Fe48      1.0  0.04957  0.59745  0.30861  1.0000
  S   S95       1.0  0.02477  0.56606  0.30658  1.0000
  S   S96       1.0  0.04605  0.62009  0.25561  1.0000
  Fe  Fe49      1.0  0.06556  0.58444  0.39210  1.0000
  S   S97       1.0  0.04219  0.55197  0.39608  1.0000
  S   S98       1.0  0.08925  0.59571  0.44290  1.0000
  Fe  Fe50      1.0  0.05302  0.55426  0.32730  1.0000
  S   S99       1.0  0.05500  0.52846  0.29052  1.0000
  Fe  Fe51      1.0  0.01606  0.56642  0.37485  1.0000
  H   H364      1.0  0.07395  0.71713  0.27480  1.0000
  S   S100      1.0  0.07889  0.58576  0.32420  1.0000
  S   S101      1.0  0.03850  0.59880  0.37626  1.0000
  C   C224      1.0  0.07877  0.59063  0.49637  1.0000
  C   C225      1.0  0.04535  0.72400  0.05936  1.0000
  S   S102      1.0  0.09320  0.69606  0.06068  1.0000
  C   C226      1.0  0.05518  0.58486  0.50930  1.0000
  H   H365      1.0  0.11308  0.59753  0.51702  1.0000
  H   H366      1.0  0.04231  0.71766  0.22975  1.0000
  H   H367      1.0  0.99111  0.59312  0.29510  1.0000
  H   H368      1.0  0.06933  0.51871  0.37368  1.0000
  C   C227      1.0  0.10795  0.66147  0.16922  1.0000
  C   C228      1.0  0.11155  0.65101  0.20655  1.0000
  C   C229      1.0  0.09276  0.63777  0.23279  1.0000
  C   C230      1.0  0.07021  0.63496  0.22186  1.0000
  C   C231      1.0  0.06659  0.64507  0.18411  1.0000
  C   C232      1.0  0.08536  0.65820  0.15784  1.0000
  H   H369      1.0  0.12895  0.65333  0.21550  1.0000
  H   H370      1.0  0.09575  0.63004  0.26181  1.0000
  H   H371      1.0  0.04917  0.64288  0.17544  1.0000
  H   H372      1.0  0.08236  0.66584  0.12900  1.0000
  C   C233      1.0  0.05361  0.71700  0.20194  1.0000
  H   H373      1.0  0.06908  0.70527  0.47268  1.0000
  H   H374      1.0  0.99278  0.59573  0.36959  1.0000
  H   H375      1.0  0.04268  0.58299  0.48584  1.0000
  C   C234      1.0  0.03264  0.70100  0.46981  1.0000
  C   C235      1.0  0.01242  0.70122  0.49186  1.0000
  C   C236      1.0  0.98584  0.66680  0.21549  1.0000
  C   C237      1.0  0.00491  0.70651  0.05006  1.0000
  C   C238      1.0  0.05405  0.70957  0.53222  1.0000
  H   H376      1.0  0.99687  0.63647  0.06866  1.0000
  H   H377      1.0  0.01800  0.67164  0.07614  1.0000
  C   C239      1.0  0.02233  0.71587  0.07600  1.0000
  H   H378      1.0  0.09456  0.72206  0.16169  1.0000
  C   C240      1.0  0.01359  0.63340  0.06453  1.0000
  N   N23       1.0  0.07017  0.70626  0.21370  1.0000
  C   C241      1.0  0.06280  0.65837  0.51978  1.0000
  Fe  Fe52      1.0  0.12766  0.70073  0.08470  1.0000
  H   H379      1.0  0.98510  0.60784  0.25084  1.0000
  S   S103      1.0  0.98565  0.69610  0.46913  1.0000
  H   H380      1.0  0.09816  0.69864  0.18356  1.0000
  C   C242      1.0  0.08507  0.70624  0.17595  1.0000
  H   H381      1.0  0.04217  0.70918  0.17823  1.0000
  H   H382      1.0  0.46689  0.50439  0.37359  1.0000
  C   C243      1.0  0.98673  0.59271  0.26173  1.0000
  C   C244      1.0  0.05345  0.70531  0.48993  1.0000
  H   H383      1.0  0.06941  0.67634  0.23980  1.0000
  H   H384      1.0  0.01078  0.62028  0.04542  1.0000
  C   C245      1.0  0.05744  0.68500  0.23103  1.0000
  C   C246      1.0  0.08465  0.71684  0.24583  1.0000
  H   H385      1.0  0.03228  0.69769  0.43730  1.0000
  S   S104      1.0  0.06763  0.73388  0.09210  1.0000
  H   H386      1.0  0.07768  0.67195  0.52469  1.0000
  S   S105      1.0  0.99849  0.68552  0.24872  1.0000
  H   H387      1.0  0.98720  0.70014  0.06298  1.0000
  H   H388      1.0  0.06261  0.73293  0.18769  1.0000
  S   S106      1.0  0.13375  0.73386  0.09296  1.0000
  H   H389      1.0  0.04606  0.67661  0.20789  1.0000
  H   H390      1.0  0.04614  0.68444  0.25976  1.0000
  H   H391      1.0  0.09451  0.73292  0.23369  1.0000
  H   H392      1.0  0.00119  0.68615  0.15837  1.0000
  H   H393      1.0  0.04089  0.66558  0.10172  1.0000
  Fe  Fe53      1.0  0.09984  0.72924  0.06431  1.0000
  H   H394      1.0  0.99395  0.50552  0.38485  1.0000
  S   S107      1.0  0.98264  0.66242  0.37092  1.0000
  H   H395      1.0  0.05969  0.64321  0.07212  1.0000
  C   C247      1.0  0.06041  0.50678  0.31446  1.0000
  H   H396      1.0  0.04673  0.68309  0.05438  1.0000
  H   H397      1.0  0.09737  0.70909  0.25519  1.0000
  N   N24       1.0  0.03208  0.65161  0.04440  1.0000
  H   H398      1.0  0.98335  0.55361  0.25445  1.0000
  C   C248      1.0  0.03460  0.66865  0.07050  1.0000
  H   H399      1.0  0.00187  0.59122  0.24315  1.0000
  C   C249      1.0  0.06680  0.50568  0.35591  1.0000
  H   H400      1.0  0.06896  0.64958  0.49690  1.0000
  H   H401      1.0  0.01780  0.62851  0.09647  1.0000
  H   H402      1.0  0.98493  0.64196  0.47924  1.0000
  H   H403      1.0  0.03707  0.61908  0.52887  1.0000
  C   C250      1.0  0.05400  0.64691  0.04066  1.0000
  C   C251      1.0  0.01319  0.70566  0.53392  1.0000
  H   H404      1.0  0.04970  0.66410  0.50465  1.0000
  H   H405      1.0  0.98146  0.66057  0.11102  1.0000
  H   H406      1.0  0.01401  0.50106  0.34709  1.0000
  C   C252      1.0  0.08759  0.58955  0.56978  1.0000
  H   H407      1.0  0.04034  0.67081  0.98541  1.0000
  H   H408      1.0  0.04870  0.61246  0.77683  1.0000
  H   H409      1.0  0.08018  0.70506  0.79835  1.0000
  H   H410      1.0  0.00102  0.61354  0.88553  1.0000
  C   C253      1.0  0.04469  0.52344  0.60322  1.0000
  Fe  Fe54      1.0  0.11085  0.70492  0.99595  1.0000
  S   S108      1.0  0.09007  0.68784  0.94631  1.0000
  H   H411      1.0  0.00817  0.68652  0.83385  1.0000
  S   S109      1.0  0.08012  0.71455  0.55739  1.0000
  S   S110      1.0  0.12454  0.71129  0.75292  1.0000
  Fe  Fe55      1.0  0.05075  0.71855  0.70619  1.0000
  S   S111      1.0  0.01705  0.69930  0.74023  1.0000
  S   S112      1.0  0.07138  0.69977  0.68170  1.0000
  Fe  Fe56      1.0  0.02159  0.58013  0.66278  1.0000
  S   S113      1.0  0.05643  0.58017  0.63769  1.0000
  H   H412      1.0  0.03822  0.64905  0.62031  1.0000
  S   S114      1.0  0.00123  0.59670  0.80662  1.0000
  S   S115      1.0  0.00175  0.55861  0.71804  1.0000
  S   S116      1.0  0.01796  0.60755  0.69016  1.0000
  H   H413      1.0  0.03427  0.53648  0.67580  1.0000
  H   H414      1.0  0.02974  0.57751  0.56242  1.0000
  C   C254      1.0  0.99853  0.69568  0.84876  1.0000
  S   S117      1.0  0.11546  0.73810  0.99776  1.0000
  H   H415      1.0  0.08874  0.66049  0.72126  1.0000
  C   C255      1.0  0.07066  0.63751  0.57785  1.0000
  C   C256      1.0  0.03265  0.62855  0.55231  1.0000
  S   S118      1.0  0.98957  0.69454  0.97338  1.0000
  C   C257      1.0  0.06418  0.58408  0.58298  1.0000
  H   H416      1.0  0.06692  0.62374  0.72973  1.0000
  H   H417      1.0  0.01053  0.66246  0.00355  1.0000
  H   H418      1.0  0.00359  0.71081  0.82954  1.0000
  H   H419      1.0  0.01673  0.54609  0.61268  1.0000
  H   H420      1.0  0.05866  0.66087  0.82558  1.0000
  H   H421      1.0  0.04582  0.64893  0.71680  1.0000
  H   H422      1.0  0.99767  0.70592  0.55121  1.0000
  C   C258      1.0  0.10039  0.69613  0.89335  1.0000
  C   C259      1.0  0.08489  0.69827  0.86375  1.0000
  C   C260      1.0  0.09233  0.70350  0.82081  1.0000
  C   C261      1.0  0.11519  0.70602  0.80700  1.0000
  C   C262      1.0  0.13067  0.70375  0.83660  1.0000
  C   C263      1.0  0.12338  0.69912  0.87979  1.0000
  H   H423      1.0  0.06706  0.69588  0.87409  1.0000
  H   H424      1.0  0.14831  0.70547  0.82608  1.0000
  H   H425      1.0  0.13532  0.69710  0.90241  1.0000
  C   C264      1.0  0.01053  0.70586  0.00726  1.0000
  Fe  Fe57      1.0  0.08010  0.72297  0.62481  1.0000
  Fe  Fe58      1.0  0.10054  0.72137  0.71109  1.0000
  N   N25       1.0  0.05309  0.64567  0.56001  1.0000
  S   S119      1.0  0.14543  0.70667  0.01911  1.0000
  C   C265      1.0  0.03341  0.71436  0.99065  1.0000
  C   C266      1.0  0.98971  0.64937  0.65456  1.0000
  C   C267      1.0  0.99750  0.66986  0.63781  1.0000
  S   S120      1.0  0.07933  0.73874  0.73895  1.0000
  H   H426      1.0  0.05437  0.53980  0.60571  1.0000
  C   C268      1.0  0.00498  0.68019  0.70783  1.0000
  H   H427      1.0  0.05552  0.51426  0.61518  1.0000
  H   H428      1.0  0.03787  0.71396  0.95759  1.0000
  H   H429      1.0  0.00467  0.69827  0.88076  1.0000
  H   H430      1.0  0.01193  0.70107  0.65139  1.0000
  H   H431      1.0  0.06813  0.66003  0.02400  1.0000
  C   C269      1.0  0.02617  0.65759  0.00189  1.0000
  H   H432      1.0  0.02527  0.61835  0.58185  1.0000
  H   H433      1.0  0.10029  0.59130  0.59286  1.0000
  H   H434      1.0  0.03407  0.71303  0.58640  1.0000
  H   H435      1.0  0.10004  0.65977  0.77217  1.0000
  Fe  Fe59      1.0  0.99464  0.58596  0.74186  1.0000
  H   H436      1.0  0.08623  0.65002  0.58454  1.0000
  C   C270      1.0  0.02492  0.52020  0.67198  1.0000
  C   C271      1.0  0.05075  0.72318  0.01669  1.0000
  N   N26       1.0  0.06330  0.64516  0.77236  1.0000
  Fe  Fe60      1.0  0.98614  0.60204  0.65560  1.0000
  C   C272      1.0  0.05984  0.64580  0.81830  1.0000
  C   C273      1.0  0.04370  0.64888  0.75159  1.0000
  C   C274      1.0  0.08493  0.66112  0.75544  1.0000
  C   C275      1.0  0.03384  0.70976  0.55399  1.0000
  H   H437      1.0  0.05241  0.63371  0.02219  1.0000
  C   C276      1.0  0.99631  0.65973  0.72479  1.0000
  S   S121      1.0  0.11207  0.74271  0.65138  1.0000
  H   H438      1.0  0.03497  0.51082  0.68630  1.0000
  H   H439      1.0  0.04364  0.63383  0.83194  1.0000
  H   H440      1.0  0.03335  0.66498  0.57691  1.0000
  H   H441      1.0  0.04200  0.66394  0.75778  1.0000
  H   H442      1.0  0.02709  0.63694  0.76315  1.0000
  H   H443      1.0  0.11937  0.74688  0.89988  1.0000
  H   H444      1.0  0.06829  0.72959  0.00340  1.0000
  H   H445      1.0  0.15402  0.74095  0.92543  1.0000
  S   S122      1.0  0.99178  0.57649  0.62343  1.0000
  C   C277      1.0  0.98890  0.64432  0.69811  1.0000
  C   C278      1.0  0.00546  0.68524  0.66439  1.0000
  C   C279      1.0  0.04789  0.58179  0.55269  1.0000
  H   H446      1.0  0.04303  0.52166  0.56907  1.0000
  H   H447      1.0  0.02306  0.64487  0.98166  1.0000
  H   H448      1.0  0.99620  0.65565  0.75826  1.0000
  Fe  Fe61      1.0  0.14897  0.73966  0.02558  1.0000
  H   H449      1.0  0.07942  0.62174  0.77912  1.0000
  C   C280      1.0  0.00811  0.52964  0.60983  1.0000
  H   H450      1.0  0.07440  0.64327  0.83513  1.0000
  H   H451      1.0  0.00560  0.52796  0.57587  1.0000
  H   H452      1.0  0.12755  0.74371  0.84691  1.0000
  C   C281      1.0  0.06468  0.62490  0.76412  1.0000
  H   H453      1.0  0.01876  0.63417  0.54015  1.0000
  H   H454      1.0  0.08386  0.67659  0.75886  1.0000
  H   H455      1.0  0.99799  0.67382  0.60422  1.0000
  H   H456      1.0  0.99070  0.52525  0.62686  1.0000
  C   C282      1.0  0.04622  0.65824  0.58995  1.0000
  C   C283      1.0  0.16374  0.74899  0.89523  1.0000
  H   H457      1.0  0.00799  0.51591  0.69077  1.0000
  S   S123      1.0  0.05732  0.74038  0.64734  1.0000
  C   C284      1.0  0.98374  0.60991  0.87523  1.0000
  H   H458      1.0  0.06125  0.67120  0.59700  1.0000
  H   H459      1.0  0.06380  0.62742  0.60776  1.0000
  H   H460      1.0  0.16312  0.73729  0.87322  1.0000
  N   N27       1.0  0.02185  0.51713  0.62711  1.0000
  H   H461      1.0  0.07646  0.62824  0.55558  1.0000
  H   H462      1.0  0.98267  0.62851  0.71134  1.0000
  S   S124      1.0  0.98273  0.63010  0.62078  1.0000
  H   H463      1.0  0.32149  0.92998  0.13645  1.0000
  H   H464      1.0  0.33328  0.97326  0.38687  1.0000
  C   C285      1.0  0.10260  0.79479  0.49155  1.0000
  C   C286      1.0  0.31305  0.99017  0.52276  1.0000
  H   H465      1.0  0.33769  0.99024  0.17330  1.0000
  H   H466      1.0  0.29567  0.80363  0.14595  1.0000
  C   C287      1.0  0.21705  0.82261  0.05275  1.0000
  S   S125      1.0  0.28071  0.89619  0.06962  1.0000
  Fe  Fe62      1.0  0.38240  0.94163  0.27196  1.0000
  S   S126      1.0  0.40685  0.96736  0.22900  1.0000
  S   S127      1.0  0.35677  0.91334  0.25112  1.0000
  Fe  Fe63      1.0  0.39064  0.96597  0.34934  1.0000
  H   H467      1.0  0.42747  0.93754  0.42725  1.0000
  S   S128      1.0  0.37875  0.96289  0.41878  1.0000
  H   H468      1.0  0.07532  0.75526  0.49783  1.0000
  C   C288      1.0  0.33340  0.94592  0.13157  1.0000
  Fe  Fe64      1.0  0.42971  0.97181  0.28293  1.0000
  Fe  Fe65      1.0  0.39036  0.98711  0.26144  1.0000
  S   S129      1.0  0.36439  0.96132  0.30127  1.0000
  S   S130      1.0  0.40688  0.94401  0.32372  1.0000
  H   H469      1.0  0.36048  0.98109  0.15508  1.0000
  C   C289      1.0  0.18731  0.78922  0.05794  1.0000
  H   H470      1.0  0.11583  0.76207  0.51406  1.0000
  H   H471      1.0  0.30921  0.85373  0.08077  1.0000
  C   C290      1.0  0.28732  0.81439  0.15808  1.0000
  C   C291      1.0  0.32860  0.95114  0.20459  1.0000
  C   C292      1.0  0.27230  0.81931  0.09088  1.0000
  C   C293      1.0  0.39323  0.97931  0.45509  1.0000
  H   H472      1.0  0.37150  0.99614  0.35603  1.0000
  H   H473      1.0  0.30063  0.96368  0.12200  1.0000
  H   H474      1.0  0.32368  0.96048  0.22767  1.0000
  C   C294      1.0  0.38762  0.97339  0.49845  1.0000
  H   H475      1.0  0.30801  0.95138  0.50721  1.0000
  C   C295      1.0  0.27476  0.84365  0.14164  1.0000
  C   C296      1.0  0.30953  0.84169  0.10595  1.0000
  H   H476      1.0  0.31844  0.83184  0.09166  1.0000
  H   H477      1.0  0.19316  0.80935  0.10715  1.0000
  H   H478      1.0  0.37536  0.95853  0.50908  1.0000
  H   H479      1.0  0.45786  0.94176  0.30674  1.0000
  H   H480      1.0  0.26457  0.96108  0.43468  1.0000
  H   H481      1.0  0.31743  0.93499  0.21248  1.0000
  H   H482      1.0  0.24707  0.94418  0.50538  1.0000
  H   H483      1.0  0.34109  0.98644  0.11894  1.0000
  C   C297      1.0  0.34773  0.90130  0.11266  1.0000
  C   C298      1.0  0.36935  0.91277  0.12475  1.0000
  C   C299      1.0  0.37226  0.91704  0.16689  1.0000
  C   C300      1.0  0.35372  0.90924  0.19751  1.0000
  C   C301      1.0  0.33222  0.89745  0.18554  1.0000
  C   C302      1.0  0.32913  0.89375  0.14321  1.0000
  H   H484      1.0  0.38388  0.91850  0.10138  1.0000
  H   H485      1.0  0.38898  0.92592  0.17584  1.0000
  H   H486      1.0  0.31785  0.89129  0.20913  1.0000
  H   H487      1.0  0.31243  0.88498  0.13426  1.0000
  C   C303      1.0  0.07291  0.76442  0.52362  1.0000
  N   N28       1.0  0.09467  0.78039  0.53019  1.0000
  C   C304      1.0  0.25976  0.96993  0.45762  1.0000
  H   H488      1.0  0.32045  0.84963  0.13022  1.0000
  N   N29       1.0  0.45636  0.96482  0.42832  1.0000
  H   H489      1.0  0.29752  0.82175  0.18373  1.0000
  H   H490      1.0  0.45212  0.93906  0.39290  1.0000
  H   H491      1.0  0.17313  0.77752  0.07576  1.0000
  C   C305      1.0  0.32299  0.95901  0.52503  1.0000
  H   H492      1.0  0.27404  0.85576  0.11704  1.0000
  H   H493      1.0  0.31266  0.98402  0.40871  1.0000
  C   C306      1.0  0.33146  0.98636  0.40306  1.0000
  H   H494      1.0  0.28417  0.85136  0.16770  1.0000
  H   H495      1.0  0.11906  0.80697  0.49562  1.0000
  H   H496      1.0  0.33878  0.98545  0.43405  1.0000
  H   H497      1.0  0.26981  0.80519  0.17243  1.0000
  S   S131      1.0  0.23135  0.84479  0.07635  1.0000
  H   H498      1.0  0.33293  0.95152  0.09823  1.0000
  H   H499      1.0  0.08965  0.80245  0.48331  1.0000
  H   H500      1.0  0.29836  0.98349  0.50360  1.0000
  N   N30       1.0  0.28599  0.82977  0.12411  1.0000
  H   H501      1.0  0.42958  0.96373  0.47537  1.0000
  N   N31       1.0  0.32665  0.95882  0.16072  1.0000
  C   C307      1.0  0.26314  0.99079  0.44681  1.0000
  C   C308      1.0  0.44670  0.94275  0.42418  1.0000
  C   C309      1.0  0.19870  0.80725  0.07567  1.0000
  H   H502      1.0  0.25426  0.81052  0.10324  1.0000
  C   C310      1.0  0.44873  0.96899  0.47027  1.0000
  H   H503      1.0  0.05910  0.77106  0.51554  1.0000
  C   C311      1.0  0.39788  0.98652  0.52828  1.0000
  H   H504      1.0  0.29043  0.94228  0.16158  1.0000
  H   H505      1.0  0.34661  0.95153  0.20974  1.0000
  C   C312      1.0  0.44809  0.97640  0.39511  1.0000
  C   C313      1.0  0.30260  0.95813  0.15499  1.0000
  C   C314      1.0  0.34214  0.98008  0.15161  1.0000
  H   H506      1.0  0.25659  0.83536  0.15396  1.0000
  H   H507      1.0  0.45529  0.96103  0.49613  1.0000
  S   S132      1.0  0.46845  0.98410  0.27263  1.0000
  H   H508      1.0  0.45471  0.99312  0.39745  1.0000
  H   H509      1.0  0.45487  0.98562  0.47398  1.0000
  H   H510      1.0  0.10569  0.78683  0.46413  1.0000
  H   H511      1.0  0.35122  0.94562  0.13575  1.0000
  H   H512      1.0  0.42893  0.97170  0.39723  1.0000
  C   C315      1.0  0.47581  0.94975  0.31052  1.0000
  H   H513      1.0  0.45253  0.93348  0.44875  1.0000
  H   H514      1.0  0.29693  0.96783  0.17629  1.0000
  C   C316      1.0  0.24987  0.96032  0.49775  1.0000
  S   S133      1.0  0.41497  0.99390  0.31201  1.0000
  C   C317      1.0  0.40957  0.99830  0.44174  1.0000
  H   H515      1.0  0.33821  0.96612  0.50210  1.0000
  C   C318      1.0  0.24656  0.99235  0.51668  1.0000
  H   H516      1.0  0.27930  0.98764  0.03972  1.0000
  C   C319      1.0  0.24303  0.97144  0.52736  1.0000
  H   H517      1.0  0.45378  0.97381  0.36307  1.0000
  H   H518      1.0  0.28006  0.80855  0.07703  1.0000
  S   S134      1.0  0.34463  0.89607  0.05963  1.0000
  H   H519      1.0  0.27095  0.83041  0.06467  1.0000
  H   H520      1.0  0.33721  0.99420  0.31771  1.0000
  H   H521      1.0  0.32825  0.99881  0.50080  1.0000
  S   S135      1.0  0.09849  0.79302  0.67756  1.0000
  C   C320      1.0  0.12583  0.80894  0.65507  1.0000
  C   C321      1.0  0.13338  0.82966  0.66186  1.0000
  C   C322      1.0  0.13952  0.80157  0.62861  1.0000
  H   H522      1.0  0.12287  0.83549  0.68226  1.0000
  H   H523      1.0  0.13402  0.78567  0.62338  1.0000
  C   C323      1.0  0.15440  0.84295  0.64211  1.0000
  C   C324      1.0  0.22411  0.81979  0.01208  1.0000
  H   H524      1.0  0.22974  0.96838  0.68251  1.0000
  C   C325      1.0  0.12960  0.75507  0.87022  1.0000
  H   H525      1.0  0.15998  0.85892  0.64721  1.0000
  S   S136      1.0  0.27212  0.94640  0.02184  1.0000
  Fe  Fe66      1.0  0.27747  0.91628  0.01314  1.0000
  C   C326      1.0  0.16014  0.81496  0.60785  1.0000
  H   H526      1.0  0.10690  0.75966  0.56877  1.0000
  H   H527      1.0  0.20150  0.98407  0.71141  1.0000
  H   H528      1.0  0.06637  0.75350  0.55250  1.0000
  H   H529      1.0  0.10670  0.80404  0.57114  1.0000
  H   H530      1.0  0.17447  0.78768  0.91366  1.0000
  H   H531      1.0  0.17337  0.96804  0.73304  1.0000
  H   H532      1.0  0.16296  0.93029  0.73507  1.0000
  S   S137      1.0  0.47719  0.98180  0.69711  1.0000
  C   C327      1.0  0.19183  0.96896  0.72891  1.0000
  C   C328      1.0  0.18170  0.93232  0.73068  1.0000
  H   H533      1.0  0.18823  0.93091  0.76244  1.0000
  S   S138      1.0  0.25245  0.89084  0.98375  1.0000
  C   C329      1.0  0.33815  0.98356  0.57433  1.0000
  H   H534      1.0  0.18578  0.78195  0.84102  1.0000
  H   H535      1.0  0.16041  0.78651  0.82236  1.0000
  C   C330      1.0  0.09077  0.79160  0.56566  1.0000
  S   S139      1.0  0.42435  0.99546  0.73841  1.0000
  H   H536      1.0  0.12162  0.76657  0.85782  1.0000
  C   C331      1.0  0.33741  0.88367  0.82338  1.0000
  H   H537      1.0  0.30110  0.95184  0.60232  1.0000
  C   C332      1.0  0.15616  0.78030  0.90708  1.0000
  C   C333      1.0  0.21937  0.95394  0.70163  1.0000
  H   H538      1.0  0.35571  0.97713  0.02616  1.0000
  Fe  Fe67      1.0  0.21461  0.88117  0.61006  1.0000
  H   H539      1.0  0.34233  0.97189  0.59569  1.0000
  H   H540      1.0  0.07707  0.79870  0.55995  1.0000
  C   C334      1.0  0.31948  0.92195  0.63488  1.0000
  H   H541      1.0  0.35384  0.99152  0.55284  1.0000
  H   H542      1.0  0.35558  0.91597  0.73356  1.0000
  N   N32       1.0  0.34686  0.90387  0.79854  1.0000
  C   C335      1.0  0.21287  0.80170  0.99452  1.0000
  H   H543      1.0  0.22188  0.94121  0.68542  1.0000
  H   H544      1.0  0.25657  0.88666  0.74492  1.0000
  S   S140      1.0  0.30205  0.90846  0.59828  1.0000
  H   H545      1.0  0.32383  0.96894  0.89031  1.0000
  H   H546      1.0  0.33658  0.88509  0.85788  1.0000
  H   H547      1.0  0.28103  0.87607  0.79576  1.0000
  C   C336      1.0  0.29773  0.96378  0.58048  1.0000
  H   H548      1.0  0.17040  0.80926  0.58665  1.0000
  Fe  Fe68      1.0  0.22947  0.90399  0.68609  1.0000
  C   C337      1.0  0.29738  0.96627  0.02819  1.0000
  H   H549      1.0  0.18788  0.94061  0.64611  1.0000
  N   N33       1.0  0.15415  0.76472  0.87734  1.0000
  C   C338      1.0  0.33871  0.98005  0.90313  1.0000
  H   H550      1.0  0.35055  0.93046  0.59346  1.0000
  H   H551      1.0  0.35482  0.97913  0.88703  1.0000
  H   H552      1.0  0.18357  0.91922  0.71467  1.0000
  H   H553      1.0  0.29304  0.97462  0.60004  1.0000
  H   H554      1.0  0.08537  0.78132  0.59563  1.0000
  C   C339      1.0  0.24072  0.90579  0.83164  1.0000
  H   H555      1.0  0.25456  0.90412  0.89232  1.0000
  C   C340      1.0  0.16768  0.83569  0.61452  1.0000
  H   H556      1.0  0.35687  0.89070  0.74514  1.0000
  H   H557      1.0  0.29185  0.91548  0.68360  1.0000
  C   C341      1.0  0.11246  0.77075  0.54003  1.0000
  S   S141      1.0  0.30881  0.91462  0.97645  1.0000
  C   C342      1.0  0.24128  0.90103  0.78984  1.0000
  H   H558      1.0  0.14929  0.79254  0.89464  1.0000
  S   S142      1.0  0.28926  0.86531  0.00232  1.0000
  C   C343      1.0  0.34646  0.94711  0.68990  1.0000
  S   S143      1.0  0.36314  0.96213  0.72545  1.0000
  C   C344      1.0  0.18585  0.95308  0.66410  1.0000
  C   C345      1.0  0.34715  0.90119  0.75309  1.0000
  H   H559      1.0  0.33847  0.97482  0.93717  1.0000
  H   H560      1.0  0.37813  0.92941  0.79133  1.0000
  H   H561      1.0  0.18204  0.75585  0.90234  1.0000
  S   S144      1.0  0.23972  0.87913  0.65828  1.0000
  H   H562      1.0  0.22673  0.95322  0.73277  1.0000
  C   C346      1.0  0.25494  0.90015  0.86037  1.0000
  C   C347      1.0  0.33906  0.97949  0.02897  1.0000
  Fe  Fe69      1.0  0.26488  0.90464  0.61574  1.0000
  C   C348      1.0  0.37062  0.91406  0.80957  1.0000
  S   S145      1.0  0.22997  0.95968  0.57774  1.0000
  C   C349      1.0  0.32320  0.93646  0.70160  1.0000
  C   C350      1.0  0.19442  0.78638  0.01732  1.0000
  S   S146      1.0  0.22332  0.90838  0.75441  1.0000
  H   H563      1.0  0.12910  0.78229  0.54566  1.0000
  H   H564      1.0  0.34801  0.87365  0.81731  1.0000
  Fe  Fe70      1.0  0.28426  0.88766  0.95112  1.0000
  H   H565      1.0  0.14658  0.77342  0.93806  1.0000
  Fe  Fe71      1.0  0.23098  0.92804  0.60034  1.0000
  S   S147      1.0  0.18090  0.76390  0.99398  1.0000
  Fe  Fe72      1.0  0.39626  0.98462  0.69553  1.0000
  H   H566      1.0  0.31948  0.87563  0.81571  1.0000
  S   S148      1.0  0.28827  0.88269  0.88238  1.0000
  H   H567      1.0  0.19551  0.96766  0.64462  1.0000
  H   H568      1.0  0.32936  0.89486  0.74291  1.0000
  H   H569      1.0  0.23822  0.83154  0.99413  1.0000
  H   H570      1.0  0.31547  0.93803  0.73175  1.0000
  Fe  Fe73      1.0  0.08870  0.75875  0.67740  1.0000
  H   H571      1.0  0.19838  0.96859  0.76085  1.0000
  S   S149      1.0  0.41995  0.98063  0.64347  1.0000
  H   H572      1.0  0.21849  0.79960  0.96310  1.0000
  S   S150      1.0  0.24092  0.90508  0.56504  1.0000
  H   H573      1.0  0.39336  0.98186  0.56162  1.0000
  S   S151      1.0  0.20236  0.90425  0.64100  1.0000
  C   C351      1.0  0.33227  0.91660  0.80815  1.0000
  H   H574      1.0  0.33955  0.93232  0.79185  1.0000
  H   H575      1.0  0.33491  0.99491  0.59432  1.0000
  C   C352      1.0  0.26960  0.88945  0.84761  1.0000
  H   H576      1.0  0.37100  0.91628  0.84368  1.0000
  S   S152      1.0  0.19273  0.85222  0.58528  1.0000
  H   H577      1.0  0.37443  0.95260  0.64228  1.0000
  H   H578      1.0  0.31460  0.91008  0.79791  1.0000
  S   S153      1.0  0.25689  0.92925  0.64782  1.0000
  H   H579      1.0  0.30028  0.99076  0.90657  1.0000
  H   H580      1.0  0.38219  0.90498  0.80251  1.0000
  N   N34       1.0  0.19466  0.95207  0.70633  1.0000
  Fe  Fe74      1.0  0.31054  0.89280  0.03147  1.0000
  C   C353      1.0  0.30975  0.92383  0.67418  1.0000
  C   C354      1.0  0.31895  0.96335  0.02480  1.0000
  C   C355      1.0  0.25607  0.89048  0.77698  1.0000
  C   C356      1.0  0.34291  0.93211  0.62366  1.0000
  H   H581      1.0  0.33040  0.91780  0.84260  1.0000
  C   C357      1.0  0.26999  0.88454  0.80588  1.0000
  Fe  Fe75      1.0  0.44844  0.99483  0.68396  1.0000
  C   C358      1.0  0.35638  0.94478  0.65109  1.0000
  H   H582      1.0  0.16724  0.95171  0.66619  1.0000
  C   C359      1.0  0.16716  0.77453  0.83679  1.0000
  H   H583      1.0  0.22930  0.91392  0.84185  1.0000
  H   H584      1.0  0.28229  0.95610  0.56376  1.0000
  H   H585      1.0  0.32019  0.94861  0.01950  1.0000
  H   H586      1.0  0.16597  0.76320  0.81355  1.0000
  H   H587      1.0  0.32672  0.94669  0.54524  1.0000
  H   H588      1.0  0.32350  0.99671  0.83671  1.0000
  N   N35       1.0  0.31801  0.97416  0.55061  1.0000
  H   H589      1.0  0.31494  0.99711  0.95317  1.0000
  C   C360      1.0  0.33766  0.99862  0.03663  1.0000
  Fe  Fe76      1.0  0.25893  0.87027  0.03663  1.0000
  C   C361      1.0  0.29597  0.98534  0.03664  1.0000
  H   H590      1.0  0.84195  0.09416  0.18808  1.0000
  H   H591      1.0  0.64983  0.01003  0.42321  1.0000
  S   S154      1.0  0.73639  0.09224  0.13228  1.0000
  Fe  Fe77      1.0  0.75406  0.04398  0.34969  1.0000
  S   S155      1.0  0.75737  0.07601  0.36198  1.0000
  S   S156      1.0  0.74646  0.03232  0.28616  1.0000
  Fe  Fe78      1.0  0.76768  0.03326  0.43800  1.0000
  S   S157      1.0  0.77290  0.06491  0.45612  1.0000
  C   C362      1.0  0.63518  0.03885  0.52347  1.0000
  Fe  Fe79      1.0  0.73977  0.06159  0.42539  1.0000
  S   S158      1.0  0.71101  0.07094  0.45436  1.0000
  Fe  Fe80      1.0  0.79011  0.07612  0.39084  1.0000
  S   S159      1.0  0.82425  0.09956  0.36609  1.0000
  S   S160      1.0  0.73356  0.02932  0.41097  1.0000
  S   S161      1.0  0.78770  0.04462  0.37520  1.0000
  Fe  Fe81      1.0  0.92690  0.23233  0.31912  1.0000
  H   H592      1.0  0.88815  0.14674  0.53344  1.0000
  H   H593      1.0  0.80339  0.17295  0.04605  1.0000
  Fe  Fe82      1.0  0.94329  0.22937  0.40835  1.0000
  S   S162      1.0  0.91165  0.23394  0.43745  1.0000
  Fe  Fe83      1.0  0.89225  0.21226  0.39358  1.0000
  S   S163      1.0  0.85966  0.18864  0.42444  1.0000
  H   H594      1.0  0.84229  0.10634  0.27766  1.0000
  S   S164      1.0  0.92368  0.20579  0.36769  1.0000
  C   C363      1.0  0.65554  0.02643  0.42167  1.0000
  H   H595      1.0  0.82864  0.19595  0.10828  1.0000
  H   H596      1.0  0.64192  0.03489  0.29887  1.0000
  S   S165      1.0  0.97029  0.22534  0.45136  1.0000
  H   H597      1.0  0.85305  0.23123  0.08523  1.0000
  H   H598      1.0  0.88317  0.19821  0.50456  1.0000
  H   H599      1.0  0.86974  0.20269  0.08621  1.0000
  H   H600      1.0  0.72149  0.03705  0.50839  1.0000
  C   C364      1.0  0.68436  0.05792  0.43582  1.0000
  C   C365      1.0  0.66989  0.06886  0.42194  1.0000
  C   C366      1.0  0.64858  0.05868  0.40699  1.0000
  H   H601      1.0  0.67534  0.08527  0.42217  1.0000
  H   H602      1.0  0.63766  0.06731  0.39565  1.0000
  C   C367      1.0  0.83366  0.12425  0.38268  1.0000
  C   C368      1.0  0.82082  0.13025  0.41335  1.0000
  C   C369      1.0  0.82896  0.15008  0.42580  1.0000
  C   C370      1.0  0.84986  0.16403  0.40748  1.0000
  C   C371      1.0  0.86268  0.15804  0.37677  1.0000
  C   C372      1.0  0.85461  0.13819  0.36449  1.0000
  H   H603      1.0  0.80464  0.11963  0.42747  1.0000
  H   H604      1.0  0.81894  0.15466  0.44953  1.0000
  H   H605      1.0  0.87881  0.16866  0.36249  1.0000
  H   H606      1.0  0.86467  0.13361  0.34085  1.0000
  C   C373      1.0  0.64138  0.03746  0.40657  1.0000
  H   H607      1.0  0.68787  0.02802  0.44768  1.0000
  C   C374      1.0  0.67712  0.03666  0.43579  1.0000
  C   C375      1.0  0.73942  0.07544  0.17440  1.0000
  C   C376      1.0  0.74150  0.05637  0.16802  1.0000
  C   C377      1.0  0.74375  0.04328  0.20255  1.0000
  C   C378      1.0  0.74422  0.04929  0.24345  1.0000
  C   C379      1.0  0.74226  0.06840  0.24968  1.0000
  C   C380      1.0  0.73970  0.08136  0.21531  1.0000
  H   H608      1.0  0.74113  0.05165  0.13654  1.0000
  H   H609      1.0  0.74506  0.02844  0.19752  1.0000
  H   H610      1.0  0.74215  0.07309  0.28096  1.0000
  H   H611      1.0  0.73792  0.09604  0.22041  1.0000
  N   N36       1.0  0.85707  0.21320  0.14086  1.0000
  C   C381      1.0  0.83356  0.19855  0.14105  1.0000
  C   C382      1.0  0.86313  0.21624  0.18467  1.0000
  C   C383      1.0  0.85790  0.23294  0.11818  1.0000
  C   C384      1.0  0.87376  0.20512  0.11942  1.0000
  H   H612      1.0  0.88079  0.22726  0.18539  1.0000
  C   C385      1.0  0.67860  0.04342  0.24364  1.0000
  H   H613      1.0  0.60457  0.04656  0.47284  1.0000
  H   H614      1.0  0.84593  0.23977  0.13392  1.0000
  C   C386      1.0  0.93422  0.24223  0.16750  1.0000
  Fe  Fe84      1.0  0.73896  0.08362  0.06597  1.0000
  H   H615      1.0  0.87360  0.19023  0.13564  1.0000
  C   C387      1.0  0.59802  0.03235  0.49505  1.0000
  C   C388      1.0  0.97768  0.24237  0.49058  1.0000
  H   H616      1.0  0.80789  0.10613  0.18412  1.0000
  H   H617      1.0  0.63882  0.02621  0.50825  1.0000
  H   H618      1.0  0.61287  0.06582  0.53647  1.0000
  H   H619      1.0  0.69714  0.04790  0.23264  1.0000
  H   H620      1.0  0.82289  0.06845  0.20061  1.0000
  H   H621      1.0  0.90687  0.18990  0.44986  1.0000
  H   H622      1.0  0.60049  0.01975  0.47796  1.0000
  H   H623      1.0  0.83838  0.12148  0.23171  1.0000
  N   N37       1.0  0.81618  0.09022  0.23900  1.0000
  C   C389      1.0  0.82921  0.10907  0.25683  1.0000
  H   H624      1.0  0.67472  0.05756  0.25021  1.0000
  H   H625      1.0  0.89169  0.21582  0.11863  1.0000
  H   H626      1.0  0.89238  0.16321  0.46070  1.0000
  H   H627      1.0  0.82048  0.20424  0.15663  1.0000
  H   H628      1.0  0.63789  0.01372  0.26761  1.0000
  H   H629      1.0  0.66866  0.03718  0.21679  1.0000
  H   H630      1.0  0.76613  0.00205  0.06196  1.0000
  C   C390      1.0  0.88272  0.18376  0.52336  1.0000
  S   S166      1.0  0.77627  0.01018  0.48326  1.0000
  H   H631      1.0  0.78709  0.10062  0.22864  1.0000
  H   H632      1.0  0.67144  0.00349  0.24405  1.0000
  S   S167      1.0  0.61453  0.02529  0.38747  1.0000
  H   H633      1.0  0.69886  0.01464  0.26443  1.0000
  C   C391      1.0  0.79930  0.09460  0.21118  1.0000
  H   H634      1.0  0.94262  0.23102  0.16146  1.0000
  C   C392      1.0  0.83228  0.08266  0.21447  1.0000
  H   H635      1.0  0.86739  0.17165  0.51430  1.0000
  C   C393      1.0  0.67989  0.01040  0.27174  1.0000
  N   N38       1.0  0.67300  0.02826  0.28127  1.0000
  H   H636      1.0  0.68227  0.02612  0.34521  1.0000
  H   H637      1.0  0.68020  0.05055  0.32610  1.0000
  S   S168      1.0  0.89409  0.23730  0.34236  1.0000
  H   H638      1.0  0.64237  0.05303  0.50142  1.0000
  H   H639      1.0  0.84513  0.07907  0.23473  1.0000
  S   S169      1.0  0.93655  0.23064  0.25061  1.0000
  H   H640      1.0  0.87548  0.24417  0.11634  1.0000
  H   H641      1.0  0.86285  0.20171  0.20278  1.0000
  C   C394      1.0  0.90689  0.17606  0.46987  1.0000
  H   H642      1.0  0.79410  0.05987  0.26170  1.0000
  H   H643      1.0  0.64322  0.01100  0.32207  1.0000
  H   H644      1.0  0.78880  0.08059  0.19791  1.0000
  H   H645      1.0  0.81759  0.11479  0.27671  1.0000
  H   H646      1.0  0.57914  0.02904  0.50182  1.0000
  H   H647      1.0  0.70449  0.04309  0.30891  1.0000
  H   H648      1.0  0.92339  0.17319  0.46158  1.0000
  C   C395      1.0  0.68553  0.03746  0.31688  1.0000
  C   C396      1.0  0.64790  0.02171  0.29281  1.0000
  H   H649      1.0  0.79131  0.07955  0.29240  1.0000
  H   H650      1.0  0.81602  0.07117  0.29598  1.0000
  N   N39       1.0  0.61019  0.03427  0.53415  1.0000
  H   H651      1.0  0.83223  0.18346  0.15789  1.0000
  C   C397      1.0  0.80388  0.07449  0.27367  1.0000
  H   H652      1.0  0.85098  0.22239  0.20189  1.0000
  H   H653      1.0  0.91900  0.15558  0.53479  1.0000
  S   S170      1.0  0.76887  0.07451  0.04131  1.0000
  N   N40       1.0  0.90422  0.17882  0.51496  1.0000
  H   H654      1.0  0.94079  0.19270  0.51879  1.0000
  H   H655      1.0  0.92559  0.21033  0.50662  1.0000
  C   C398      1.0  0.92926  0.24540  0.20920  1.0000
  C   C399      1.0  0.92419  0.19569  0.52556  1.0000
  H   H656      1.0  0.74425  0.07120  0.52754  1.0000
  H   H657      1.0  0.69658  0.04012  0.53517  1.0000
  Fe  Fe85      1.0  0.71805  0.08214  0.98011  1.0000
  S   S171      1.0  0.74690  0.07365  0.94992  1.0000
  S   S172      1.0  0.68823  0.08416  0.94238  1.0000
  Fe  Fe86      1.0  0.77029  0.09729  0.98582  1.0000
  S   S173      1.0  0.80294  0.12012  0.95248  1.0000
  Fe  Fe87      1.0  0.74202  0.05199  0.00814  1.0000
  S   S174      1.0  0.74026  0.01967  0.99815  1.0000
  S   S175      1.0  0.74164  0.10752  0.01188  1.0000
  H   H658      1.0  0.71921  0.07333  0.55509  1.0000
  C   C400      1.0  0.94642  0.24836  0.83718  1.0000
  S   S176      1.0  0.90633  0.23691  0.02892  1.0000
  S   S177      1.0  0.64314  0.04349  0.66518  1.0000
  H   H659      1.0  0.61122  0.01539  0.59029  1.0000
  H   H660      1.0  0.75597  0.11474  0.84823  1.0000
  H   H661      1.0  0.51158  0.07119  0.71790  1.0000
  C   C401      1.0  0.60132  0.01487  0.56187  1.0000
  Fe  Fe88      1.0  0.65259  0.03675  0.73070  1.0000
  S   S178      1.0  0.68443  0.05696  0.75705  1.0000
  C   C402      1.0  0.51093  0.01624  0.65920  1.0000
  H   H662      1.0  0.90110  0.16126  0.57505  1.0000
  H   H663      1.0  0.52441  0.03456  0.79717  1.0000
  H   H664      1.0  0.78371  0.13025  0.86261  1.0000
  S   S179      1.0  0.65505  0.00615  0.71823  1.0000
  C   C403      1.0  0.81213  0.16902  0.01944  1.0000
  H   H665      1.0  0.64502  0.04102  0.55208  1.0000
  S   S180      1.0  0.61574  0.02481  0.75785  1.0000
  H   H666      1.0  0.69380  0.02305  0.00667  1.0000
  H   H667      1.0  0.74506  0.07609  0.58199  1.0000
  Fe  Fe89      1.0  0.87473  0.23362  0.99341  1.0000
  H   H668      1.0  0.53674  0.05710  0.76057  1.0000
  H   H669      1.0  0.72026  0.12108  0.87486  1.0000
  H   H670      1.0  0.72858  0.11919  0.92753  1.0000
  H   H671      1.0  0.78644  0.15814  0.90656  1.0000
  H   H672      1.0  0.76080  0.16333  0.92509  1.0000
  H   H673      1.0  0.74724  0.14563  0.81966  1.0000
  H   H674      1.0  0.74929  0.16606  0.85184  1.0000
  H   H675      1.0  0.76382  0.11267  0.90138  1.0000
  H   H676      1.0  0.78812  0.13846  0.02252  1.0000
  Fe  Fe90      1.0  0.64230  0.01177  0.65520  1.0000
  H   H677      1.0  0.77503  0.16128  0.83285  1.0000
  H   H678      1.0  0.68980  0.00094  0.89745  1.0000
  H   H679      1.0  0.76662  0.14077  0.94591  1.0000
  C   C404      1.0  0.81431  0.14423  0.97144  1.0000
  C   C405      1.0  0.83420  0.15869  0.95056  1.0000
  C   C406      1.0  0.84310  0.17826  0.96420  1.0000
  C   C407      1.0  0.71257  0.04095  0.61284  1.0000
  H   H680      1.0  0.92292  0.19824  0.55937  1.0000
  C   C408      1.0  0.80337  0.14946  0.00606  1.0000
  H   H681      1.0  0.84277  0.15474  0.92377  1.0000
  H   H682      1.0  0.85842  0.18929  0.94797  1.0000
  H   H683      1.0  0.70471  0.01793  0.54912  1.0000
  C   C409      1.0  0.68694  0.07559  0.89167  1.0000
  C   C410      1.0  0.70700  0.07613  0.86814  1.0000
  C   C411      1.0  0.70589  0.07034  0.82703  1.0000
  C   C412      1.0  0.68468  0.06368  0.80915  1.0000
  C   C413      1.0  0.66450  0.06294  0.83266  1.0000
  C   C414      1.0  0.66568  0.06905  0.87369  1.0000
  H   H684      1.0  0.72349  0.08150  0.88109  1.0000
  H   H685      1.0  0.72157  0.07104  0.80895  1.0000
  H   H686      1.0  0.64807  0.05807  0.81895  1.0000
  H   H687      1.0  0.65009  0.06879  0.89152  1.0000
  S   S181      1.0  0.89450  0.24457  0.92988  1.0000
  N   N41       1.0  0.75499  0.13964  0.88344  1.0000
  C   C415      1.0  0.73048  0.13001  0.89878  1.0000
  C   C416      1.0  0.76504  0.12366  0.87324  1.0000
  C   C417      1.0  0.76773  0.15104  0.91658  1.0000
  C   C418      1.0  0.75672  0.15380  0.84521  1.0000
  H   H688      1.0  0.72222  0.14149  0.90709  1.0000
  C   C419      1.0  0.55155  0.02446  0.67222  1.0000
  N   N42       1.0  0.49961  0.04514  0.76466  1.0000
  H   H689      1.0  0.66992  0.01393  0.91192  1.0000
  C   C420      1.0  0.69266  0.00829  0.99727  1.0000
  H   H690      1.0  0.69710  0.04608  0.61113  1.0000
  H   H691      1.0  0.68941  0.02359  0.86573  1.0000
  H   H692      1.0  0.50959  0.07264  0.79540  1.0000
  C   C421      1.0  0.52251  0.04229  0.76619  1.0000
  S   S182      1.0  0.65942  0.00906  0.59321  1.0000
  S   S183      1.0  0.57977  0.04175  0.66554  1.0000
  H   H693      1.0  0.75646  0.04005  0.54447  1.0000
  H   H694      1.0  0.53757  0.04372  0.63259  1.0000
  Fe  Fe91      1.0  0.60639  0.02860  0.69096  1.0000
  C   C422      1.0  0.83199  0.18349  0.99865  1.0000
  H   H695      1.0  0.61508  0.05253  0.58621  1.0000
  H   H696      1.0  0.65626  0.02178  0.82088  1.0000
  C   C423      1.0  0.53374  0.02951  0.65268  1.0000
  H   H697      1.0  0.74080  0.02132  0.58654  1.0000
  C   C424      1.0  0.71273  0.00323  0.98882  1.0000
  N   N43       1.0  0.72618  0.04525  0.57164  1.0000
  C   C425      1.0  0.54652  0.00599  0.69786  1.0000
  H   H698      1.0  0.96006  0.24176  0.84693  1.0000
  H   H699      1.0  0.93588  0.23845  0.81504  1.0000
  C   C426      1.0  0.73409  0.06747  0.55865  1.0000
  C   C427      1.0  0.49817  0.05591  0.72338  1.0000
  H   H700      1.0  0.52525  0.03263  0.74168  1.0000
  C   C428      1.0  0.74630  0.03791  0.57536  1.0000
  C   C429      1.0  0.49617  0.05735  0.79862  1.0000
  H   H701      1.0  0.95568  0.24539  0.03221  1.0000
  H   H702      1.0  0.70621  0.02425  0.62341  1.0000
  H   H703      1.0  0.72292  0.04872  0.63787  1.0000
  H   H704      1.0  0.75809  0.04607  0.59818  1.0000
  H   H705      1.0  0.49733  0.02011  0.64370  1.0000
  H   H706      1.0  0.87980  0.18564  0.55718  1.0000
  C   C430      1.0  0.60628  0.05090  0.55631  1.0000
  H   H707      1.0  0.60279  0.00179  0.54533  1.0000
  H   H708      1.0  0.58760  0.04788  0.56517  1.0000
  S   S184      1.0  0.84194  0.20787  0.01691  1.0000
  H   H709      1.0  0.58286  0.01152  0.57293  1.0000
  H   H710      1.0  0.48296  0.01567  0.74445  1.0000
  H   H711      1.0  0.93505  0.24732  0.86609  1.0000
  H   H712      1.0  0.49681  0.04956  0.83027  1.0000
  S   S185      1.0  0.95932  0.24743  0.94195  1.0000
  H   H713      1.0  0.56011  0.00201  0.71331  1.0000
  H   H714      1.0  0.50057  0.04712  0.69702  1.0000
  C   C431      1.0  0.67833  0.00931  0.88457  1.0000
  H   H715      1.0  0.63791  0.01383  0.86903  1.0000
  S   S186      1.0  0.71204  0.05945  0.03746  1.0000
  C   C432      1.0  0.64621  0.00829  0.84291  1.0000
  H   H716      1.0  0.68390  0.00464  0.80241  1.0000
  C   C433      1.0  0.48149  0.02499  0.77042  1.0000
  H   H717      1.0  0.48251  0.01606  0.80049  1.0000
  H   H718      1.0  0.48104  0.05822  0.72106  1.0000
  C   C434      1.0  0.71165  0.03463  0.53963  1.0000
  C   C435      1.0  0.90306  0.15974  0.54077  1.0000
  S   S187      1.0  0.91540  0.28903  0.39637  1.0000
  H   H719      1.0  0.94130  0.31718  0.31442  1.0000
  C   C436      1.0  0.91322  0.27158  0.18265  1.0000
  S   S188      1.0  0.91052  0.28237  0.09865  1.0000
  H   H720      1.0  0.93882  0.29079  0.31461  1.0000
  H   H721      1.0  0.95684  0.28065  0.42136  1.0000
  S   S189      1.0  0.95725  0.41093  0.38992  1.0000
  C   C437      1.0  0.97213  0.29534  0.25359  1.0000
  N   N44       1.0  0.97917  0.32101  0.08002  1.0000
  C   C438      1.0  0.96448  0.25495  0.49933  1.0000
  H   H722      1.0  0.51783  0.48267  0.27607  1.0000
  C   C439      1.0  0.92625  0.39105  0.45627  1.0000
  C   C440      1.0  0.94934  0.40192  0.44374  1.0000
  S   S190      1.0  0.95000  0.25506  0.35685  1.0000
  C   C441      1.0  0.91785  0.26809  0.14096  1.0000
  H   H723      1.0  0.97319  0.34351  0.26947  1.0000
  H   H724      1.0  0.91371  0.38777  0.43288  1.0000
  N   N45       1.0  0.96882  0.31138  0.27848  1.0000
  H   H725      1.0  0.91477  0.26262  0.24885  1.0000
  H   H726      1.0  0.96824  0.47671  0.43330  1.0000
  C   C442      1.0  0.94193  0.30477  0.41055  1.0000
  C   C443      1.0  0.94559  0.32568  0.41097  1.0000
  C   C444      1.0  0.50671  0.48736  0.29751  1.0000
  C   C445      1.0  0.94436  0.30567  0.29457  1.0000
  H   H727      1.0  0.93172  0.33185  0.40478  1.0000
  H   H728      1.0  0.95455  0.29639  0.05400  1.0000
  H   H729      1.0  0.96994  0.35486  0.41907  1.0000
  Fe  Fe92      1.0  0.91699  0.25817  0.38394  1.0000
  H   H730      1.0  0.96137  0.29336  0.22615  1.0000
  H   H731      1.0  0.96881  0.34153  0.11723  1.0000
  C   C446      1.0  0.92847  0.25346  0.13352  1.0000
  C   C447      1.0  0.96559  0.35016  0.52297  1.0000
  H   H732      1.0  0.96242  0.34322  0.06293  1.0000
  C   C448      1.0  0.96540  0.40624  0.47446  1.0000
  H   H733      1.0  0.96250  0.29648  0.12823  1.0000
  H   H734      1.0  0.90500  0.28291  0.18860  1.0000
  C   C449      1.0  0.97096  0.30895  0.04459  1.0000
  C   C450      1.0  0.95824  0.39979  0.51746  1.0000
  C   C451      1.0  0.96997  0.26781  0.53161  1.0000
  H   H735      1.0  0.90130  0.37578  0.50807  1.0000
  C   C452      1.0  0.95978  0.29686  0.41983  1.0000
  C   C453      1.0  0.50327  0.41964  0.51343  1.0000
  C   C454      1.0  0.48547  0.47332  0.31404  1.0000
  C   C455      1.0  0.91922  0.38427  0.49890  1.0000
  H   H736      1.0  0.96715  0.28023  0.27288  1.0000
  H   H737      1.0  0.93137  0.31890  0.50094  1.0000
  H   H738      1.0  0.95356  0.35482  0.50224  1.0000
  C   C456      1.0  0.91872  0.26013  0.21677  1.0000
  H   H739      1.0  0.50936  0.43636  0.51612  1.0000
  C   C457      1.0  0.96735  0.33875  0.41834  1.0000
  H   H740      1.0  0.94991  0.25472  0.48150  1.0000
  C   C458      1.0  0.96327  0.33246  0.09025  1.0000
  H   H741      1.0  0.93270  0.30420  0.26850  1.0000
  H   H742      1.0  0.94540  0.32194  0.09891  1.0000
  H   H743      1.0  0.48856  0.41649  0.49296  1.0000
  H   H744      1.0  0.96249  0.47823  0.35665  1.0000
  H   H745      1.0  0.51752  0.41581  0.49678  1.0000
  H   H746      1.0  0.96472  0.45303  0.35570  1.0000
  C   C459      1.0  0.97487  0.46959  0.35285  1.0000
  H   H747      1.0  0.95710  0.31169  0.50140  1.0000
  H   H748      1.0  0.96444  0.33015  0.22427  1.0000
  H   H749      1.0  0.50210  0.38088  0.53492  1.0000
  C   C460      1.0  0.97526  0.33102  0.25149  1.0000
  H   H750      1.0  0.97016  0.45144  0.43178  1.0000
  C   C461      1.0  0.94354  0.31460  0.52187  1.0000
  C   C462      1.0  0.93506  0.38876  0.52971  1.0000
  H   H751      1.0  0.93268  0.25101  0.10158  1.0000
  H   H752      1.0  0.98013  0.34893  0.50225  1.0000
  H   H753      1.0  0.97935  0.29908  0.33534  1.0000
  C   C463      1.0  0.98037  0.46802  0.42730  1.0000
  C   C464      1.0  0.97996  0.30717  0.11742  1.0000
  H   H754      1.0  0.95945  0.27724  0.53835  1.0000
  H   H755      1.0  0.97271  0.36281  0.54273  1.0000
  H   H756      1.0  0.90580  0.38165  0.78347  1.0000
  C   C465      1.0  0.93071  0.41501  0.85275  1.0000
  S   S191      1.0  0.92844  0.28284  0.97681  1.0000
  H   H757      1.0  0.92569  0.31892  0.59732  1.0000
  Fe  Fe93      1.0  0.89584  0.27614  0.94388  1.0000
  S   S192      1.0  0.88952  0.29828  0.89301  1.0000
  N   N46       1.0  0.49638  0.40781  0.55535  1.0000
  C   C466      1.0  0.96286  0.48459  0.74032  1.0000
  H   H758      1.0  0.96972  0.48371  0.77079  1.0000
  S   S193      1.0  0.50020  0.43189  0.67149  1.0000
  S   S194      1.0  0.92521  0.37990  0.58288  1.0000
  H   H759      1.0  0.51159  0.40380  0.61357  1.0000
  C   C467      1.0  0.93525  0.33333  0.57737  1.0000
  H   H760      1.0  0.93949  0.30956  0.89417  1.0000
  H   H761      1.0  0.92651  0.26916  0.78504  1.0000
  H   H762      1.0  0.96065  0.26140  0.75539  1.0000
  S   S195      1.0  0.95816  0.44403  0.74211  1.0000
  Fe  Fe94      1.0  0.94908  0.39174  0.63287  1.0000
  H   H763      1.0  0.92632  0.37752  0.89047  1.0000
  H   H764      1.0  0.92654  0.27781  0.83638  1.0000
  H   H765      1.0  0.89347  0.39751  0.81180  1.0000
  H   H766      1.0  0.96796  0.31855  0.01717  1.0000
  H   H767      1.0  0.91105  0.36347  0.85048  1.0000
  C   C468      1.0  0.91489  0.37819  0.86465  1.0000
  C   C469      1.0  0.97056  0.32469  0.57477  1.0000
  S   S196      1.0  0.93692  0.38907  0.70169  1.0000
  C   C470      1.0  0.91002  0.39597  0.79913  1.0000
  H   H768      1.0  0.94231  0.34522  0.59882  1.0000
  N   N47       1.0  0.95652  0.26971  0.81804  1.0000
  H   H769      1.0  0.50421  0.47717  0.78378  1.0000
  C   C471      1.0  0.51630  0.41245  0.58159  1.0000
  C   C472      1.0  0.94703  0.46838  0.67938  1.0000
  C   C473      1.0  0.94420  0.48678  0.66262  1.0000
  H   H770      1.0  0.89831  0.37891  0.87917  1.0000
  C   C474      1.0  0.97290  0.25487  0.02079  1.0000
  H   H771      1.0  0.94157  0.45497  0.66259  1.0000
  H   H772      1.0  0.95670  0.40743  0.79113  1.0000
  Fe  Fe95      1.0  0.96720  0.37829  0.71386  1.0000
  H   H773      1.0  0.94280  0.41556  0.87792  1.0000
  H   H774      1.0  0.96060  0.28212  0.87777  1.0000
  Fe  Fe96      1.0  0.96207  0.42082  0.69958  1.0000
  S   S197      1.0  0.97699  0.37793  0.64532  1.0000
  H   H775      1.0  0.92138  0.34480  0.76466  1.0000
  C   C475      1.0  0.95609  0.46720  0.71856  1.0000
  H   H776      1.0  0.94449  0.38023  0.79740  1.0000
  C   C476      1.0  0.94761  0.39407  0.81429  1.0000
  N   N48       1.0  0.92580  0.39580  0.83274  1.0000
  Fe  Fe97      1.0  0.92595  0.25069  0.96666  1.0000
  C   C477      1.0  0.54043  0.48814  0.69482  1.0000
  C   C478      1.0  0.53082  0.47000  0.67616  1.0000
  C   C479      1.0  0.51160  0.45441  0.69616  1.0000
  C   C480      1.0  0.97097  0.28202  0.84821  1.0000
  C   C481      1.0  0.51164  0.47521  0.75366  1.0000
  H   H777      1.0  0.92253  0.33827  0.55899  1.0000
  H   H778      1.0  0.53838  0.46804  0.64620  1.0000
  H   H779      1.0  0.48301  0.42985  0.58142  1.0000
  H   H780      1.0  0.97114  0.33201  0.84367  1.0000
  H   H781      1.0  0.48290  0.37640  0.58166  1.0000
  H   H782      1.0  0.53100  0.40853  0.56702  1.0000
  H   H783      1.0  0.93881  0.42857  0.82923  1.0000
  H   H784      1.0  0.95966  0.39313  0.83882  1.0000
  C   C482      1.0  0.91246  0.31436  0.85815  1.0000
  C   C483      1.0  0.90751  0.32456  0.82171  1.0000
  C   C484      1.0  0.92540  0.33730  0.79301  1.0000
  C   C485      1.0  0.94839  0.33993  0.80073  1.0000
  C   C486      1.0  0.95337  0.32992  0.83738  1.0000
  C   C487      1.0  0.93548  0.31719  0.86603  1.0000
  H   H785      1.0  0.88972  0.32238  0.81541  1.0000
  S   S198      1.0  0.97153  0.42446  0.62990  1.0000
  C   C488      1.0  0.97093  0.27034  0.77916  1.0000
  C   C489      1.0  0.93778  0.27810  0.80766  1.0000
  C   C490      1.0  0.53089  0.49078  0.73373  1.0000
  N   N49       1.0  0.95374  0.33070  0.54925  1.0000
  S   S199      1.0  0.97143  0.35529  0.76522  1.0000
  H   H786      1.0  0.93664  0.48753  0.63279  1.0000
  H   H787      1.0  0.52254  0.42893  0.58663  1.0000
  H   H788      1.0  0.97060  0.40340  0.54107  1.0000
  H   H789      1.0  0.93385  0.29987  0.54065  1.0000
  C   C491      1.0  0.50199  0.45708  0.73496  1.0000
  H   H790      1.0  0.91783  0.40898  0.77427  1.0000
  H   H791      1.0  0.91467  0.41686  0.86711  1.0000
  H   H792      1.0  0.96227  0.31002  0.59493  1.0000
  H   H793      1.0  0.48722  0.44517  0.75065  1.0000
  C   C492      1.0  0.48834  0.38573  0.55050  1.0000
  H   H794      1.0  0.97936  0.29812  0.83448  1.0000
  S   S200      1.0  0.87333  0.26485  0.00443  1.0000
  H   H795      1.0  0.94476  0.29422  0.79318  1.0000
  H   H796      1.0  0.97914  0.28630  0.76427  1.0000
  Fe  Fe98      1.0  0.90609  0.26865  0.03629  1.0000
  C   C493      1.0  0.97965  0.25764  0.97771  1.0000
  H   H797      1.0  0.97872  0.33647  0.59580  1.0000
  H   H798      1.0  0.55526  0.50003  0.67927  1.0000
  H   H799      1.0  0.67862  0.69885  0.47533  1.0000
  H   H800      1.0  0.71162  0.69301  0.43592  1.0000
  C   C494      1.0  0.67967  0.70723  0.13509  1.0000
  S   S201      1.0  0.95027  0.61917  0.12893  1.0000
  H   H801      1.0  0.65510  0.62450  0.42952  1.0000
  H   H802      1.0  0.97091  0.62014  0.36483  1.0000
  S   S202      1.0  0.94020  0.66409  0.31119  1.0000
  C   C495      1.0  0.96255  0.60472  0.37899  1.0000
  H   H803      1.0  0.78183  0.65762  0.17633  1.0000
  S   S203      1.0  0.93635  0.67171  0.41002  1.0000
  Fe  Fe99      1.0  0.94414  0.64843  0.37302  1.0000
  Fe  Fe100     1.0  0.93611  0.68889  0.34781  1.0000
  S   S204      1.0  0.90944  0.70354  0.32935  1.0000
  Fe  Fe101     1.0  0.75405  0.68195  0.40060  1.0000
  S   S205      1.0  0.75449  0.65030  0.41983  1.0000
  S   S206      1.0  0.76026  0.70349  0.45129  1.0000
  Fe  Fe102     1.0  0.74932  0.67386  0.30878  1.0000
  S   S207      1.0  0.74895  0.64141  0.32093  1.0000
  S   S208      1.0  0.74915  0.68720  0.24215  1.0000
  Fe  Fe103     1.0  0.72567  0.64049  0.37790  1.0000
  S   S209      1.0  0.69466  0.61474  0.40569  1.0000
  Fe  Fe104     1.0  0.77786  0.65430  0.36140  1.0000
  S   S210      1.0  0.80786  0.64211  0.36363  1.0000
  S   S211      1.0  0.72334  0.67197  0.36244  1.0000
  S   S212      1.0  0.78007  0.68692  0.34530  1.0000
  H   H804      1.0  0.80978  0.62533  0.12186  1.0000
  S   S213      1.0  0.50690  0.53893  0.34948  1.0000
  S   S214      1.0  0.70002  0.61893  0.12810  1.0000
  C   C496      1.0  0.85018  0.64488  0.04047  1.0000
  C   C497      1.0  0.95565  0.61259  0.53354  1.0000
  H   H805      1.0  0.51243  0.55454  0.53603  1.0000
  H   H806      1.0  0.54455  0.53004  0.51488  1.0000
  H   H807      1.0  0.95238  0.66092  0.52623  1.0000
  Fe  Fe105     1.0  0.59266  0.57665  0.30132  1.0000
  S   S215      1.0  0.59787  0.60906  0.31356  1.0000
  S   S216      1.0  0.62522  0.57189  0.27671  1.0000
  Fe  Fe106     1.0  0.54164  0.56240  0.32846  1.0000
  S   S217      1.0  0.54299  0.59399  0.34173  1.0000
  Fe  Fe107     1.0  0.56536  0.60492  0.28112  1.0000
  S   S218      1.0  0.55982  0.62933  0.23513  1.0000
  Fe  Fe108     1.0  0.57531  0.59510  0.37283  1.0000
  S   S219      1.0  0.58014  0.60774  0.43607  1.0000
  S   S220      1.0  0.56137  0.57317  0.26479  1.0000
  S   S221      1.0  0.57277  0.56285  0.36344  1.0000
  H   H808      1.0  0.80704  0.71678  0.40777  1.0000
  C   C498      1.0  0.58985  0.59384  0.47566  1.0000
  C   C499      1.0  0.60065  0.57966  0.46544  1.0000
  H   H809      1.0  0.55283  0.55717  0.51559  1.0000
  H   H810      1.0  0.66226  0.70079  0.12345  1.0000
  H   H811      1.0  0.60342  0.57731  0.43286  1.0000
  H   H812      1.0  0.61636  0.55755  0.48927  1.0000
  S   S222      1.0  0.92363  0.61569  0.39267  1.0000
  C   C500      1.0  0.61235  0.66080  0.12311  1.0000
  C   C501      1.0  0.61787  0.64815  0.15484  1.0000
  C   C502      1.0  0.60199  0.63854  0.18950  1.0000
  C   C503      1.0  0.58049  0.64161  0.19277  1.0000
  C   C504      1.0  0.57522  0.65468  0.16161  1.0000
  C   C505      1.0  0.59108  0.66424  0.12686  1.0000
  H   H813      1.0  0.63442  0.64570  0.15248  1.0000
  H   H814      1.0  0.60630  0.62875  0.21369  1.0000
  H   H815      1.0  0.55866  0.65722  0.16410  1.0000
  H   H816      1.0  0.58665  0.67399  0.10270  1.0000
  H   H817      1.0  0.65493  0.66730  0.44203  1.0000
  C   C506      1.0  0.93935  0.59849  0.39417  1.0000
  C   C507      1.0  0.96413  0.57060  0.39865  1.0000
  C   C508      1.0  0.67669  0.60133  0.36946  1.0000
  C   C509      1.0  0.65455  0.58858  0.38405  1.0000
  C   C510      1.0  0.63893  0.57924  0.35552  1.0000
  C   C511      1.0  0.64564  0.58197  0.31242  1.0000
  C   C512      1.0  0.66813  0.59395  0.29792  1.0000
  C   C513      1.0  0.68356  0.60398  0.32633  1.0000
  H   H818      1.0  0.64928  0.58625  0.41742  1.0000
  H   H819      1.0  0.62176  0.56967  0.36695  1.0000
  H   H820      1.0  0.67338  0.59582  0.26469  1.0000
  H   H821      1.0  0.70070  0.61370  0.31489  1.0000
  C   C514      1.0  0.71372  0.63816  0.15920  1.0000
  C   C515      1.0  0.70677  0.63593  0.20218  1.0000
  C   C516      1.0  0.71780  0.65084  0.22798  1.0000
  C   C517      1.0  0.73551  0.66826  0.21056  1.0000
  C   C518      1.0  0.74231  0.67065  0.16745  1.0000
  C   C519      1.0  0.73159  0.65551  0.14186  1.0000
  H   H822      1.0  0.69294  0.62259  0.21562  1.0000
  H   H823      1.0  0.71236  0.64898  0.26124  1.0000
  H   H824      1.0  0.75610  0.68410  0.15401  1.0000
  H   H825      1.0  0.73684  0.65751  0.10860  1.0000
  C   C520      1.0  0.73619  0.70639  0.47968  1.0000
  C   C521      1.0  0.73935  0.71578  0.51715  1.0000
  H   H826      1.0  0.82191  0.59377  0.04612  1.0000
  H   H827      1.0  0.92928  0.56663  0.27682  1.0000
  H   H828      1.0  0.88953  0.67883  0.21776  1.0000
  C   C522      1.0  0.88128  0.68628  0.33708  1.0000
  C   C523      1.0  0.87732  0.66634  0.35548  1.0000
  C   C524      1.0  0.85472  0.65284  0.36282  1.0000
  C   C525      1.0  0.83597  0.65917  0.35180  1.0000
  C   C526      1.0  0.83994  0.67897  0.33245  1.0000
  C   C527      1.0  0.86259  0.69253  0.32514  1.0000
  H   H829      1.0  0.89164  0.66132  0.36448  1.0000
  H   H830      1.0  0.85174  0.63749  0.37753  1.0000
  H   H831      1.0  0.82561  0.68379  0.32291  1.0000
  H   H832      1.0  0.86563  0.70789  0.31047  1.0000
  C   C528      1.0  0.96407  0.63766  0.16179  1.0000
  H   H833      1.0  0.92229  0.61251  0.48287  1.0000
  C   C529      1.0  0.82422  0.71241  0.48261  1.0000
  C   C530      1.0  0.92688  0.62530  0.50307  1.0000
  H   H834      1.0  0.70239  0.72117  0.05970  1.0000
  C   C531      1.0  0.96016  0.63316  0.20559  1.0000
  H   H835      1.0  0.77830  0.65193  0.12271  1.0000
  H   H836      1.0  0.69001  0.67225  0.15819  1.0000
  H   H837      1.0  0.94818  0.61867  0.21876  1.0000
  H   H838      1.0  0.65268  0.61855  0.16017  1.0000
  H   H839      1.0  0.81391  0.63296  0.19692  1.0000
  H   H840      1.0  0.92842  0.65901  0.21862  1.0000
  H   H841      1.0  0.67409  0.64143  0.35764  1.0000
  N   N50       1.0  0.62883  0.59003  0.14665  1.0000
  C   C532      1.0  0.61583  0.56995  0.16959  1.0000
  C   C533      1.0  0.64460  0.58732  0.11280  1.0000
  C   C534      1.0  0.64239  0.60333  0.17638  1.0000
  C   C535      1.0  0.61251  0.59949  0.12792  1.0000
  H   H842      1.0  0.60366  0.57149  0.19519  1.0000
  H   H843      1.0  0.62762  0.56259  0.18492  1.0000
  H   H844      1.0  0.60559  0.55933  0.14824  1.0000
  C   C536      1.0  0.84620  0.62386  0.04810  1.0000
  H   H845      1.0  0.65754  0.58068  0.12592  1.0000
  H   H846      1.0  0.83697  0.73186  0.40468  1.0000
  H   H847      1.0  0.97228  0.55576  0.30631  1.0000
  H   H848      1.0  0.65476  0.59651  0.19123  1.0000
  H   H849      1.0  0.63106  0.60568  0.20245  1.0000
  C   C537      1.0  0.52697  0.56429  0.45402  1.0000
  H   H850      1.0  0.60035  0.60180  0.15258  1.0000
  H   H851      1.0  0.71157  0.69952  0.05196  1.0000
  H   H852      1.0  0.63508  0.57707  0.09010  1.0000
  C   C538      1.0  0.92852  0.57829  0.41140  1.0000
  C   C539      1.0  0.58675  0.59703  0.51804  1.0000
  C   C540      1.0  0.96863  0.55616  0.27239  1.0000
  H   H853      1.0  0.75076  0.62515  0.19940  1.0000
  C   C541      1.0  0.82496  0.71595  0.40670  1.0000
  H   H854      1.0  0.61319  0.64165  0.36799  1.0000
  H   H855      1.0  0.96268  0.62609  0.45086  1.0000
  C   C542      1.0  0.82490  0.61002  0.04017  1.0000
  H   H856      1.0  0.65445  0.60218  0.09451  1.0000
  H   H857      1.0  0.67857  0.66019  0.42047  1.0000
  H   H858      1.0  0.94807  0.57702  0.31616  1.0000
  H   H859      1.0  0.74803  0.61878  0.14607  1.0000
  H   H860      1.0  0.78187  0.61921  0.10156  1.0000
  H   H861      1.0  0.90751  0.70314  0.23107  1.0000
  C   C543      1.0  0.94583  0.57840  0.28183  1.0000
  H   H862      1.0  0.57842  0.60801  0.52611  1.0000
  N   N51       1.0  0.92497  0.68749  0.19275  1.0000
  C   C544      1.0  0.92456  0.66632  0.18868  1.0000
  C   C545      1.0  0.94797  0.69962  0.20435  1.0000
  C   C546      1.0  0.90719  0.68737  0.22586  1.0000
  C   C547      1.0  0.92016  0.69663  0.15205  1.0000
  H   H863      1.0  0.52828  0.52940  0.42536  1.0000
  H   H864      1.0  0.90993  0.68006  0.25671  1.0000
  H   H865      1.0  0.90743  0.65666  0.18020  1.0000
  H   H866      1.0  0.96188  0.69992  0.18031  1.0000
  H   H867      1.0  0.94893  0.71569  0.20784  1.0000
  Fe  Fe109     1.0  0.97804  0.68031  0.31158  1.0000
  C   C548      1.0  0.71960  0.70852  0.13018  1.0000
  Fe  Fe110     1.0  0.94158  0.63304  0.06825  1.0000
  Fe  Fe111     1.0  0.97484  0.68699  0.40463  1.0000
  H   H868      1.0  0.91986  0.71248  0.15417  1.0000
  H   H869      1.0  0.90319  0.68757  0.14168  1.0000
  H   H870      1.0  0.93353  0.69731  0.12656  1.0000
  H   H871      1.0  0.95136  0.59973  0.51348  1.0000
  H   H872      1.0  0.79175  0.60923  0.21433  1.0000
  H   H873      1.0  0.95292  0.54302  0.26950  1.0000
  H   H874      1.0  0.81427  0.67224  0.47249  1.0000
  H   H875      1.0  0.67164  0.66948  0.11548  1.0000
  H   H876      1.0  0.65361  0.67209  0.53805  1.0000
  H   H877      1.0  0.55949  0.54662  0.46910  1.0000
  N   N52       1.0  0.78278  0.62778  0.16480  1.0000
  C   C549      1.0  0.79097  0.61802  0.13063  1.0000
  C   C550      1.0  0.78751  0.64970  0.15107  1.0000
  H   H878      1.0  0.86514  0.71792  0.43870  1.0000
  C   C551      1.0  0.75769  0.61784  0.17447  1.0000
  C   C552      1.0  0.97103  0.64765  0.23241  1.0000
  N   N53       1.0  0.69670  0.69926  0.11446  1.0000
  C   C553      1.0  0.49925  0.51373  0.33569  1.0000
  C   C554      1.0  0.96636  0.63791  0.47327  1.0000
  H   H879      1.0  0.85544  0.69327  0.46905  1.0000
  H   H880      1.0  0.78905  0.63277  0.22941  1.0000
  H   H881      1.0  0.95220  0.69320  0.23490  1.0000
  C   C555      1.0  0.97877  0.65685  0.14479  1.0000
  H   H882      1.0  0.54005  0.56695  0.42706  1.0000
  H   H883      1.0  0.93240  0.54871  0.42669  1.0000
  N   N54       1.0  0.52389  0.54465  0.47948  1.0000
  H   H884      1.0  0.60197  0.58982  0.10540  1.0000
  H   H885      1.0  0.82628  0.70314  0.51147  1.0000
  C   C556      1.0  0.65797  0.64509  0.35204  1.0000
  C   C557      1.0  0.81184  0.68243  0.44553  1.0000
  C   C558      1.0  0.71412  0.69995  0.46506  1.0000
  C   C559      1.0  0.79493  0.62559  0.20300  1.0000
  H   H886      1.0  0.66269  0.65903  0.32911  1.0000
  H   H887      1.0  0.64658  0.63222  0.33668  1.0000
  H   H888      1.0  0.75348  0.60136  0.18574  1.0000
  C   C560      1.0  0.69547  0.70326  0.48742  1.0000
  C   C561      1.0  0.68949  0.67683  0.12406  1.0000
  C   C562      1.0  0.50673  0.54199  0.51542  1.0000
  H   H889      1.0  0.78786  0.60148  0.13982  1.0000
  H   H890      1.0  0.83636  0.72816  0.48263  1.0000
  C   C563      1.0  0.60801  0.56851  0.49745  1.0000
  N   N55       1.0  0.64670  0.64806  0.39187  1.0000
  C   C564      1.0  0.63987  0.62887  0.42037  1.0000
  H   H891      1.0  0.62850  0.61598  0.40506  1.0000
  C   C565      1.0  0.54614  0.54460  0.49547  1.0000
  H   H892      1.0  0.63026  0.63016  0.44986  1.0000
  C   C566      1.0  0.66301  0.66438  0.41233  1.0000
  H   H893      1.0  0.91054  0.57340  0.42311  1.0000
  H   H894      1.0  0.70067  0.67015  0.10572  1.0000
  H   H895      1.0  0.80635  0.71338  0.48537  1.0000
  C   C567      1.0  0.69866  0.71267  0.52491  1.0000
  H   H896      1.0  0.51067  0.56470  0.44041  1.0000
  H   H897      1.0  0.79371  0.68250  0.44895  1.0000
  C   C568      1.0  0.69809  0.70444  0.06832  1.0000
  C   C569      1.0  0.62595  0.65380  0.38289  1.0000
  H   H898      1.0  0.61693  0.65602  0.41229  1.0000
  H   H899      1.0  0.63032  0.66815  0.36123  1.0000
  S   S223      1.0  0.63219  0.67131  0.07868  1.0000
  N   N56       1.0  0.82832  0.70331  0.44399  1.0000
  H   H900      1.0  0.51329  0.51264  0.47096  1.0000
  C   C570      1.0  0.96088  0.57571  0.21191  1.0000
  H   H901      1.0  0.66906  0.67901  0.39132  1.0000
  H   H902      1.0  0.80625  0.65761  0.14276  1.0000
  H   H903      1.0  0.75637  0.72091  0.52856  1.0000
  H   H904      1.0  0.53001  0.51826  0.29540  1.0000
  Fe  Fe112     1.0  0.71598  0.62216  0.06193  1.0000
  H   H905      1.0  0.93762  0.66585  0.16374  1.0000
  N   N57       1.0  0.96550  0.57577  0.25696  1.0000
  H   H906      1.0  0.49902  0.52732  0.44013  1.0000
  H   H907      1.0  0.71938  0.70461  0.16486  1.0000
  C   C571      1.0  0.94088  0.56435  0.41353  1.0000
  H   H908      1.0  0.73289  0.70306  0.11469  1.0000
  C   C572      1.0  0.51575  0.52772  0.45299  1.0000
  S   S224      1.0  0.94031  0.66501  0.06642  1.0000
  H   H909      1.0  0.85555  0.69513  0.41280  1.0000
  H   H910      1.0  0.68460  0.72413  0.12864  1.0000
  H   H911      1.0  0.72544  0.72546  0.12383  1.0000
  H   H912      1.0  0.95860  0.59033  0.19908  1.0000
  H   H913      1.0  0.82797  0.70960  0.37694  1.0000
  C   C573      1.0  0.85216  0.70241  0.44109  1.0000
  C   C574      1.0  0.51364  0.50751  0.30839  1.0000
  H   H914      1.0  0.53298  0.57747  0.47292  1.0000
  H   H915      1.0  0.81384  0.67533  0.41628  1.0000
  H   H916      1.0  0.67791  0.70326  0.16987  1.0000
  H   H917      1.0  0.94392  0.59365  0.27369  1.0000
  N   N58       1.0  0.95133  0.63077  0.51270  1.0000
  H   H918      1.0  0.92316  0.63839  0.48569  1.0000
  H   H919      1.0  0.94495  0.56320  0.20690  1.0000
  S   S225      1.0  0.97902  0.55274  0.39978  1.0000
  C   C575      1.0  0.97496  0.59083  0.38157  1.0000
  S   S226      1.0  0.97388  0.70647  0.34475  1.0000
  H   H920      1.0  0.62174  0.61468  0.11028  1.0000
  S   S227      1.0  0.87696  0.66251  0.04876  1.0000
  H   H921      1.0  0.85949  0.61824  0.06034  1.0000
  H   H922      1.0  0.91510  0.62043  0.53233  1.0000
  H   H923      1.0  0.96802  0.64394  0.26622  1.0000
  H   H924      1.0  0.96382  0.65183  0.45742  1.0000
  H   H925      1.0  0.50398  0.52733  0.53538  1.0000
  H   H926      1.0  0.48974  0.54200  0.50438  1.0000
  H   H927      1.0  0.62953  0.64963  0.53350  1.0000
  H   H928      1.0  0.97542  0.57371  0.19242  1.0000
  H   H929      1.0  0.68141  0.69675  0.05513  1.0000
  S   S228      1.0  0.90778  0.62031  0.03953  1.0000
  S   S229      1.0  0.75311  0.63906  0.04277  1.0000
  H   H930      1.0  0.97296  0.66681  0.90858  1.0000
  H   H931      1.0  0.72809  0.65949  0.82365  1.0000
  H   H932      1.0  0.68333  0.69834  0.97244  1.0000
  Fe  Fe113     1.0  0.92906  0.62882  0.97719  1.0000
  S   S230      1.0  0.92102  0.61180  0.91961  1.0000
  S   S231      1.0  0.92650  0.66039  0.96898  1.0000
  Fe  Fe114     1.0  0.70520  0.60998  0.97339  1.0000
  S   S232      1.0  0.74180  0.62560  0.94672  1.0000
  S   S233      1.0  0.67266  0.59668  0.94034  1.0000
  Fe  Fe115     1.0  0.75197  0.61251  0.00689  1.0000
  Fe  Fe116     1.0  0.65757  0.72482  0.95705  1.0000
  Fe  Fe117     1.0  0.74001  0.65084  0.98494  1.0000
  S   S234      1.0  0.75630  0.68316  0.95649  1.0000
  Fe  Fe118     1.0  0.67826  0.72716  0.61745  1.0000
  S   S235      1.0  0.70854  0.72989  0.65657  1.0000
  H   H933      1.0  0.70382  0.65573  0.79236  1.0000
  Fe  Fe119     1.0  0.64686  0.72929  0.69470  1.0000
  H   H934      1.0  0.66779  0.74688  0.82257  1.0000
  C   C576      1.0  0.70918  0.65175  0.82387  1.0000
  Fe  Fe120     1.0  0.68258  0.70771  0.70417  1.0000
  S   S236      1.0  0.68428  0.67854  0.73820  1.0000
  S   S237      1.0  0.65318  0.70382  0.66360  1.0000
  S   S238      1.0  0.96274  0.63799  0.00666  1.0000
  H   H935      1.0  0.66231  0.52666  0.64652  1.0000
  C   C577      1.0  0.85197  0.61984  0.87684  1.0000
  C   C578      1.0  0.73007  0.72572  0.90655  1.0000
  H   H936      1.0  0.95252  0.59001  0.79491  1.0000
  Fe  Fe121     1.0  0.60616  0.71156  0.95888  1.0000
  H   H937      1.0  0.72279  0.66020  0.90102  1.0000
  H   H938      1.0  0.70118  0.63558  0.90406  1.0000
  Fe  Fe122     1.0  0.62465  0.56228  0.73170  1.0000
  S   S239      1.0  0.59247  0.56376  0.76591  1.0000
  S   S240      1.0  0.66003  0.56749  0.75659  1.0000
  Fe  Fe123     1.0  0.60289  0.55896  0.64697  1.0000
  S   S241      1.0  0.56921  0.56097  0.67389  1.0000
  H   H939      1.0  0.97507  0.65270  0.54643  1.0000
  Fe  Fe124     1.0  0.59127  0.58519  0.71037  1.0000
  S   S242      1.0  0.58703  0.61552  0.72034  1.0000
  Fe  Fe125     1.0  0.57316  0.53909  0.72712  1.0000
  S   S243      1.0  0.54255  0.51327  0.75838  1.0000
  S   S244      1.0  0.62442  0.58521  0.67801  1.0000
  S   S245      1.0  0.60556  0.53548  0.69793  1.0000
  S   S246      1.0  0.57816  0.70356  0.91429  1.0000
  C   C579      1.0  0.70106  0.68030  0.85202  1.0000
  H   H940      1.0  0.56746  0.71837  0.76580  1.0000
  S   S247      1.0  0.94694  0.52693  0.66294  1.0000
  H   H941      1.0  0.56736  0.64100  0.77936  1.0000
  H   H942      1.0  0.66137  0.65139  0.88292  1.0000
  H   H943      1.0  0.84148  0.61144  0.85262  1.0000
  C   C580      1.0  0.60271  0.72028  0.77437  1.0000
  C   C581      1.0  0.58819  0.71088  0.86092  1.0000
  C   C582      1.0  0.67334  0.57801  0.63002  1.0000
  C   C583      1.0  0.65656  0.66056  0.74230  1.0000
  C   C584      1.0  0.63714  0.66701  0.74011  1.0000
  C   C585      1.0  0.61562  0.65307  0.73430  1.0000
  C   C586      1.0  0.61318  0.63238  0.73352  1.0000
  C   C587      1.0  0.63204  0.62559  0.74103  1.0000
  C   C588      1.0  0.65385  0.63970  0.74451  1.0000
  H   H944      1.0  0.63879  0.68290  0.74171  1.0000
  H   H945      1.0  0.60108  0.65846  0.72919  1.0000
  H   H946      1.0  0.63002  0.60951  0.74330  1.0000
  H   H947      1.0  0.66866  0.63448  0.74756  1.0000
  H   H948      1.0  0.67104  0.58067  0.66366  1.0000
  S   S248      1.0  0.65772  0.72624  0.02657  1.0000
  H   H949      1.0  0.69447  0.65631  0.92539  1.0000
  C   C589      1.0  0.95649  0.59665  0.82412  1.0000
  C   C590      1.0  0.61130  0.71428  0.84723  1.0000
  C   C591      1.0  0.83260  0.65200  0.02580  1.0000
  H   H950      1.0  0.71472  0.57241  0.63189  1.0000
  S   S249      1.0  0.61313  0.55651  0.57925  1.0000
  C   C592      1.0  0.73756  0.69732  0.94622  1.0000
  C   C593      1.0  0.71535  0.69152  0.96649  1.0000
  H   H951      1.0  0.84641  0.63340  0.88140  1.0000
  H   H952      1.0  0.83558  0.66826  0.01982  1.0000
  S   S250      1.0  0.67489  0.73186  0.73794  1.0000
  H   H953      1.0  0.71974  0.68874  0.85311  1.0000
  H   H954      1.0  0.94223  0.69058  0.87361  1.0000
  C   C594      1.0  0.67026  0.58942  0.88853  1.0000
  C   C595      1.0  0.68928  0.58927  0.86259  1.0000
  C   C596      1.0  0.68609  0.58270  0.82198  1.0000
  C   C597      1.0  0.66395  0.57648  0.80698  1.0000
  C   C598      1.0  0.64516  0.57718  0.83268  1.0000
  C   C599      1.0  0.64829  0.58352  0.87320  1.0000
  H   H955      1.0  0.70629  0.59373  0.87414  1.0000
  H   H956      1.0  0.70074  0.58218  0.80238  1.0000
  H   H957      1.0  0.62806  0.57232  0.82187  1.0000
  H   H958      1.0  0.63348  0.58355  0.89304  1.0000
  H   H959      1.0  0.55457  0.70958  0.84170  1.0000
  S   S251      1.0  0.61095  0.72669  0.71995  1.0000
  C   C600      1.0  0.66096  0.66190  0.61792  1.0000
  C   C601      1.0  0.81141  0.63817  0.01737  1.0000
  Fe  Fe126     1.0  0.62863  0.69660  0.03207  1.0000
  H   H960      1.0  0.76212  0.71911  0.90088  1.0000
  C   C602      1.0  0.80751  0.61715  0.02450  1.0000
  H   H961      1.0  0.63961  0.62266  0.60564  1.0000
  H   H962      1.0  0.79834  0.64386  0.00438  1.0000
  S   S252      1.0  0.71541  0.59437  0.03047  1.0000
  H   H963      1.0  0.70966  0.67844  0.98983  1.0000
  C   C603      1.0  0.94368  0.60823  0.88811  1.0000
  C   C604      1.0  0.93894  0.59999  0.84964  1.0000
  C   C605      1.0  0.74495  0.71453  0.91656  1.0000
  S   S253      1.0  0.63110  0.69389  0.96235  1.0000
  H   H964      1.0  0.57581  0.64639  0.91050  1.0000
  N   N59       1.0  0.63955  0.65375  0.59657  1.0000
  H   H965      1.0  0.92158  0.59595  0.83967  1.0000
  H   H966      1.0  0.96549  0.51636  0.74034  1.0000
  C   C606      1.0  0.67143  0.64739  0.85703  1.0000
  C   C607      1.0  0.57193  0.63592  0.88523  1.0000
  C   C608      1.0  0.70052  0.70288  0.95690  1.0000
  H   H967      1.0  0.70600  0.63496  0.82755  1.0000
  H   H968      1.0  0.69150  0.68541  0.87697  1.0000
  C   C609      1.0  0.57244  0.71218  0.83133  1.0000
  N   N60       1.0  0.69643  0.65795  0.85789  1.0000
  N   N61       1.0  0.57247  0.64731  0.84367  1.0000
  H   H969      1.0  0.58489  0.62767  0.88517  1.0000
  H   H970      1.0  0.82194  0.58951  0.96355  1.0000
  N   N62       1.0  0.84922  0.60665  0.91691  1.0000
  C   C610      1.0  0.85695  0.58895  0.90965  1.0000
  C   C611      1.0  0.86332  0.61849  0.94806  1.0000
  H   H971      1.0  0.85568  0.57896  0.93951  1.0000
  H   H972      1.0  0.87530  0.59391  0.89674  1.0000
  H   H973      1.0  0.84644  0.57944  0.88688  1.0000
  H   H974      1.0  0.81345  0.59025  0.91059  1.0000
  H   H975      1.0  0.87032  0.62552  0.86377  1.0000
  H   H976      1.0  0.86254  0.60879  0.97806  1.0000
  H   H977      1.0  0.85738  0.63151  0.95568  1.0000
  H   H978      1.0  0.88181  0.62491  0.93623  1.0000
  N   N63       1.0  0.67836  0.55869  0.62660  1.0000
  H   H979      1.0  0.66506  0.55499  0.56560  1.0000
  C   C612      1.0  0.68109  0.55569  0.58158  1.0000
  C   C613      1.0  0.65907  0.54151  0.64794  1.0000
  H   H980      1.0  0.94521  0.60716  0.56428  1.0000
  H   H981      1.0  0.97006  0.61956  0.93030  1.0000
  H   H982      1.0  0.97414  0.67254  0.79226  1.0000
  C   C614      1.0  0.70789  0.71994  0.92675  1.0000
  H   H983      1.0  0.73579  0.73890  0.88321  1.0000
  H   H984      1.0  0.65728  0.66101  0.65265  1.0000
  C   C615      1.0  0.62828  0.63201  0.61219  1.0000
  H   H985      1.0  0.62354  0.71307  0.86988  1.0000
  H   H986      1.0  0.63601  0.72045  0.79359  1.0000
  H   H987      1.0  0.65628  0.54344  0.68189  1.0000
  H   H988      1.0  0.69799  0.56180  0.68110  1.0000
  Fe  Fe127     1.0  0.90798  0.65277  0.03349  1.0000
  H   H989      1.0  0.97644  0.65532  0.86152  1.0000
  C   C616      1.0  0.95094  0.50417  0.68443  1.0000
  H   H990      1.0  0.67324  0.65334  0.61238  1.0000
  Fe  Fe128     1.0  0.95886  0.66910  0.00263  1.0000
  H   H991      1.0  0.53734  0.64725  0.85190  1.0000
  H   H992      1.0  0.59642  0.67211  0.80319  1.0000
  C   C617      1.0  0.59569  0.66234  0.83315  1.0000
  S   S254      1.0  0.78135  0.59952  0.01309  1.0000
  S   S255      1.0  0.68943  0.73388  0.91309  1.0000
  H   H993      1.0  0.66503  0.65164  0.82673  1.0000
  H   H994      1.0  0.59086  0.58777  0.58288  1.0000
  H   H995      1.0  0.66741  0.63048  0.86080  1.0000
  H   H996      1.0  0.55822  0.66858  0.87045  1.0000
  C   C618      1.0  0.82468  0.59935  0.93307  1.0000
  H   H997      1.0  0.97407  0.61596  0.54010  1.0000
  C   C619      1.0  0.96621  0.61334  0.90068  1.0000
  C   C620      1.0  0.69977  0.55956  0.64703  1.0000
  H   H998      1.0  0.94873  0.65689  0.87816  1.0000
  H   H999      1.0  0.81819  0.61230  0.93872  1.0000
  H   H1000     1.0  0.64267  0.54027  0.63303  1.0000
  C   C621      1.0  0.70407  0.65227  0.89892  1.0000
  H   H1001     1.0  0.60069  0.67267  0.85834  1.0000
  H   H1002     1.0  0.97092  0.69730  0.78735  1.0000
  C   C622      1.0  0.55515  0.65810  0.84525  1.0000
  C   C623      1.0  0.56713  0.63293  0.81116  1.0000
  H   H1003     1.0  0.54979  0.62129  0.81805  1.0000
  S   S256      1.0  0.96223  0.58198  0.70841  1.0000
  C   C624      1.0  0.96056  0.50311  0.72306  1.0000
  H   H1004     1.0  0.60907  0.65471  0.82932  1.0000
  N   N64       1.0  0.97332  0.68536  0.85084  1.0000
  C   C625      1.0  0.59379  0.58562  0.55017  1.0000
  S   S257      1.0  0.70284  0.63638  0.00747  1.0000
  H   H1005     1.0  0.55571  0.66754  0.81492  1.0000
  H   H1006     1.0  0.55467  0.62443  0.89422  1.0000
  H   H1007     1.0  0.69578  0.68527  0.82116  1.0000
  H   H1008     1.0  0.94693  0.67530  0.80800  1.0000
  H   H1009     1.0  0.70405  0.54518  0.64527  1.0000
  C   C626      1.0  0.57972  0.71707  0.78835  1.0000
  Fe  Fe129     1.0  0.63051  0.74134  0.01868  1.0000
  S   S258      1.0  0.60109  0.71174  0.02939  1.0000
  H   H1010     1.0  0.57990  0.62455  0.80890  1.0000
  H   H1011     1.0  0.62395  0.63005  0.64689  1.0000
  H   H1012     1.0  0.68754  0.59134  0.61436  1.0000
  H   H1013     1.0  0.61922  0.66445  0.64011  1.0000
  C   C627      1.0  0.61842  0.71854  0.80392  1.0000
  H   H1014     1.0  0.65724  0.57782  0.61494  1.0000
  H   H1015     1.0  0.61186  0.62543  0.59732  1.0000
  C   C628      1.0  0.62366  0.66538  0.60557  1.0000
  Fe  Fe130     1.0  0.97124  0.55646  0.68010  1.0000
  H   H1016     1.0  0.68478  0.54120  0.57771  1.0000
  S   S259      1.0  0.63293  0.74246  0.94826  1.0000
  C   C629      1.0  0.97892  0.60141  0.83701  1.0000
  S   S260      1.0  0.67483  0.71669  0.55184  1.0000
  C   C630      1.0  0.96759  0.66523  0.87588  1.0000
  C   C631      1.0  0.95645  0.64734  0.54057  1.0000
  H   H1017     1.0  0.96514  0.71327  0.85241  1.0000
  C   C632      1.0  0.96592  0.68251  0.80778  1.0000
  H   H1018     1.0  0.67007  0.67824  0.60644  1.0000
  H   H1019     1.0  0.96663  0.70081  0.90314  1.0000
  H   H1020     1.0  0.94647  0.64229  0.57179  1.0000
  C   C633      1.0  0.96126  0.69804  0.87081  1.0000
  H   H1021     1.0  0.72335  0.72622  0.56843  1.0000
  H   H1022     1.0  0.60719  0.65948  0.59047  1.0000
  H   H1023     1.0  0.69542  0.56843  0.56431  1.0000
  H   H1024     1.0  0.63148  0.68185  0.59364  1.0000
  C   C634      1.0  0.64527  0.65576  0.55057  1.0000
  H   H1025     1.0  0.65750  0.64741  0.54265  1.0000
  C   C635      1.0  0.72063  0.71877  0.53988  1.0000
  C   C636      1.0  0.60439  0.57128  0.53989  1.0000
  H   H1026     1.0  0.59614  0.83498  0.06350  1.0000
  Fe  Fe131     1.0  0.65128  0.90035  0.08961  1.0000
  H   H1027     1.0  0.63100  0.81931  0.11345  1.0000
  S   S261      1.0  0.64013  0.89205  0.15915  1.0000
  H   H1028     1.0  0.48968  0.98769  0.42679  1.0000
  C   C637      1.0  0.61199  0.83918  0.16385  1.0000
  H   H1029     1.0  0.76061  0.94873  0.10374  1.0000
  H   H1030     1.0  0.57306  0.80715  0.16892  1.0000
  H   H1031     1.0  0.60421  0.85115  0.17118  1.0000
  H   H1032     1.0  0.53980  0.94853  0.25716  1.0000
  Fe  Fe132     1.0  0.56712  0.95290  0.36621  1.0000
  S   S262      1.0  0.59109  0.93412  0.36634  1.0000
  H   H1033     1.0  0.60508  0.80437  0.09261  1.0000
  C   C638      1.0  0.48529  0.97046  0.29602  1.0000
  S   S263      1.0  0.67497  0.92978  0.05650  1.0000
  H   H1034     1.0  0.61016  0.82871  0.19314  1.0000
  Fe  Fe133     1.0  0.61556  0.96117  0.32619  1.0000
  S   S264      1.0  0.63497  0.96486  0.26261  1.0000
  Fe  Fe134     1.0  0.60525  0.95088  0.42150  1.0000
  S   S265      1.0  0.61095  0.93770  0.48523  1.0000
  H   H1035     1.0  0.57809  0.95038  0.16120  1.0000
  H   H1036     1.0  0.74155  0.89747  0.50634  1.0000
  C   C639      1.0  0.51307  0.94950  0.33371  1.0000
  H   H1037     1.0  0.53029  0.91412  0.23253  1.0000
  C   C640      1.0  0.58335  0.94474  0.19154  1.0000
  S   S266      1.0  0.66827  0.88154  0.05426  1.0000
  C   C641      1.0  0.54530  0.92028  0.20859  1.0000
  H   H1038     1.0  0.48814  0.96841  0.39208  1.0000
  C   C642      1.0  0.62367  0.95802  0.51459  1.0000
  H   H1039     1.0  0.48874  0.96247  0.44766  1.0000
  C   C643      1.0  0.57149  0.92939  0.26308  1.0000
  C   C644      1.0  0.75572  0.99552  0.52370  1.0000
  H   H1040     1.0  0.65217  0.97233  0.46832  1.0000
  N   N65       1.0  0.56366  0.93706  0.22386  1.0000
  H   H1041     1.0  0.59109  0.93264  0.18506  1.0000
  H   H1042     1.0  0.55168  0.90742  0.20171  1.0000
  C   C645      1.0  0.63814  0.91219  0.18776  1.0000
  C   C646      1.0  0.64521  0.93230  0.16873  1.0000
  C   C647      1.0  0.64422  0.94824  0.19225  1.0000
  C   C648      1.0  0.63582  0.94420  0.23479  1.0000
  C   C649      1.0  0.62823  0.92405  0.25374  1.0000
  C   C650      1.0  0.62950  0.90809  0.23028  1.0000
  H   H1043     1.0  0.65175  0.93564  0.13599  1.0000
  H   H1044     1.0  0.65007  0.96378  0.17734  1.0000
  H   H1045     1.0  0.62186  0.92082  0.28662  1.0000
  H   H1046     1.0  0.62408  0.89257  0.24524  1.0000
  H   H1047     1.0  0.62303  0.85009  0.08054  1.0000
  C   C651      1.0  0.50864  0.98065  0.30041  1.0000
  S   S267      1.0  0.63612  0.76886  0.05472  1.0000
  N   N66       1.0  0.75912  0.97044  0.05251  1.0000
  H   H1048     1.0  0.67504  0.99823  0.29880  1.0000
  C   C652      1.0  0.55448  0.95379  0.23245  1.0000
  S   S268      1.0  0.63247  0.97589  0.38143  1.0000
  H   H1049     1.0  0.59702  0.85507  0.09609  1.0000
  H   H1050     1.0  0.71989  0.93132  0.48668  1.0000
  C   C653      1.0  0.64426  0.97303  0.49891  1.0000
  S   S269      1.0  0.53008  0.93585  0.35644  1.0000
  H   H1051     1.0  0.73502  0.94800  0.52311  1.0000
  C   C654      1.0  0.77073  0.98839  0.07441  1.0000
  H   H1052     1.0  0.71135  0.89368  0.50168  1.0000
  H   H1053     1.0  0.72760  0.96041  0.09298  1.0000
  H   H1054     1.0  0.58571  0.94156  0.27478  1.0000
  C   C655      1.0  0.52249  0.97025  0.31954  1.0000
  C   C656      1.0  0.48974  0.93926  0.32913  1.0000
  C   C657      1.0  0.57621  0.81817  0.14008  1.0000
  H   H1055     1.0  0.76555  0.98557  0.10884  1.0000
  H   H1056     1.0  0.78461  0.95563  0.06450  1.0000
  H   H1057     1.0  0.56747  0.82962  0.14624  1.0000
  S   S270      1.0  0.57940  0.96761  0.42433  1.0000
  N   N67       1.0  0.60115  0.82809  0.12873  1.0000
  C   C658      1.0  0.61201  0.81240  0.12030  1.0000
  H   H1058     1.0  0.75703  0.93891  0.05347  1.0000
  H   H1059     1.0  0.60909  0.80061  0.14772  1.0000
  C   C659      1.0  0.72518  0.89685  0.52396  1.0000
  H   H1060     1.0  0.54816  0.95986  0.20371  1.0000
  H   H1061     1.0  0.55727  0.92398  0.28869  1.0000
  H   H1062     1.0  0.56764  0.80958  0.11419  1.0000
  S   S271      1.0  0.59060  0.97888  0.32279  1.0000
  H   H1063     1.0  0.53885  0.92555  0.17913  1.0000
  C   C660      1.0  0.73338  0.93336  0.50961  1.0000
  C   C661      1.0  0.60443  0.84267  0.09060  1.0000
  H   H1064     1.0  0.56790  0.96674  0.24390  1.0000
  C   C662      1.0  0.73386  0.96566  0.05937  1.0000
  C   C663      1.0  0.65504  0.98866  0.52332  1.0000
  H   H1065     1.0  0.63078  0.84716  0.15591  1.0000
  Fe  Fe135     1.0  0.60575  0.99168  0.38094  1.0000
  C   C664      1.0  0.73229  0.99333  0.52211  1.0000
  H   H1066     1.0  0.57815  0.91650  0.25811  1.0000
  H   H1067     1.0  0.54043  0.97826  0.32314  1.0000
  H   H1068     1.0  0.51600  0.99671  0.28925  1.0000
  H   H1069     1.0  0.48246  0.92316  0.33985  1.0000
  H   H1070     1.0  0.59737  0.95762  0.20198  1.0000
  H   H1071     1.0  0.78982  0.99245  0.07006  1.0000
  H   H1072     1.0  0.75010  0.93528  0.49172  1.0000
  C   C665      1.0  0.76568  0.95268  0.06938  1.0000
  H   H1073     1.0  0.72848  0.97926  0.05055  1.0000
  H   H1074     1.0  0.66215  0.81036  0.06045  1.0000
  S   S272      1.0  0.62310  0.89769  0.04592  1.0000
  C   C666      1.0  0.48184  0.97113  0.42359  1.0000
  H   H1075     1.0  0.72643  0.00040  0.49529  1.0000
  H   H1076     1.0  0.67107  0.00008  0.51107  1.0000
  H   H1077     1.0  0.72455  0.95344  0.04015  1.0000
  Fe  Fe136     1.0  0.68857  0.91080  0.01544  1.0000
  S   S273      1.0  0.66280  0.90851  0.96730  1.0000
  S   S274      1.0  0.72638  0.91841  0.99524  1.0000
  S   S275      1.0  0.64191  0.95521  0.98807  1.0000
  Fe  Fe137     1.0  0.71013  0.93640  0.68004  1.0000
  S   S276      1.0  0.68268  0.90627  0.67961  1.0000
  S   S277      1.0  0.70334  0.95932  0.63197  1.0000
  Fe  Fe138     1.0  0.73099  0.91984  0.75397  1.0000
  S   S278      1.0  0.70523  0.88835  0.75814  1.0000
  S   S279      1.0  0.75812  0.92566  0.80070  1.0000
  Fe  Fe139     1.0  0.71061  0.89218  0.68758  1.0000
  S   S280      1.0  0.70898  0.86847  0.64256  1.0000
  Fe  Fe140     1.0  0.67997  0.90544  0.74942  1.0000
  S   S281      1.0  0.64570  0.89556  0.78635  1.0000
  S   S282      1.0  0.73866  0.92249  0.68328  1.0000
  S   S283      1.0  0.70519  0.93668  0.75023  1.0000
  C   C667      1.0  0.72378  0.97270  0.59035  1.0000
  S   S284      1.0  0.71952  0.78319  0.70991  1.0000
  H   H1078     1.0  0.68881  0.80203  0.83636  1.0000
  H   H1079     1.0  0.64571  0.75773  0.76513  1.0000
  H   H1080     1.0  0.62980  0.90429  0.70152  1.0000
  H   H1081     1.0  0.68427  0.98196  0.83396  1.0000
  C   C668      1.0  0.68216  0.79848  0.80514  1.0000
  C   C669      1.0  0.63411  0.91570  0.78660  1.0000
  C   C670      1.0  0.64363  0.93357  0.75904  1.0000
  C   C671      1.0  0.63372  0.94929  0.75856  1.0000
  C   C672      1.0  0.61479  0.91365  0.81382  1.0000
  H   H1082     1.0  0.65839  0.93517  0.73758  1.0000
  H   H1083     1.0  0.64089  0.96284  0.73671  1.0000
  H   H1084     1.0  0.60734  0.89986  0.83514  1.0000
  C   C673      1.0  0.71129  0.84473  0.66262  1.0000
  C   C674      1.0  0.70235  0.82763  0.64068  1.0000
  C   C675      1.0  0.70452  0.80864  0.65519  1.0000
  C   C676      1.0  0.71615  0.80674  0.69118  1.0000
  C   C677      1.0  0.72533  0.82392  0.71286  1.0000
  C   C678      1.0  0.72258  0.84278  0.69906  1.0000
  C   C679      1.0  0.74589  0.91940  0.57250  1.0000
  H   H1085     1.0  0.69772  0.79564  0.63781  1.0000
  H   H1086     1.0  0.73471  0.82266  0.74030  1.0000
  H   H1087     1.0  0.72984  0.85596  0.71580  1.0000
  C   C680      1.0  0.64596  0.82866  0.02322  1.0000
  Fe  Fe141     1.0  0.64797  0.92591  0.01010  1.0000
  H   H1088     1.0  0.61044  0.93082  0.69130  1.0000
  H   H1089     1.0  0.60081  0.80983  0.96423  1.0000
  C   C681      1.0  0.73494  0.92184  0.94071  1.0000
  C   C682      1.0  0.75659  0.92061  0.92801  1.0000
  C   C683      1.0  0.76361  0.92219  0.88505  1.0000
  C   C684      1.0  0.74899  0.92487  0.85422  1.0000
  C   C685      1.0  0.72747  0.92657  0.86671  1.0000
  C   C686      1.0  0.72058  0.92529  0.90991  1.0000
  H   H1090     1.0  0.76790  0.91810  0.95144  1.0000
  H   H1091     1.0  0.78032  0.92100  0.87563  1.0000
  H   H1092     1.0  0.71626  0.92905  0.84310  1.0000
  H   H1093     1.0  0.70429  0.92717  0.91916  1.0000
  H   H1094     1.0  0.66453  0.83995  0.86423  1.0000
  S   S285      1.0  0.62260  0.85140  0.98054  1.0000
  H   H1095     1.0  0.76287  0.92091  0.55609  1.0000
  C   C687      1.0  0.66897  0.97420  0.98520  1.0000
  C   C688      1.0  0.68896  0.96950  0.97427  1.0000
  H   H1096     1.0  0.67079  0.86678  0.96125  1.0000
  N   N68       1.0  0.68296  0.86467  0.89825  1.0000
  H   H1097     1.0  0.63758  0.98156  0.91277  1.0000
  C   C689      1.0  0.64527  0.98937  0.56346  1.0000
  C   C690      1.0  0.68713  0.86857  0.94243  1.0000
  C   C691      1.0  0.70522  0.86767  0.87424  1.0000
  H   H1098     1.0  0.65473  0.87699  0.89633  1.0000
  Fe  Fe142     1.0  0.61761  0.99452  0.74087  1.0000
  C   C692      1.0  0.67296  0.99089  0.82300  1.0000
  S   S286      1.0  0.66847  0.75285  0.64384  1.0000
  S   S287      1.0  0.60201  0.96681  0.78724  1.0000
  C   C693      1.0  0.74713  0.97456  0.59162  1.0000
  H   H1099     1.0  0.64803  0.78408  0.75476  1.0000
  H   H1100     1.0  0.69872  0.88434  0.94443  1.0000
  H   H1101     1.0  0.58705  0.91356  0.66806  1.0000
  C   C694      1.0  0.62827  0.82861  0.99709  1.0000
  C   C695      1.0  0.67170  0.87892  0.87917  1.0000
  H   H1102     1.0  0.70280  0.86469  0.84083  1.0000
  Fe  Fe143     1.0  0.69725  0.75415  0.68599  1.0000
  C   C696      1.0  0.66772  0.84347  0.89717  1.0000
  C   C697      1.0  0.60463  0.92482  0.66107  1.0000
  C   C698      1.0  0.64665  0.97788  0.88501  1.0000
  C   C699      1.0  0.61444  0.81001  0.98476  1.0000
  N   N69       1.0  0.66641  0.77731  0.80706  1.0000
  H   H1103     1.0  0.67522  0.83222  0.91250  1.0000
  H   H1104     1.0  0.60552  0.88698  0.68081  1.0000
  C   C700      1.0  0.64680  0.77422  0.83854  1.0000
  Fe  Fe144     1.0  0.64138  0.88046  0.00852  1.0000
  H   H1105     1.0  0.59485  0.89579  0.60802  1.0000
  C   C701      1.0  0.64380  0.93117  0.63279  1.0000
  H   H1106     1.0  0.67199  0.77572  0.74055  1.0000
  C   C702      1.0  0.62266  0.89866  0.67186  1.0000
  H   H1107     1.0  0.65719  0.96847  0.89724  1.0000
  H   H1108     1.0  0.71698  0.88361  0.87395  1.0000
  H   H1109     1.0  0.61661  0.97530  0.60947  1.0000
  H   H1110     1.0  0.64315  0.94412  0.61028  1.0000
  H   H1111     1.0  0.63454  0.75838  0.84036  1.0000
  C   C703      1.0  0.65766  0.77354  0.76512  1.0000
  C   C704      1.0  0.67081  0.99384  0.99532  1.0000
  H   H1112     1.0  0.72596  0.98015  0.96711  1.0000
  H   H1113     1.0  0.63688  0.78482  0.83048  1.0000
  H   H1114     1.0  0.59027  0.92787  0.83523  1.0000
  H   H1115     1.0  0.65057  0.84097  0.91409  1.0000
  H   H1116     1.0  0.68249  0.89511  0.87947  1.0000
  H   H1117     1.0  0.76237  0.98885  0.99340  1.0000
  H   H1118     1.0  0.66843  0.87647  0.84575  1.0000
  H   H1119     1.0  0.63414  0.89078  0.65819  1.0000
  H   H1120     1.0  0.71436  0.85738  0.88816  1.0000
  C   C705      1.0  0.67915  0.76305  0.81943  1.0000
  C   C706      1.0  0.61348  0.95909  0.55417  1.0000
  H   H1121     1.0  0.63321  0.96808  0.86671  1.0000
  H   H1122     1.0  0.65083  0.93778  0.66180  1.0000
  C   C707      1.0  0.71072  0.98406  0.97546  1.0000
  H   H1123     1.0  0.63220  0.99881  0.82542  1.0000
  H   H1124     1.0  0.65275  0.77662  0.87069  1.0000
  H   H1125     1.0  0.51986  0.97863  0.72481  1.0000
  H   H1126     1.0  0.59708  0.94795  0.56560  1.0000
  H   H1127     1.0  0.60306  0.93780  0.63987  1.0000
  N   N70       1.0  0.62086  0.91552  0.64202  1.0000
  H   H1128     1.0  0.69740  0.80089  0.78246  1.0000
  C   C708      1.0  0.61453  0.94730  0.78619  1.0000
  H   H1129     1.0  0.68769  0.95452  0.96536  1.0000
  H   H1130     1.0  0.69526  0.85789  0.95809  1.0000
  C   C709      1.0  0.60513  0.92948  0.81382  1.0000
  H   H1131     1.0  0.75300  0.96766  0.61869  1.0000
  H   H1132     1.0  0.74205  0.90646  0.59791  1.0000
  H   H1133     1.0  0.69374  0.82905  0.61231  1.0000
  H   H1134     1.0  0.66033  0.98131  0.80311  1.0000
  C   C710      1.0  0.76619  0.97502  0.00686  1.0000
  C   C711      1.0  0.76303  0.98587  0.55826  1.0000
  H   H1135     1.0  0.61118  0.91959  0.57868  1.0000
  H   H1136     1.0  0.78116  0.98751  0.55961  1.0000
  H   H1137     1.0  0.65659  0.92479  0.61851  1.0000
  H   H1138     1.0  0.60628  0.77714  0.99189  1.0000
  C   C712      1.0  0.71638  0.98192  0.55536  1.0000
  H   H1139     1.0  0.69381  0.76462  0.79591  1.0000
  H   H1140     1.0  0.74788  0.93356  0.58796  1.0000
  C   C713      1.0  0.61759  0.79151  0.00017  1.0000
  C   C714      1.0  0.63449  0.79159  0.02825  1.0000
  H   H1141     1.0  0.62405  0.89998  0.58768  1.0000
  H   H1142     1.0  0.67350  0.80974  0.79445  1.0000
  C   C715      1.0  0.61233  0.90734  0.60247  1.0000
  H   H1143     1.0  0.68651  0.76589  0.85041  1.0000
  N   N71       1.0  0.66106  0.99659  0.85892  1.0000
  H   H1144     1.0  0.70030  0.90127  0.59134  1.0000
  C   C716      1.0  0.62437  0.97468  0.57877  1.0000
  H   H1145     1.0  0.75699  0.96213  0.98900  1.0000
  H   H1146     1.0  0.70663  0.92838  0.58170  1.0000
  C   C717      1.0  0.52370  0.99277  0.70446  1.0000
  C   C718      1.0  0.64894  0.81023  0.03898  1.0000
  H   H1147     1.0  0.78502  0.97794  0.00040  1.0000
  H   H1148     1.0  0.65713  0.84277  0.03212  1.0000
  H   H1149     1.0  0.69826  0.98034  0.55412  1.0000
  H   H1150     1.0  0.69114  0.91209  0.54489  1.0000
  H   H1151     1.0  0.65539  0.99763  0.00346  1.0000
  C   C719      1.0  0.50581  0.99797  0.68559  1.0000
  N   N72       1.0  0.72747  0.91600  0.54301  1.0000
  S   S288      1.0  0.60494  0.99722  0.67659  1.0000
  C   C720      1.0  0.70539  0.91436  0.56621  1.0000
  H   H1152     1.0  0.72074  0.88351  0.54863  1.0000
