data_image0
_chemical_formula_structural       FeS2FeS2FeSFeS3FeS2FeS2FeSFeS3FeS2FeS2FeSFeS3FeS2FeS2FeSFeS3FeS2FeS2FeSFeS3FeS2FeS2FeSFeS3FeS2FeS2FeSFeS3FeS2FeS2FeSFeS3FeS2FeS2FeSFeS3FeS2FeS2FeSFeS3FeS2FeS2FeSFeS3FeS2FeS2FeSFeS3C6H4C6H4C6H4C6H4C6H4C6H4C6H4C6H4C6H4C6H4C6H4C6H4C6H4C6H4C6H4C6H4C6H4C6H4C6H4C6H4C6H4C6H4C6H4C6H4NC4H12NC4H12NC4H12NC4H12NC4H12NC4H12NC4H12NC4H12NC4H12NC4H12NC4H12NC4H12NC4H12NC4H12NC4H12NC4H12NC4H12NC4H12NC4H12NC4H12NC4H12NC4H12NC4H12NC4H12
_chemical_formula_sum              "Fe48 S96 C240 H384 N24"
_cell_length_a       42.57351301195781
_cell_length_b       43.017887436952286
_cell_length_c       29.67065409293841
_cell_angle_alpha    90.02409880568977
_cell_angle_beta     90.34732861778429
_cell_angle_gamma    120.03301169255315

_space_group_name_H-M_alt    "P 1"
_space_group_IT_number       1

loop_
  _space_group_symop_operation_xyz
  'x, y, z'

loop_
  _atom_site_type_symbol
  _atom_site_label
  _atom_site_symmetry_multiplicity
  _atom_site_fract_x
  _atom_site_fract_y
  _atom_site_fract_z
  _atom_site_occupancy
  Fe  Fe1       1.0  0.8121787421159222  0.4275834496243376  0.022200134936996463  1.0000
  S   S1        1.0  0.7650887520834668  0.37197016798765703  0.030889199956875002  1.0000
  S   S2        1.0  0.8044117136550334  0.4713574123611228  0.9924715290221962  1.0000
  Fe  Fe2       1.0  0.8681259218322066  0.40816856615196906  0.056167127756367785  1.0000
  S   S3        1.0  0.8249149719207701  0.350593091799836  0.06683980888205387  1.0000
  S   S4        1.0  0.924372518639681  0.4227123858483456  0.08107083555750938  1.0000
  Fe  Fe3       1.0  0.8019820011750464  0.3547546460293143  0.0002484033584477796  1.0000
  S   S5        1.0  0.7862136345835262  0.3154752156688804  0.9422904376787041  1.0000
  Fe  Fe4       1.0  0.7923854719944389  0.37342475228199634  0.09654256675135063  1.0000
  S   S6        1.0  0.7609194959561763  0.3496867763388526  0.1607016413002765  1.0000
  S   S7        1.0  0.8477607396616363  0.4106135755598049  0.986979391239036  1.0000
  S   S8        1.0  0.8369714302684019  0.4307350922637566  0.090191849919949  1.0000
  Fe  Fe5       1.0  0.584569857463032  0.3747255692058349  0.14599916794903564  1.0000
  S   S9        1.0  0.5932058934415296  0.43053918844166744  0.14160599279065866  1.0000
  S   S10       1.0  0.6001972618836189  0.3620643513337578  0.21333955815327985  1.0000
  Fe  Fe6       1.0  0.5583177152393737  0.3579276747925223  0.04877015151767061  1.0000
  S   S11       1.0  0.563508661027895  0.4118245685723165  0.03790579340090661  1.0000
  S   S12       1.0  0.5410631310643182  0.3220646641429301  0.9877643980780718  1.0000
  Fe  Fe7       1.0  0.616738303132135  0.4320583157162605  0.07387247758752842  1.0000
  S   S13       1.0  0.665932826721497  0.48097757457495294  0.04721486204304082  1.0000
  Fe  Fe8       1.0  0.5392606053729316  0.4045615476261169  0.10660327468784171  1.0000
  S   S14       1.0  0.49551476152777746  0.415132880472403  0.1317718734108313  1.0000
  S   S15       1.0  0.6129241476686235  0.37852200245577716  0.08122453711907837  1.0000
  S   S16       1.0  0.5290480764148414  0.3482354343079818  0.11455293684682835  1.0000
  Fe  Fe9       1.0  0.628666707892716  0.41292342650333574  0.7727811514590891  1.0000
  S   S17       1.0  0.5703876662606824  0.3991758237213871  0.7700861645664556  1.0000
  S   S18       1.0  0.6548713106996193  0.4047206850472332  0.8343151620154844  1.0000
  Fe  Fe10      1.0  0.6445403633693666  0.4434581192056505  0.6777203756636354  1.0000
  S   S19       1.0  0.587592781355609  0.4323940748347707  0.6676214111444442  1.0000
  S   S20       1.0  0.6837060800444588  0.4713080670408788  0.6207616666572818  1.0000
  Fe  Fe11      1.0  0.5917265469490802  0.45318449323154647  0.7380024947186876  1.0000
  S   S21       1.0  0.5786736827616569  0.4952177557903977  0.7629788973097232  1.0000
  Fe  Fe12      1.0  0.5718452809576877  0.379590325467053  0.7002664768549812  1.0000
  S   S22       1.0  0.5279440233222439  0.329860135602187  0.6668889848332207  1.0000
  S   S23       1.0  0.6502916472561944  0.4685689468179506  0.745739742370131  1.0000
  S   S24       1.0  0.6283941249542441  0.389067519941816  0.7055029066249829  1.0000
  Fe  Fe13      1.0  0.5649046996730308  0.11338674248226376  0.7800334646303668  1.0000
  S   S25       1.0  0.6240345226602936  0.1553588601351595  0.7838217598554709  1.0000
  S   S26       1.0  0.5509097073000613  0.05874753869893163  0.8069980733908566  1.0000
  Fe  Fe14      1.0  0.5440311665621426  0.1689605673219399  0.7508349834521013  1.0000
  S   S27       1.0  0.6011087478547259  0.2147001589008168  0.7533491221021144  1.0000
  S   S28       1.0  0.4975953596418957  0.17785527869620685  0.734580211388338  1.0000
  Fe  Fe15      1.0  0.6133692080175462  0.17555001711946125  0.7190668540339046  1.0000
  S   S29       1.0  0.6503882179467755  0.19144201411557796  0.6595475936324431  1.0000
  Fe  Fe16      1.0  0.6054268366664528  0.18984168777815416  0.8177363549355997  1.0000
  S   S30       1.0  0.6215172916430944  0.21740231671394694  0.8855705916852076  1.0000
  S   S31       1.0  0.5556696093440612  0.13085087797739153  0.7122533830668951  1.0000
  S   S32       1.0  0.5469140731374946  0.14667831005775908  0.8177937662507885  1.0000
  Fe  Fe17      1.0  0.5661047799228013  0.18332588395042285  0.3201988369658727  1.0000
  S   S33       1.0  0.5814662711470685  0.14090335575692006  0.3102915577576545  1.0000
  S   S34       1.0  0.5464528261169135  0.19897600896551856  0.2578134546091861  1.0000
  Fe  Fe18      1.0  0.5846266235852561  0.19018553980051148  0.4204934404323948  1.0000
  S   S35       1.0  0.6033158222457959  0.1498380750849617  0.417937257988087  1.0000
  S   S36       1.0  0.5770530998361398  0.2126333080361271  0.4855230637174488  1.0000
  Fe  Fe19      1.0  0.6297129977540848  0.17746677854498044  0.35319623868494926  1.0000
  S   S37       1.0  0.683268798497712  0.1877251107690443  0.32642569286422185  1.0000
  Fe  Fe20      1.0  0.5533615122729599  0.11701941451040726  0.37558405291599667  1.0000
  S   S38       1.0  0.5109366893618461  0.060397371216964334  0.3959307147788321  1.0000
  S   S39       1.0  0.615894203078203  0.2211800037136353  0.35965920265944074  1.0000
  S   S40       1.0  0.5333046752736459  0.15622286757937745  0.3815284482505756  1.0000
  Fe  Fe21      1.0  0.8098394234577914  0.43790443764984466  0.3829464778408882  1.0000
  S   S41       1.0  0.8595056080085207  0.43291814220739944  0.376589293047251  1.0000
  S   S42       1.0  0.7953153587206505  0.4589208633248006  0.32162768908931966  1.0000
  Fe  Fe22      1.0  0.7930223402690016  0.40595674833264295  0.47698095155143133  1.0000
  S   S43       1.0  0.8403017827296793  0.39630046242918743  0.47634939714948527  1.0000
  S   S44       1.0  0.7599787779413456  0.38899416392096936  0.5411009214228694  1.0000
  Fe  Fe23      1.0  0.8714753718940882  0.4519109723664211  0.44822641536882635  1.0000
  S   S45       1.0  0.9248672906964697  0.4920931183271035  0.48110800234486417  1.0000
  Fe  Fe24      1.0  0.8237761046564103  0.3779977982755446  0.4050446957619097  1.0000
  S   S46       1.0  0.827490583519328  0.33365179859772914  0.3697721907864574  1.0000
  S   S47       1.0  0.8249244285399333  0.4626400410001045  0.45204915232397064  1.0000
  S   S48       1.0  0.7733857977449162  0.38199546794050343  0.40812840345888185  1.0000
  Fe  Fe25      1.0  0.12410380449997231  0.5645751695923129  0.016174361445451924  1.0000
  S   S49       1.0  0.16790185359293544  0.622795387159654  0.016358869878895455  1.0000
  S   S50       1.0  0.06727660440248442  0.5527101086189734  0.9982054069948479  1.0000
  Fe  Fe26      1.0  0.1771922003710351  0.5405145682623153  0.04635502559701088  1.0000
  S   S51       1.0  0.2246160851337421  0.5963629253619356  0.05099552215576186  1.0000
  S   S52       1.0  0.1797543843178985  0.4909291286512896  0.06226846924680807  1.0000
  Fe  Fe27      1.0  0.1846246087207143  0.6094343289247625  0.0821760605751613  1.0000
  S   S53       1.0  0.19190776603937904  0.6429211556832195  0.1438453511552953  1.0000
  Fe  Fe28      1.0  0.20370696408919092  0.604371034032007  0.984812754682958  1.0000
  S   S54       1.0  0.24101096147712397  0.6242169450768397  0.9244852769179726  1.0000
  S   S55       1.0  0.1389524310026829  0.5525359302789455  0.08378907443030559  1.0000
  S   S56       1.0  0.15823671627170208  0.5471931691778262  0.978366900934433  1.0000
  Fe  Fe29      1.0  0.4562801159935279  0.5715799529281315  0.08831119855148817  1.0000
  S   S57       1.0  0.4741525723479922  0.6304145533864685  0.08602971139688138  1.0000
  S   S58       1.0  0.49633459673467256  0.5554805107159129  0.06297551376286808  1.0000
  Fe  Fe30      1.0  0.37960861054201966  0.551989713534073  0.11477986960664414  1.0000
  S   S59       1.0  0.39078067252981247  0.6086305639230727  0.11350470430367646  1.0000
  S   S60       1.0  0.3261972339863039  0.5065288611906777  0.13728301604465418  1.0000
  Fe  Fe31      1.0  0.42127207578667086  0.6126915439023295  0.05036635594996386  1.0000
  S   S61       1.0  0.42093754413121903  0.6425190624266617  0.988318111116391  1.0000
  Fe  Fe32      1.0  0.44221731916490203  0.6211410368421042  0.14955115404647185  1.0000
  S   S62       1.0  0.46201112446905845  0.6556422249834711  0.2124461950950298  1.0000
  S   S63       1.0  0.40534339376736794  0.5545829405696887  0.04823941610097382  1.0000
  S   S64       1.0  0.4290721975229666  0.5637453450120279  0.1552757690829839  1.0000
  Fe  Fe33      1.0  0.41756066909914097  0.7877117190103522  0.33232305732071693  1.0000
  S   S65       1.0  0.41019067968712425  0.8358529041108659  0.33530355436756476  1.0000
  S   S66       1.0  0.40110702748930854  0.758133596304054  0.2657763239573798  1.0000
  Fe  Fe34      1.0  0.44322066480351446  0.7974558186544577  0.43008231549195763  1.0000
  S   S67       1.0  0.43964122222980395  0.8472670631680417  0.43936054747307657  1.0000
  S   S68       1.0  0.45887032689552876  0.7782444206912333  0.49217050222570685  1.0000
  Fe  Fe35      1.0  0.3863541974931522  0.8153458692040525  0.4033827947652669  1.0000
  S   S69       1.0  0.3383623309394813  0.8172904294759034  0.4311716495705396  1.0000
  Fe  Fe36      1.0  0.4641349628954708  0.8627862938847822  0.3705868886182292  1.0000
  S   S70       1.0  0.5096563036896836  0.9159263400391352  0.3453524340509187  1.0000
  S   S71       1.0  0.38865884994722955  0.7646925595499356  0.3971435724435209  1.0000
  S   S72       1.0  0.4728962722812861  0.8154714097733776  0.36438388533981814  1.0000
  Fe  Fe37      1.0  0.12694066475634438  0.5475011450765707  0.4232368267987415  1.0000
  S   S73       1.0  0.16724679556749922  0.5289775207059512  0.41270305203152746  1.0000
  S   S74       1.0  0.0697713533542527  0.5049230690054173  0.40355681394587617  1.0000
  Fe  Fe38      1.0  0.1864018486295757  0.6210542575598379  0.4556118075322811  1.0000
  S   S75       1.0  0.23078413128468875  0.6080254832480079  0.4474558849766543  1.0000
  S   S76       1.0  0.1973280553350841  0.6731647982840088  0.48675234501964443  1.0000
  Fe  Fe39      1.0  0.202457711526772  0.583099623971438  0.38199763641738527  1.0000
  S   S77       1.0  0.23393095804912817  0.5877817332324474  0.31886658737861223  1.0000
  Fe  Fe40      1.0  0.19142529501408553  0.5554420216770044  0.4788820355078933  1.0000
  S   S78       1.0  0.20230974504141674  0.5275160073011251  0.5362342146727819  1.0000
  S   S79       1.0  0.16060238673481728  0.6000776426453097  0.3877363620470004  1.0000
  S   S80       1.0  0.14866356133606054  0.5701641783157569  0.4919030756798283  1.0000
  Fe  Fe41      1.0  0.3869258470253045  0.5808660506918557  0.6608860192461127  1.0000
  S   S81       1.0  0.4455637444944879  0.5957640001327694  0.6572856824899496  1.0000
  S   S82       1.0  0.36684067836471507  0.5947342693125255  0.5973484800910406  1.0000
  Fe  Fe42      1.0  0.3823443747475478  0.5601338682511254  0.7594014857883774  1.0000
  S   S83       1.0  0.4404565884491063  0.5735894564376999  0.7637793825084492  1.0000
  S   S84       1.0  0.34781124593506735  0.5394191434350016  0.8215141910269121  1.0000
  Fe  Fe43      1.0  0.4510392043491673  0.622257867165281  0.7239849177481678  1.0000
  S   S85       1.0  0.5001501344896679  0.6759159924819952  0.7382215844745782  1.0000
  Fe  Fe44      1.0  0.42985124370329814  0.5457307315226918  0.6968562103890822  1.0000
  S   S86       1.0  0.4479125434282491  0.5063825731633282  0.6755353021717877  1.0000
  S   S87       1.0  0.3938818751960252  0.6113107366605746  0.7251817690732145  1.0000
  S   S88       1.0  0.37025684112997725  0.5282702032039713  0.695034377687376  1.0000
  Fe  Fe45      1.0  0.40943118024488034  0.863279493433476  0.7424179648870991  1.0000
  S   S89       1.0  0.3514932491089758  0.8184584868451336  0.7391888493973159  1.0000
  S   S90       1.0  0.4188137397821724  0.9179657345164871  0.722147718202293  1.0000
  Fe  Fe46      1.0  0.43572860430625904  0.8122822019424225  0.7713842307959885  1.0000
  S   S91       1.0  0.3802528297952891  0.7636868188789269  0.7709473324730224  1.0000
  S   S92       1.0  0.4841724289405213  0.8092330163958242  0.7946817549751878  1.0000
  Fe  Fe47      1.0  0.37393469770195464  0.7869631812638267  0.7062711802215361  1.0000
  S   S93       1.0  0.34621818897676715  0.7542032570056029  0.6447553515813037  1.0000
  Fe  Fe48      1.0  0.36339288780142276  0.7997926089029234  0.8042670189314418  1.0000
  S   S94       1.0  0.3289402756016589  0.7877332610990955  0.8664111675362861  1.0000
  S   S95       1.0  0.4309603266699569  0.8331879359812615  0.7038868283728114  1.0000
  S   S96       1.0  0.4197752549567152  0.8470049043133455  0.8101171033491439  1.0000
  C   C1        1.0  0.4875690967739491  0.7720392282105132  0.7767268602708547  1.0000
  C   C2        1.0  0.45914341709215956  0.742889342528581  0.7538368164180318  1.0000
  C   C3        1.0  0.46215110952429367  0.7126391710249393  0.7427396268822604  1.0000
  C   C4        1.0  0.49406492517006767  0.7121265829304747  0.7531567744750817  1.0000
  C   C5        1.0  0.5225795128077189  0.7416219201770001  0.7750673977230206  1.0000
  C   C6        1.0  0.5191618214888054  0.7712062748538447  0.7873258065783821  1.0000
  H   H1        1.0  0.43478640014270714  0.7434606533163396  0.7450746398939896  1.0000
  H   H2        1.0  0.44006618443923345  0.6900568579426549  0.7256472138887062  1.0000
  H   H3        1.0  0.5473470804228848  0.7414667521625876  0.7830101193485804  1.0000
  H   H4        1.0  0.5412230986509351  0.7936326336059397  0.8049000080718391  1.0000
  C   C7        1.0  0.3208183431644772  0.5751483197256759  0.5815118949226591  1.0000
  C   C8        1.0  0.29276604659066024  0.5503679705186496  0.6088062196320911  1.0000
  C   C9        1.0  0.25640489342769424  0.5356150009184769  0.5945803976382104  1.0000
  C   C10       1.0  0.24801964554819014  0.5456119322153952  0.5531412943188531  1.0000
  C   C11       1.0  0.27612461130692223  0.5703401313425425  0.5259895608262513  1.0000
  C   C12       1.0  0.31233822484311063  0.5851799551657229  0.5402298496536914  1.0000
  H   H5        1.0  0.2990951260339599  0.5424375423267372  0.640659287758273  1.0000
  H   H6        1.0  0.23478298720733173  0.5163850329812573  0.6157235122923984  1.0000
  H   H7        1.0  0.27005991149900366  0.5776096394350559  0.493609709041631  1.0000
  H   H8        1.0  0.3339314584381768  0.6041096978587442  0.5188040316466537  1.0000
  C   C13       1.0  0.3774477007822504  0.7593007854549614  0.6031677646682383  1.0000
  C   C14       1.0  0.4134088113288559  0.7699049240867883  0.614386738414374  1.0000
  C   C15       1.0  0.4386067807079138  0.7762820241549605  0.5802565941983546  1.0000
  C   C16       1.0  0.42771645655374874  0.771396751631561  0.534929838323202  1.0000
  C   C17       1.0  0.3916708805170236  0.7605629171740705  0.5239723031983687  1.0000
  C   C18       1.0  0.36661224406971166  0.7545025822967153  0.5579564697124579  1.0000
  H   H9        1.0  0.4218871894767543  0.7732719228004539  0.6493221184007553  1.0000
  H   H10       1.0  0.4665867136575247  0.785461453210828  0.589028228275047  1.0000
  H   H11       1.0  0.38287904100896347  0.7565953929897352  0.4893317500876224  1.0000
  H   H12       1.0  0.3390601970602979  0.7470739809888768  0.5489883108715189  1.0000
  C   C19       1.0  0.30011311340278196  0.7766007506840553  0.4472412164177131  1.0000
  C   C20       1.0  0.2968012405831595  0.7433126083449979  0.4370100398533171  1.0000
  C   C21       1.0  0.264997565866095  0.711286809636362  0.4479403156797081  1.0000
  C   C22       1.0  0.2369826754179736  0.7125123745978144  0.4708321238790487  1.0000
  C   C23       1.0  0.2408024782359019  0.7457887619947479  0.4822856098016194  1.0000
  C   C24       1.0  0.27203706708959446  0.77770746408049  0.4700218276396907  1.0000
  H   H13       1.0  0.3184304396787286  0.7421337939143702  0.4202353986685866  1.0000
  H   H14       1.0  0.26231483641007275  0.6857537245215799  0.4389210410821266  1.0000
  H   H15       1.0  0.21922706556975152  0.7468997042511056  0.49999919449254954  1.0000
  H   H16       1.0  0.2743082138253297  0.8032989049644462  0.4780527248910528  1.0000
  C   C25       1.0  0.3996795991938268  0.6141183236748533  0.9420644345490727  1.0000
  C   C26       1.0  0.3724386832307943  0.5785128403191243  0.9485176285575029  1.0000
  C   C27       1.0  0.35666004628318715  0.5556881910550429  0.9113092265277885  1.0000
  C   C28       1.0  0.36777552710862804  0.56846348007882  0.8675469516366944  1.0000
  C   C29       1.0  0.39514287664466996  0.6040674911038411  0.8610771220371435  1.0000
  C   C30       1.0  0.41109321346485805  0.6268552265377213  0.8983337689831474  1.0000
  H   H17       1.0  0.36339794255059515  0.5685735656776437  0.9821733445227939  1.0000
  H   H18       1.0  0.33638247569337715  0.527913009329076  0.916512394582265  1.0000
  H   H19       1.0  0.4042523557283201  0.613966323268094  0.8273986659741307  1.0000
  H   H20       1.0  0.4328324175739019  0.6541063522865499  0.8932381156972905  1.0000
  C   C31       1.0  0.4439901486165958  0.6832202543174611  0.22726404287041627  1.0000
  C   C32       1.0  0.4533644301123127  0.7009916212532351  0.26907032690163885  1.0000
  C   C33       1.0  0.4398035486318093  0.7235268892364011  0.28168136908914543  1.0000
  C   C34       1.0  0.4169222211856514  0.7285176709226084  0.25233275453276943  1.0000
  C   C35       1.0  0.4072343304913982  0.7105092185582602  0.2107265813214938  1.0000
  C   C36       1.0  0.42071412874789965  0.6878987769691624  0.19820528073975546  1.0000
  H   H21       1.0  0.4712984453748002  0.6973627445649273  0.2917137722085039  1.0000
  H   H22       1.0  0.44729427000582156  0.7371729112198375  0.31393428932073697  1.0000
  H   H23       1.0  0.38967767447517937  0.7144346965826567  0.18777956342769395  1.0000
  H   H24       1.0  0.4137394017536461  0.6747415981004077  0.16570288619306553  1.0000
  C   C37       1.0  0.20140555351519995  0.6254610895841685  0.1921571080174472  1.0000
  C   C38       1.0  0.21681999524922935  0.6035019148078669  0.18859182867930527  1.0000
  C   C39       1.0  0.22609505235519436  0.5914160775149098  0.227678169686937  1.0000
  C   C40       1.0  0.219256673467836  0.6005328607186902  0.27036409005344997  1.0000
  C   C41       1.0  0.2026512539929892  0.6214038511191455  0.27379508431826227  1.0000
  C   C42       1.0  0.1941322039482096  0.6342314918205133  0.2348065430857578  1.0000
  H   H25       1.0  0.22209787903167186  0.5962489256645928  0.15574542563384003  1.0000
  H   H26       1.0  0.2380253026764337  0.5745145699895371  0.22479888715650848  1.0000
  H   H27       1.0  0.19716116507879308  0.6283695586278039  0.3065152486358479  1.0000
  H   H28       1.0  0.1819383048381993  0.6509719208121574  0.23769581272195553  1.0000
  C   C43       1.0  0.26341598289062396  0.6696676243814267  0.9084067008918043  1.0000
  C   C44       1.0  0.2655088766305197  0.6965962706572733  0.9368336444360404  1.0000
  C   C45       1.0  0.28522302963790347  0.7327892256928271  0.9234362266867301  1.0000
  C   C46       1.0  0.3027221954026967  0.7421144826270815  0.8815742672605614  1.0000
  C   C47       1.0  0.30007776698922356  0.7150705548555283  0.8529687616522693  1.0000
  C   C48       1.0  0.28067464273199483  0.6790263227768881  0.8664658888750776  1.0000
  H   H29       1.0  0.25224607450808845  0.6895592554361522  0.9692485578246214  1.0000
  H   H30       1.0  0.287057732494237  0.7535617925099234  0.9457010490523808  1.0000
  H   H31       1.0  0.31280005986616555  0.7218289125469717  0.8203230974125508  1.0000
  H   H32       1.0  0.27884406322953587  0.6582447908249113  0.844197002383547  1.0000
  C   C49       1.0  0.2212943864431099  0.49683839334619956  0.08231458716904783  1.0000
  C   C50       1.0  0.2209036775142247  0.4695830802022294  0.10830729154008956  1.0000
  C   C51       1.0  0.2533372431488863  0.47297344730256924  0.1247117976821821  1.0000
  C   C52       1.0  0.28654151193637195  0.5032166348781576  0.1142797789005828  1.0000
  C   C53       1.0  0.2872643238454518  0.5303176943867811  0.08727335375772267  1.0000
  C   C54       1.0  0.2545250828351417  0.5273253984565245  0.0717414590912419  1.0000
  H   H33       1.0  0.1953426347338511  0.4458867168897775  0.11625250633119455  1.0000
  H   H34       1.0  0.2526563574062719  0.451923645970456  0.145390151394716  1.0000
  H   H35       1.0  0.31290926646298983  0.5536246402212135  0.07876569741057922  1.0000
  H   H36       1.0  0.2550265628893788  0.5482299339256363  0.051126600294063795  1.0000
  C   C55       1.0  0.9651301287683948  0.4957062549974916  0.45935637234670307  1.0000
  C   C56       1.0  0.9989812562263902  0.522260539567169  0.4762643871992581  1.0000
  C   C57       1.0  0.0314129228474192  0.5256414419057595  0.4593763029698101  1.0000
  C   C58       1.0  0.03007653865242287  0.502328567032056  0.425572839403226  1.0000
  C   C59       1.0  0.9962384172292095  0.4755737484194731  0.4090653159778961  1.0000
  C   C60       1.0  0.9638862599171788  0.4723091819387401  0.4257672567764332  1.0000
  H   H37       1.0  0.00013902209115301822  0.5404816412347474  0.5022127464697068  1.0000
  H   H38       1.0  0.057348533673730155  0.5463544557733551  0.4723130290612238  1.0000
  H   H39       1.0  0.9950094304992424  0.4573984635754184  0.3829969066993755  1.0000
  H   H40       1.0  0.9379868749510669  0.4516601096644995  0.41267344208298046  1.0000
  C   C61       1.0  0.5114442545587045  0.020776290464930527  0.38130285428748517  1.0000
  C   C62       1.0  0.4829784367967778  0.9875918820522893  0.39613122318821875  1.0000
  C   C63       1.0  0.4822349185497617  0.9553457651639383  0.38547900264114077  1.0000
  C   C64       1.0  0.5100523400352107  0.9560400200827499  0.35988998041074177  1.0000
  C   C65       1.0  0.5386546176555844  0.9892327649382435  0.3452557310812547  1.0000
  C   C66       1.0  0.5394014751351036  0.02153214549983018  0.355947658782336  1.0000
  H   H41       1.0  0.4611929683849577  0.9868009376899036  0.41559849682832883  1.0000
  H   H42       1.0  0.4600179911336291  0.9299603603342247  0.39676906949009694  1.0000
  H   H43       1.0  0.5603256389152712  0.9900130065330746  0.3255504161336835  1.0000
  H   H44       1.0  0.561496567180597  0.046944007810895874  0.34446105959664025  1.0000
  C   C67       1.0  0.7225877317345633  0.2281587364565788  0.3410946898379231  1.0000
  C   C68       1.0  0.7557856784829429  0.2346426354805948  0.32371978979527366  1.0000
  C   C69       1.0  0.7876607253842025  0.26694794992141874  0.33317561680345653  1.0000
  C   C70       1.0  0.7866340630810322  0.2932788122611396  0.35975156976234973  1.0000
  C   C71       1.0  0.7534122490284637  0.28696046617340465  0.3772045785148366  1.0000
  C   C72       1.0  0.7213498100750818  0.2543264586789396  0.36795856947953476  1.0000
  H   H45       1.0  0.7569013273158945  0.21446665051131228  0.30309983189416995  1.0000
  H   H46       1.0  0.8132402939419805  0.27143088240515867  0.32004051196618877  1.0000
  H   H47       1.0  0.7524515120150036  0.3068730109856918  0.398375280489445  1.0000
  H   H48       1.0  0.6958376561156588  0.24940875193098253  0.3817799311174339  1.0000
  C   C73       1.0  0.45665854170752374  0.9568934260999393  0.7443264580314096  1.0000
  C   C74       1.0  0.48076000169188704  0.9546027706074386  0.7745251638330526  1.0000
  C   C75       1.0  0.5095902147593656  0.9860322409664538  0.793444881994444  1.0000
  C   C76       1.0  0.5148792230219943  0.019954316839381956  0.7817782674524213  1.0000
  C   C77       1.0  0.4910095706675754  0.022255799641623317  0.7511729035489751  1.0000
  C   C78       1.0  0.46189060228572215  0.9907912449061553  0.7326980698550417  1.0000
  H   H49       1.0  0.4772057696556106  0.9286499751843861  0.7833989033427768  1.0000
  H   H50       1.0  0.528074870050443  0.9840648256708348  0.8168946711285302  1.0000
  H   H51       1.0  0.4947654681890392  0.04825591626866428  0.7421072369973473  1.0000
  H   H52       1.0  0.4433045352561168  0.9927698278379145  0.70943698926092  1.0000
  C   C79       1.0  0.5972521945359024  0.20556429282092425  0.5331050973810069  1.0000
  C   C80       1.0  0.5802616446491223  0.2000407906515809  0.5749613491382394  1.0000
  C   C81       1.0  0.5967901517037852  0.19629431851153187  0.6139930475649473  1.0000
  C   C82       1.0  0.6303516901297516  0.19785540927692383  0.6112439442090393  1.0000
  C   C83       1.0  0.6473435104823707  0.20333133617079716  0.5693353733624339  1.0000
  C   C84       1.0  0.630726729834708  0.20701751860006556  0.53021910103049  1.0000
  H   H53       1.0  0.5541205339873058  0.19841484808645807  0.5771857337048467  1.0000
  H   H54       1.0  0.5835029807760255  0.19213953499562386  0.6461692019778361  1.0000
  H   H55       1.0  0.6733221842379563  0.20457562804408827  0.5670945911917673  1.0000
  H   H56       1.0  0.6441519993302199  0.2116414628228728  0.49801546927123824  1.0000
  C   C85       1.0  0.541312859556975  0.49721944664321216  0.7400145205472939  1.0000
  C   C86       1.0  0.5357587115816419  0.5256661045910689  0.7522264823982228  1.0000
  C   C87       1.0  0.5069467954641509  0.528627434124421  0.7332537716646832  1.0000
  C   C88       1.0  0.48362654659663856  0.5032121543002639  0.7017109717507681  1.0000
  C   C89       1.0  0.48923617158494453  0.4747816263657632  0.6896139306177015  1.0000
  C   C90       1.0  0.5177741037311065  0.4716117816563603  0.7088965837733842  1.0000
  H   H57       1.0  0.5538867233653401  0.5456144560555023  0.7762440670560128  1.0000
  H   H58       1.0  0.502960723323477  0.5507147333014581  0.7426105825641973  1.0000
  H   H59       1.0  0.4711758067853191  0.45493935411277003  0.66540045271136  1.0000
  H   H60       1.0  0.5215071262694924  0.44935999703367335  0.6995804516814038  1.0000
  C   C91       1.0  0.52126137245456  0.2882449411809315  0.685494068210021  1.0000
  C   C92       1.0  0.5475570551846944  0.285491062811102  0.7109652796879002  1.0000
  C   C93       1.0  0.5413696821630771  0.25155169911251973  0.7245679643896205  1.0000
  C   C94       1.0  0.508395921465015  0.2204759336866109  0.714017327209151  1.0000
  C   C95       1.0  0.4822094706131723  0.2235155416436127  0.6888625451430281  1.0000
  C   C96       1.0  0.4888504985709089  0.2571637769527213  0.6740479066410124  1.0000
  H   H61       1.0  0.572570895852735  0.30943460782724336  0.7201756587568372  1.0000
  H   H62       1.0  0.5615564714442608  0.2497919358878282  0.7446000915156861  1.0000
  H   H63       1.0  0.4566312831669069  0.19974299605442736  0.6807293327277489  1.0000
  H   H64       1.0  0.4684397527787906  0.25916318901754976  0.6543711613613856  1.0000
  C   C97       1.0  0.7053926485441542  0.44881593677101655  0.5986989250062902  1.0000
  C   C98       1.0  0.7051244549308021  0.4205385321478475  0.6222154489062556  1.0000
  C   C99       1.0  0.721957109503199  0.4024855893929178  0.6040189184611177  1.0000
  C   C100      1.0  0.7393630410313493  0.412643346783741  0.5622407000546775  1.0000
  C   C101      1.0  0.7402017478990646  0.4412717142823587  0.5388568803722936  1.0000
  C   C102      1.0  0.7232752702182814  0.45935451734224  0.5571346879828766  1.0000
  H   H65       1.0  0.6924683891027889  0.41292542688737505  0.6547894133498743  1.0000
  H   H66       1.0  0.721635697933126  0.38063896975615585  0.6224918017203451  1.0000
  H   H67       1.0  0.753567832793108  0.44927636856741887  0.5065703033624063  1.0000
  H   H68       1.0  0.7237564608728609  0.4813284958935264  0.5388129373722552  1.0000
  C   C103      1.0  0.495906772266073  0.4541915719383553  0.11246466128345521  1.0000
  C   C104      1.0  0.4693582465790159  0.4619302476456116  0.12762124187999987  1.0000
  C   C105      1.0  0.4692027400063879  0.4929676357629381  0.11287806638706846  1.0000
  C   C106      1.0  0.4956211812347155  0.5164155860668215  0.08280446036319844  1.0000
  C   C107      1.0  0.5220882709299134  0.5085992199984484  0.06754288905447843  1.0000
  C   C108      1.0  0.5223074266812993  0.4776476093184149  0.08236913269485427  1.0000
  H   H69       1.0  0.4488209138534248  0.4438894348016675  0.15083862036103993  1.0000
  H   H70       1.0  0.4486545798948664  0.4987130892421652  0.12475629889419955  1.0000
  H   H71       1.0  0.5426696190565989  0.5267086236969813  0.044432236883343634  1.0000
  H   H72       1.0  0.5429467570435694  0.47201184568106114  0.07064452569501126  1.0000
  C   C109      1.0  0.572783276793897  0.34419952624501887  0.944949043070161  1.0000
  C   C110      1.0  0.6095645807531593  0.36613815890080786  0.9554552565033884  1.0000
  C   C111      1.0  0.6347839776383785  0.38391832448582874  0.9212487606409402  1.0000
  C   C112      1.0  0.6233267501980733  0.37997909432673754  0.8762811841917008  1.0000
  C   C113      1.0  0.5866475298369335  0.3575266129221862  0.8655951651296523  1.0000
  C   C114      1.0  0.5613436006663534  0.34001932075657737  0.8999526452280189  1.0000
  H   H73       1.0  0.6187886156839743  0.3691887210827771  0.9898933269445743  1.0000
  H   H74       1.0  0.6630049087407245  0.40130583311850904  0.9300178129304498  1.0000
  H   H75       1.0  0.5777270471542452  0.3536330088985952  0.8309052551229272  1.0000
  H   H76       1.0  0.532835133765184  0.32362695054187307  0.8918018228004323  1.0000
  C   C115      1.0  0.5859560584010866  0.3167978293464992  0.22490626266639177  1.0000
  C   C116      1.0  0.5952838937899687  0.30773849026585137  0.26630905993351206  1.0000
  C   C117      1.0  0.5833819778429314  0.27167034348361474  0.27683938388589463  1.0000
  C   C118      1.0  0.5620667170725713  0.24451253835833534  0.2459638755363638  1.0000
  C   C119      1.0  0.5529727950417644  0.25366695177177995  0.2044460590559886  1.0000
  C   C120      1.0  0.5649179828444224  0.28971469027833463  0.193865379042756  1.0000
  H   H77       1.0  0.6114680137889732  0.32859456469897025  0.2905386389116701  1.0000
  H   H78       1.0  0.5902601504117714  0.26486641527898525  0.30906748343593377  1.0000
  H   H79       1.0  0.5364720857923295  0.23273166096572603  0.18044912996847298  1.0000
  H   H80       1.0  0.5576417516644907  0.2964475051742841  0.16181416904593973  1.0000
  C   C121      1.0  0.9636322560156874  0.45771010172973436  0.055538457530009744  1.0000
  C   C122      1.0  0.9617521620995026  0.4827360442163085  0.027259499377983776  1.0000
  C   C123      1.0  0.993711656363619  0.511343753730447  0.009305837550191987  1.0000
  C   C124      1.0  0.027729811086499988  0.514962403674421  0.019017369722223343  1.0000
  C   C125      1.0  0.029548408705245287  0.48948426357182273  0.04648849529367083  1.0000
  C   C126      1.0  0.9976451734583303  0.46122927727951485  0.0651003259859142  1.0000
  H   H81       1.0  0.9357249031633854  0.4803144605292944  0.019678774864586357  1.0000
  H   H82       1.0  0.9920631623215408  0.5308608392750426  0.9879349113997221  1.0000
  H   H83       1.0  0.05553413218499617  0.49171236848331173  0.05374526994565776  1.0000
  H   H84       1.0  0.9992960055013476  0.44184249791880315  0.08672177925439128  1.0000
  C   C127      1.0  0.7705931857834627  0.38044318276898353  0.20503101816694635  1.0000
  C   C128      1.0  0.7905799142722065  0.4174803363455558  0.19775863073073105  1.0000
  C   C129      1.0  0.7983789034868622  0.4416065498822367  0.2336479489302653  1.0000
  C   C130      1.0  0.7861231153949795  0.42873550137233046  0.27702792367932944  1.0000
  C   C131      1.0  0.7660553190003502  0.3917082372727381  0.2843096836826912  1.0000
  C   C132      1.0  0.7582477134375587  0.3676609992016778  0.248461446995577  1.0000
  H   H85       1.0  0.7993954947431201  0.42772681637102256  0.16442297508695453  1.0000
  H   H86       1.0  0.8139950777976551  0.47025397187460866  0.2278331658457565  1.0000
  H   H87       1.0  0.7558263005195213  0.38147510882068775  0.31741421888720817  1.0000
  H   H88       1.0  0.7428536088477619  0.33920464526306726  0.2548299018203276  1.0000
  C   C133      1.0  0.7403525577239106  0.28931956991154295  0.9262827848828417  1.0000
  C   C134      1.0  0.7125821030363845  0.2857899871225899  0.9544616146201937  1.0000
  C   C135      1.0  0.6761808847472726  0.26404563460966457  0.9412060980574087  1.0000
  C   C136      1.0  0.6674104664987923  0.2460596538136589  0.8995848170327208  1.0000
  C   C137      1.0  0.69515228955857  0.2501362143830461  0.8709602630304794  1.0000
  C   C138      1.0  0.731558129041894  0.27154725693406373  0.8844780030307156  1.0000
  H   H89       1.0  0.7191185967847341  0.2991590260106207  0.9868648280466503  1.0000
  H   H90       1.0  0.6547620298166051  0.2608930863929094  0.9635084723848292  1.0000
  H   H91       1.0  0.6886176354622389  0.23645803237659294  0.8387156251848449  1.0000
  H   H92       1.0  0.7530258555091653  0.27428970321333984  0.8625423804877821  1.0000
  C   C139      1.0  0.7655196841341942  0.47295520066292274  0.008469134978051684  1.0000
  C   C140      1.0  0.737500805321743  0.44508282985920933  0.032790374982642145  1.0000
  C   C141      1.0  0.7064264197169179  0.44689814604719147  0.04414408351935939  1.0000
  C   C142      1.0  0.7036128418108805  0.47687069069233146  0.03203506164118286  1.0000
  C   C143      1.0  0.7316824655764669  0.5046795591818874  0.007815671059015594  1.0000
  C   C144      1.0  0.7623392386757277  0.5025687004323296  0.9957128385002009  1.0000
  H   H93       1.0  0.7397096727624616  0.42215155198426474  0.04284711430393395  1.0000
  H   H94       1.0  0.6851256814517186  0.42542761176668664  0.06297646838599838  1.0000
  H   H95       1.0  0.7298422568017242  0.5280365058383917  0.9985001180942112  1.0000
  H   H96       1.0  0.7839175458736313  0.5242134564436131  0.9769366782558817  1.0000
  N   N1        1.0  0.3694568686834105  0.9081417705463871  0.8544294717306579  1.0000
  C   C145      1.0  0.36495569216713875  0.8812890992845487  0.8887147198422984  1.0000
  C   C146      1.0  0.4084615874050282  0.9344994966915989  0.8490601488391712  1.0000
  C   C147      1.0  0.35001581646741076  0.9268408834400877  0.8687570277651867  1.0000
  C   C148      1.0  0.3543853000914472  0.8898248323039452  0.8109370482100503  1.0000
  H   H97       1.0  0.33588310608912497  0.8604069703576755  0.8928839705993686  1.0000
  H   H98       1.0  0.3756811903109738  0.8939480334785136  0.9221866007495533  1.0000
  H   H99       1.0  0.3794510846037121  0.8667907532129858  0.8789830193790267  1.0000
  H   H100      1.0  0.41293776059796244  0.9547020796216027  0.8226367807436923  1.0000
  H   H101      1.0  0.4208941252353377  0.9492508307991875  0.8809767239980697  1.0000
  H   H102      1.0  0.42386268677930045  0.9211039996048027  0.8385187213764892  1.0000
  H   H103      1.0  0.3529247106112688  0.9472614246296099  0.8434982753300275  1.0000
  H   H104      1.0  0.36066763584034284  0.9409577096283548  0.9015402803279923  1.0000
  H   H105      1.0  0.3204756686792295  0.9076230142875705  0.8728657607432252  1.0000
  H   H106      1.0  0.3570150279541756  0.9091064906768223  0.784137399145721  1.0000
  H   H107      1.0  0.32523445878541446  0.8688995947396109  0.8136968237589189  1.0000
  H   H108      1.0  0.36914380610787967  0.8762975074805617  0.7989157343510234  1.0000
  N   N2        1.0  0.32622388636928035  0.5792411774071224  0.2348078082478886  1.0000
  C   C149      1.0  0.3206719767177233  0.5915822697136728  0.1905740322535824  1.0000
  C   C150      1.0  0.36083004832767784  0.5789816808606434  0.23455606981640806  1.0000
  C   C151      1.0  0.29595196967003373  0.5425325941066276  0.2434486804579448  1.0000
  C   C152      1.0  0.32748826595249997  0.6038775621079103  0.27044841583181006  1.0000
  H   H109      1.0  0.29465927258014396  0.591756018843418  0.1891560030638792  1.0000
  H   H110      1.0  0.31978298593357923  0.5736024277858883  0.16305651431208834  1.0000
  H   H111      1.0  0.342958449721343  0.6192257279209176  0.18295082967896947  1.0000
  H   H112      1.0  0.36625938900756894  0.5702337594343965  0.26753137263684496  1.0000
  H   H113      1.0  0.3606387010784791  0.5603354158836894  0.2083566004888555  1.0000
  H   H114      1.0  0.38425058752413044  0.6060932254722321  0.22734464209216626  1.0000
  H   H115      1.0  0.29950942501275607  0.5320840907991514  0.2762261177532351  1.0000
  H   H116      1.0  0.2939618426488053  0.5234225628695164  0.21664129720886133  1.0000
  H   H117      1.0  0.26942185813610947  0.5417407699513522  0.24445385667337063  1.0000
  H   H118      1.0  0.3018927194484483  0.6049644110817418  0.2712136793630122  1.0000
  H   H119      1.0  0.350373789604866  0.631716077539853  0.26512824405416335  1.0000
  H   H120      1.0  0.331095742242454  0.5950696880699449  0.30440102568465854  1.0000
  N   N3        1.0  0.617951829857436  0.474410598579067  0.9135833850331327  1.0000
  C   C153      1.0  0.5869043129348251  0.4376506820741257  0.9074724969702709  1.0000
  C   C154      1.0  0.6219170868591869  0.4956682701457644  0.8726708941085545  1.0000
  C   C155      1.0  0.6514546282924618  0.4727767118456134  0.9211749719521979  1.0000
  C   C156      1.0  0.6115249285185896  0.4914717763438238  0.9530035647185637  1.0000
  H   H121      1.0  0.5837444393740874  0.4203596430736303  0.9369938626375891  1.0000
  H   H122      1.0  0.5904795952214779  0.42453065286015546  0.8771685733504592  1.0000
  H   H123      1.0  0.5609595309966033  0.4377015892005753  0.9029386435356637  1.0000
  H   H124      1.0  0.6450700632814732  0.5235921158927291  0.8758885942626012  1.0000
  H   H125      1.0  0.6267329674947946  0.48344175742941864  0.8422794203362318  1.0000
  H   H126      1.0  0.5969800998068637  0.4972096888841005  0.8656812152515658  1.0000
  H   H127      1.0  0.657766633928755  0.4609427041445388  0.8916655190818686  1.0000
  H   H128      1.0  0.6489127785338151  0.4560384321714373  0.9510943134577045  1.0000
  H   H129      1.0  0.6752834737775764  0.4999002703458384  0.9274784692193786  1.0000
  H   H130      1.0  0.634408840292843  0.5192882310404453  0.9585589759063122  1.0000
  H   H131      1.0  0.6090290855038706  0.476357424907936  0.9844688879166632  1.0000
  H   H132      1.0  0.5861827819760175  0.4927349129475783  0.948976034343487  1.0000
  N   N4        1.0  0.39861497176665406  0.7207605102455208  0.8989038400837945  1.0000
  C   C157      1.0  0.38890619336425547  0.7492332874400722  0.9016186081070459  1.0000
  C   C158      1.0  0.414990290344895  0.7188781391728021  0.9421047968905505  1.0000
  C   C159      1.0  0.4250434020718636  0.7291351208810452  0.8622968020395093  1.0000
  C   C160      1.0  0.36563280348347926  0.6858574871156984  0.8895661686901759  1.0000
  H   H133      1.0  0.37664027025427393  0.751488191733076  0.8695192104996268  1.0000
  H   H134      1.0  0.4131502601937863  0.7759898968121496  0.9083726278242459  1.0000
  H   H135      1.0  0.36874025562591856  0.7436719407495305  0.9286615324541537  1.0000
  H   H136      1.0  0.42441263109359073  0.6990577704544659  0.9402511804352897  1.0000
  H   H137      1.0  0.43905470201922625  0.7451683755211851  0.9511677522817782  1.0000
  H   H138      1.0  0.39523788088524076  0.710538704125983  0.9702429325821829  1.0000
  H   H139      1.0  0.4504413542982153  0.7551863416993893  0.8682964365354  1.0000
  H   H140      1.0  0.4138085138731689  0.7311818260759472  0.8292570253468527  1.0000
  H   H141      1.0  0.4328098509266377  0.7080891629029136  0.858764528205923  1.0000
  H   H142      1.0  0.3446343854479644  0.6790746043717407  0.9159046919476613  1.0000
  H   H143      1.0  0.3718099020819313  0.6636061238759778  0.8884929220678567  1.0000
  H   H144      1.0  0.35318592570317897  0.6861109928817967  0.8565653261430065  1.0000
  N   N5        1.0  0.8599845215256073  0.4681235583439604  0.6002501259581864  1.0000
  C   C161      1.0  0.8616167534879304  0.43680990495355093  0.5827212516039652  1.0000
  C   C162      1.0  0.8964133630251409  0.4955743499624621  0.616341263035408  1.0000
  C   C163      1.0  0.8337407046591623  0.45655070187027574  0.6376360062043358  1.0000
  C   C164      1.0  0.8481147510336888  0.4834912173434551  0.5639457876763128  1.0000
  H   H145      1.0  0.8808620542213981  0.4444888709325754  0.554052862725635  1.0000
  H   H146      1.0  0.8345386135637143  0.4154666982137663  0.5704130316654442  1.0000
  H   H147      1.0  0.8707209993554456  0.4246117901728429  0.6090509832431872  1.0000
  H   H148      1.0  0.8963427260189505  0.5197635032856384  0.6295081385567902  1.0000
  H   H149      1.0  0.9063897713232331  0.48495686968986534  0.6436964446918085  1.0000
  H   H150      1.0  0.9165751629645317  0.5045587467631226  0.5884396097353043  1.0000
  H   H151      1.0  0.831509453836362  0.47941572985533026  0.6514635695160661  1.0000
  H   H152      1.0  0.8417247991354491  0.4446972664984369  0.665666602037908  1.0000
  H   H153      1.0  0.8060738789548322  0.43575601549795306  0.6260128188374995  1.0000
  H   H154      1.0  0.8674179417330303  0.4926777566392617  0.5352230192955296  1.0000
  H   H155      1.0  0.8462312559717493  0.5069974464858757  0.57593236348213  1.0000
  H   H156      1.0  0.8208789312269704  0.46336076328896747  0.5506708153152952  1.0000
  N   N6        1.0  0.4603142128120214  0.6892767519709534  0.5781225034061463  1.0000
  C   C165      1.0  0.43019397444154667  0.6874511595611345  0.5509524627408389  1.0000
  C   C166      1.0  0.4665792357993054  0.6597507672744014  0.5646263403996117  1.0000
  C   C167      1.0  0.4509241612374065  0.6858327007517117  0.626465540391033  1.0000
  C   C168      1.0  0.4936287673031303  0.7241000185301949  0.5704505806344488  1.0000
  H   H157      1.0  0.4228161370403318  0.7074462624062627  0.5625935258727812  1.0000
  H   H158      1.0  0.4052976933275433  0.6606529510558752  0.5534105345481258  1.0000
  H   H159      1.0  0.43739067884634064  0.6927638212780151  0.514665880857625  1.0000
  H   H160      1.0  0.4418385074788302  0.6330700040983589  0.5697487801974107  1.0000
  H   H161      1.0  0.4738266555856734  0.6615737652866637  0.528389797884835  1.0000
  H   H162      1.0  0.4888029780229414  0.6599876969448188  0.5848823253390347  1.0000
  H   H163      1.0  0.4256501137002528  0.6600683098857448  0.6334352507073481  1.0000
  H   H164      1.0  0.44649215160987565  0.7079639688108982  0.6380174228891882  1.0000
  H   H165      1.0  0.47282070277687993  0.6864986830636476  0.6479589537272759  1.0000
  H   H166      1.0  0.5168697139935234  0.7264162941268248  0.590586700579307  1.0000
  H   H167      1.0  0.48977838244282584  0.7469156840300811  0.5801635300512917  1.0000
  H   H168      1.0  0.5014309606792755  0.7278253690069453  0.5342627453687612  1.0000
  N   N7        1.0  0.28958427981843654  0.7253416865373201  0.2980462062232174  1.0000
  C   C169      1.0  0.29887920975494914  0.7000129575291402  0.319767528288538  1.0000
  C   C170      1.0  0.28763534969205035  0.7198559156036458  0.24866728785791392  1.0000
  C   C171      1.0  0.3177326652099617  0.762660240535018  0.3088312138665683  1.0000
  C   C172      1.0  0.25421061485891033  0.71894627968381  0.31480981863908425  1.0000
  H   H169      1.0  0.32579453956784904  0.7046467548312672  0.30838228978408383  1.0000
  H   H170      1.0  0.2783827326526171  0.671585911593959  0.31172970496897695  1.0000
  H   H171      1.0  0.30004758828932226  0.7027613478620807  0.3570446732643817  1.0000
  H   H172      1.0  0.31421114272754014  0.7250984788397087  0.23507324552725414  1.0000
  H   H173      1.0  0.2670948250161329  0.6917769558321288  0.2392830768001115  1.0000
  H   H174      1.0  0.2800767667099098  0.7379769206001288  0.23091587836447078  1.0000
  H   H175      1.0  0.3116593164998489  0.7824482341529558  0.29275907111714367  1.0000
  H   H176      1.0  0.34481111352474536  0.7685302740165576  0.2968468594495924  1.0000
  H   H177      1.0  0.31999213106695756  0.7679219666144763  0.3457575701935243  1.0000
  H   H178      1.0  0.23221937808816437  0.6912002852769598  0.3072792526345106  1.0000
  H   H179      1.0  0.24642494358730518  0.7376284258130198  0.2990954274738414  1.0000
  H   H180      1.0  0.2547936521602886  0.7227661128641545  0.3520057878238052  1.0000
  N   N8        1.0  0.08770767371552267  0.4387237037886502  0.4880717758053546  1.0000
  C   C173      1.0  0.07897165297241157  0.432230101070663  0.4394353427422946  1.0000
  C   C174      1.0  0.08605978306799629  0.4707624268170705  0.502408983860641  1.0000
  C   C175      1.0  0.12465041889474457  0.4447707319639789  0.4964369311762457  1.0000
  C   C176      1.0  0.06111613572309518  0.4072595540978435  0.5140043381941454  1.0000
  H   H181      1.0  0.09872906094489811  0.45537811067886946  0.4188282798232647  1.0000
  H   H182      1.0  0.05169484482128448  0.4286718736083267  0.4317220767103431  1.0000
  H   H183      1.0  0.07937887161205168  0.40796421172633596  0.4273453848336865  1.0000
  H   H184      1.0  0.058608209432131395  0.46733168806283487  0.4965611287539699  1.0000
  H   H185      1.0  0.09316603858683839  0.4770859525653669  0.5386981808704947  1.0000
  H   H186      1.0  0.10536050072746284  0.49466969776464  0.48286004177437314  1.0000
  H   H187      1.0  0.13253455367411168  0.4505446983479255  0.5326674054931053  1.0000
  H   H188      1.0  0.1453776278921842  0.4682735634289904  0.47721354470356153  1.0000
  H   H189      1.0  0.12699834793253864  0.421116795690646  0.4863431167311913  1.0000
  H   H190      1.0  0.03299623451108909  0.40209480631079625  0.5083533519752715  1.0000
  H   H191      1.0  0.06690824890429385  0.4113943275040963  0.5508498656581295  1.0000
  H   H192      1.0  0.06159087944615959  0.3825441209337415  0.5040588627321865  1.0000
  N   N9        1.0  0.5446678099474032  0.0869383535802282  0.532157896460772  1.0000
  C   C177      1.0  0.5460667081434875  0.061350489482806476  0.5001097969678117  1.0000
  C   C178      1.0  0.5285485647561198  0.10641968342770565  0.5096497882852155  1.0000
  C   C179      1.0  0.5818238144029585  0.11281263326886413  0.5476814959773078  1.0000
  C   C180      1.0  0.522275431065563  0.0672080432492097  0.5713421969620989  1.0000
  H   H193      1.0  0.5581736814069083  0.04624358036677801  0.5157705222974668  1.0000
  H   H194      1.0  0.5626453809043377  0.07544594353651346  0.4700253859775217  1.0000
  H   H195      1.0  0.5185033668015151  0.041431685072135016  0.4874493048144129  1.0000
  H   H196      1.0  0.5271144933489134  0.12606632541275836  0.5327696969250355  1.0000
  H   H197      1.0  0.5447711010904989  0.12185646372703689  0.4801333279405763  1.0000
  H   H198      1.0  0.5007185961848851  0.0876635183955585  0.4966798628831906  1.0000
  H   H199      1.0  0.5815870973408663  0.131638786671717  0.5730827059838584  1.0000
  H   H200      1.0  0.5992092895310521  0.1291992382351731  0.519289483011254  1.0000
  H   H201      1.0  0.5953095421302818  0.09912372767647835  0.5637147343922886  1.0000
  H   H202      1.0  0.5207683734397985  0.08587383909232259  0.5961661116028704  1.0000
  H   H203      1.0  0.5337464132176281  0.05236463815529231  0.5893173445585969  1.0000
  H   H204      1.0  0.49403434776989336  0.047408305229230056  0.5608059179056158  1.0000
  N   N10       1.0  0.7400880873067227  0.3870180424299379  0.8818919188278446  1.0000
  C   C181      1.0  0.7416991502497606  0.41745088542884734  0.9070507751776443  1.0000
  C   C182      1.0  0.7053403177530008  0.3539733531162492  0.8912759024157021  1.0000
  C   C183      1.0  0.7705920855974796  0.3820288100798674  0.8961628042835385  1.0000
  C   C184      1.0  0.7427429466572868  0.3946549484468107  0.8330800416264116  1.0000
  H   H205      1.0  0.7682597194707043  0.4425274022327211  0.9025731694351562  1.0000
  H   H206      1.0  0.7383145595649419  0.4119590904583699  0.9438896906910239  1.0000
  H   H207      1.0  0.7201724128145532  0.4231700107990891  0.8956447684802676  1.0000
  H   H208      1.0  0.7034842447013739  0.33030148641845036  0.8734662900966738  1.0000
  H   H209      1.0  0.7022238608416326  0.34768403057559  0.9279360503222773  1.0000
  H   H210      1.0  0.6817552259728339  0.3566804281510546  0.8803014540708218  1.0000
  H   H211      1.0  0.7689115084109924  0.3753389463052908  0.9325477810848362  1.0000
  H   H212      1.0  0.7972935657899393  0.40674801108648073  0.8909353981748505  1.0000
  H   H213      1.0  0.770772662488069  0.3597119572670044  0.8773478313780502  1.0000
  H   H214      1.0  0.7416078383744364  0.3721859625775736  0.813129867787305  1.0000
  H   H215      1.0  0.7685746229200907  0.4195307508583596  0.8249422391747221  1.0000
  H   H216      1.0  0.7200301550143486  0.3985028672966883  0.8212164735511193  1.0000
  N   N11       1.0  0.6321164453832119  0.12288671615450875  0.9124267566409161  1.0000
  C   C185      1.0  0.63472363404829  0.11097440250794362  0.9583057316413637  1.0000
  C   C186      1.0  0.6322901217652251  0.0974963811868958  0.8789137017590819  1.0000
  C   C187      1.0  0.6633510927181508  0.15922460853349274  0.9046491163536099  1.0000
  C   C188      1.0  0.5980087336825521  0.12383459787793843  0.9079781956419549  1.0000
  H   H217      1.0  0.6115763345032929  0.08362960698504919  0.9652815741026737  1.0000
  H   H218      1.0  0.6345341836297913  0.12952973577856713  0.9843649959177039  1.0000
  H   H219      1.0  0.6602380576399322  0.11007568961976502  0.9628921645770181  1.0000
  H   H220      1.0  0.6303892732532902  0.10563189609478073  0.8438654531324022  1.0000
  H   H221      1.0  0.6574897772262019  0.09582434188632513  0.8813083000334389  1.0000
  H   H222      1.0  0.6086445485305386  0.06994761489435371  0.8832477230859861  1.0000
  H   H223      1.0  0.6621167465024237  0.16929833265467856  0.8705495916434816  1.0000
  H   H224      1.0  0.6896469860599439  0.15966282791194986  0.9074381872585622  1.0000
  H   H225      1.0  0.6639596317128383  0.17906571252970013  0.9293140261758105  1.0000
  H   H226      1.0  0.595196703377913  0.13257091073960878  0.8737575970963217  1.0000
  H   H227      1.0  0.5970253006275389  0.14307671931703755  0.9322657590828318  1.0000
  H   H228      1.0  0.5737701315262099  0.0968568345799462  0.913266821140692  1.0000
  N   N12       1.0  0.4676066261382968  0.5605425023961393  0.9298500750843938  1.0000
  C   C189      1.0  0.4366151907343282  0.5292318058388804  0.9511276477179674  1.0000
  C   C190      1.0  0.49947597385692133  0.5554755171872537  0.9301274374059231  1.0000
  C   C191      1.0  0.4763605552284944  0.5934666729485851  0.9553825006922356  1.0000
  C   C192      1.0  0.4579493355682907  0.5639735088190573  0.8828792621113987  1.0000
  H   H229      1.0  0.4121099110460243  0.5322433479614899  0.9516563656590419  1.0000
  H   H230      1.0  0.44303794413944597  0.5258049914939281  0.9866430671968334  1.0000
  H   H231      1.0  0.42920578430892037  0.5039091281395773  0.9327173645030683  1.0000
  H   H232      1.0  0.493856199505943  0.5308665498710669  0.9111669002134751  1.0000
  H   H233      1.0  0.5234312496214735  0.5787320852386809  0.9145956135839266  1.0000
  H   H234      1.0  0.5072587351079542  0.5526707755624155  0.9652295885886297  1.0000
  H   H235      1.0  0.45268490169151193  0.5976260578192947  0.9569591808728712  1.0000
  H   H236      1.0  0.49907012991007643  0.6178057810898011  0.9398109023023605  1.0000
  H   H237      1.0  0.4843699061591309  0.5921057724075641  0.9907860115764653  1.0000
  H   H238      1.0  0.48045343464664025  0.5876123165897291  0.8658031259883783  1.0000
  H   H239      1.0  0.4337433812224982  0.5674075153104959  0.8815805737459834  1.0000
  H   H240      1.0  0.4513599258469541  0.5397120812492572  0.8624272393242197  1.0000
  N   N13       1.0  0.5171301603804669  0.23295740934677184  0.8653381568487181  1.0000
  C   C193      1.0  0.5132485265952049  0.2584187205424756  0.8355970024402241  1.0000
  C   C194      1.0  0.5267251762673317  0.2478497888480124  0.9115420658348087  1.0000
  C   C195      1.0  0.5460977126757168  0.22689609018634013  0.8480878000983174  1.0000
  C   C196      1.0  0.48249809252239817  0.1984805679792367  0.8659722283979131  1.0000
  H   H241      1.0  0.5395519695140936  0.2837185003952909  0.8312537584995994  1.0000
  H   H242      1.0  0.4933388812026647  0.26553064943992  0.8491877465184027  1.0000
  H   H243      1.0  0.5034425667135861  0.2467800735789603  0.8014244580647635  1.0000
  H   H244      1.0  0.5065335469769484  0.2545819525816448  0.9252527661933009  1.0000
  H   H245      1.0  0.5283949150063083  0.2286652085442698  0.9352090998644876  1.0000
  H   H246      1.0  0.553661917027461  0.27285727998503595  0.9125204234049555  1.0000
  H   H247      1.0  0.550041767168564  0.2082204088883795  0.8701608213189965  1.0000
  H   H248      1.0  0.5726552017506402  0.2523364946406001  0.8464153487733842  1.0000
  H   H249      1.0  0.5395209020940318  0.21504581375717105  0.8136747417226803  1.0000
  H   H250      1.0  0.4599860802265444  0.20209056691927957  0.8787146803561262  1.0000
  H   H251      1.0  0.4844311898613339  0.17847262093782423  0.8878115145258857  1.0000
  H   H252      1.0  0.474740094103788  0.18652856576018537  0.8314661125134887  1.0000
  N   N14       1.0  0.4928209120384271  0.3515957982378631  0.2447756655516861  1.0000
  C   C197      1.0  0.524298096754876  0.3868830168043785  0.2334472659174591  1.0000
  C   C198      1.0  0.48043889571188353  0.35307581214938305  0.2907340523858532  1.0000
  C   C199      1.0  0.5035353445188416  0.3237811223497539  0.2427968618552254  1.0000
  C   C200      1.0  0.4630990878976588  0.34282049651219243  0.21212824905069666  1.0000
  H   H253      1.0  0.5337974687906872  0.38668630871758947  0.19881103065725572  1.0000
  H   H254      1.0  0.5476411000536541  0.39426621825604957  0.256685607346671  1.0000
  H   H255      1.0  0.5173017605209012  0.4086154703403322  0.23442489623516596  1.0000
  H   H256      1.0  0.47218774075760894  0.3738399251904667  0.29331101334127446  1.0000
  H   H257      1.0  0.45668753263891393  0.32685493813307365  0.3004361778305471  1.0000
  H   H258      1.0  0.5023078003055377  0.35978549423918565  0.31613613899145415  1.0000
  H   H259      1.0  0.5132080428839183  0.3220275565636754  0.20865088978431087  1.0000
  H   H260      1.0  0.48052948902730175  0.29671463265390335  0.2511466762812733  1.0000
  H   H261      1.0  0.5262064985811357  0.3297924921048974  0.26667766631103434  1.0000
  H   H262      1.0  0.4386811382061675  0.31649979010773727  0.2196207045394523  1.0000
  H   H263      1.0  0.4715037945469872  0.3415484007949302  0.17703148146135508  1.0000
  H   H264      1.0  0.4549085123233829  0.36371826064095336  0.21210590141208957  1.0000
  N   N15       1.0  0.3872251702987161  0.8606620542057587  0.5654551317744062  1.0000
  C   C201      1.0  0.41678606338306173  0.8523144785543573  0.5704664610736541  1.0000
  C   C202      1.0  0.3523760922400479  0.8270243468845822  0.5583999458367112  1.0000
  C   C203      1.0  0.39448862019190983  0.8843617776048827  0.5261341966139054  1.0000
  C   C204      1.0  0.3852289592778356  0.8788237999423189  0.6067832807812283  1.0000
  H   H265      1.0  0.4124871662243508  0.835094731499404  0.6003794359632655  1.0000
  H   H266      1.0  0.4436300916426219  0.8770872090022673  0.5749108168560826  1.0000
  H   H267      1.0  0.41857155103119137  0.8377378145766021  0.5404578774973845  1.0000
  H   H268      1.0  0.32957806886894625  0.8323110046621046  0.5530583803623036  1.0000
  H   H269      1.0  0.35332786434613583  0.8122055983428285  0.5281195723767547  1.0000
  H   H270      1.0  0.34549864584325424  0.8087467538918403  0.5877938259157932  1.0000
  H   H271      1.0  0.3956071686400009  0.8710778892939252  0.4944198321123651  1.0000
  H   H272      1.0  0.42078971534386306  0.909864891015457  0.5297932328377675  1.0000
  H   H273      1.0  0.3727275623768444  0.8912402517896261  0.521323810185869  1.0000
  H   H274      1.0  0.37969458760869074  0.8615159130605633  0.6370353268065351  1.0000
  H   H275      1.0  0.363288848537524  0.8856454773411786  0.6043479701443265  1.0000
  H   H276      1.0  0.41119713992961304  0.9041675745454684  0.6135157877338565  1.0000
  N   N16       1.0  0.24381435224654782  0.5249707431667614  0.920805711221574  1.0000
  C   C205      1.0  0.2733109099823119  0.5564633485725864  0.9443910487095709  1.0000
  C   C206      1.0  0.2253108127085636  0.5370297075424307  0.8889186726334576  1.0000
  C   C207      1.0  0.21744123707678087  0.5004585108537072  0.9542062425291211  1.0000
  C   C208      1.0  0.2590923196032451  0.5059310938977034  0.8957740540565235  1.0000
  H   H277      1.0  0.2939520726651125  0.5754360912525825  0.9202876820916118  1.0000
  H   H278      1.0  0.28753884471498325  0.5483137864828618  0.9692323079438631  1.0000
  H   H279      1.0  0.26262282220107924  0.5716877059295591  0.9630379455160187  1.0000
  H   H280      1.0  0.21222536512270765  0.5502410975642554  0.906903379770568  1.0000
  H   H281      1.0  0.24472517530715343  0.5568940001354338  0.8644764554634834  1.0000
  H   H282      1.0  0.20363291228641012  0.5141496352797194  0.8694763816815474  1.0000
  H   H283      1.0  0.2303513914355676  0.49091479255653464  0.9791883043078887  1.0000
  H   H284      1.0  0.19459067246222794  0.4764022571529403  0.9379143136771104  1.0000
  H   H285      1.0  0.2054859606238781  0.5140718120672851  0.9736427731259963  1.0000
  H   H286      1.0  0.2376939450849831  0.48249364983215454  0.876780512627475  1.0000
  H   H287      1.0  0.272384549101178  0.495618841735904  0.9189643532229698  1.0000
  H   H288      1.0  0.2797643957307166  0.5238949545039893  0.8709074791639392  1.0000
  N   N17       1.0  0.6688111758121239  0.25146217646485985  0.21517400549907534  1.0000
  C   C209      1.0  0.6764938185890195  0.24770100554515959  0.1676075650972691  1.0000
  C   C210      1.0  0.6999997631163073  0.2575260638125447  0.24365953706644267  1.0000
  C   C211      1.0  0.6360474019467237  0.21830005683988657  0.22977537610650817  1.0000
  C   C212      1.0  0.6626972346136714  0.2822680672377148  0.21968510699981622  1.0000
  H   H289      1.0  0.6534928580599976  0.24312474185287036  0.14519501503641122  1.0000
  H   H290      1.0  0.6813235739087496  0.22474405418592622  0.1631347854749273  1.0000
  H   H291      1.0  0.7011133857532679  0.2723676879529847  0.15556376487427265  1.0000
  H   H292      1.0  0.7256527270525258  0.28116039431379264  0.23216104558185469  1.0000
  H   H293      1.0  0.695798589700289  0.2620691908920095  0.27953671302329436  1.0000
  H   H294      1.0  0.7041407666903146  0.23392677520773186  0.24303177918859484  1.0000
  H   H295      1.0  0.6288639755207829  0.22076614861491928  0.2649895167964566  1.0000
  H   H296      1.0  0.6400492269110897  0.19463128172255445  0.22870937255674156  1.0000
  H   H297      1.0  0.612025203522052  0.21219109036403835  0.20840608194798843  1.0000
  H   H298      1.0  0.6578614146847862  0.2865077824048363  0.2554344028782717  1.0000
  H   H299      1.0  0.6385174241944641  0.2779499841257443  0.19987120349867324  1.0000
  H   H300      1.0  0.6864669022141843  0.3075761909495678  0.2076010384684264  1.0000
  N   N18       1.0  0.7102108519379826  0.4479996900204138  0.19392437874560878  1.0000
  C   C213      1.0  0.6785215500453935  0.4498177659117633  0.17684423080657663  1.0000
  C   C214      1.0  0.7358503001740815  0.4554746646291525  0.15656025453566233  1.0000
  C   C215      1.0  0.697877279085613  0.41168759144399486  0.21203499759493608  1.0000
  C   C216      1.0  0.7283337635696807  0.4749169284540977  0.23016107462175348  1.0000
  H   H301      1.0  0.6581386108396665  0.4435431742025128  0.20381663396444855  1.0000
  H   H302      1.0  0.6647163575991843  0.43013450640138384  0.14909686554449053  1.0000
  H   H303      1.0  0.686461297017987  0.4768759341600949  0.16318147313052878  1.0000
  H   H304      1.0  0.7619336381823945  0.458624267318942  0.16881511178864889  1.0000
  H   H305      1.0  0.7246267314735786  0.4333122082513119  0.13133306662004804  1.0000
  H   H306      1.0  0.7423130182859614  0.4806884867447445  0.13853466160738317  1.0000
  H   H307      1.0  0.7209957065114332  0.4090507225627213  0.224711338103465  1.0000
  H   H308      1.0  0.683391250903568  0.39053299528773183  0.1859266872622132  1.0000
  H   H309      1.0  0.6787835138166225  0.405408433629945  0.24059827940480388  1.0000
  H   H310      1.0  0.7518661233483466  0.4736125023936409  0.24468949638608053  1.0000
  H   H311      1.0  0.7094911091163454  0.4704006452304504  0.258474085643704  1.0000
  H   H312      1.0  0.738651079138845  0.5026862925234459  0.21748735869967897  1.0000
  N   N19       1.0  0.6143657849771724  0.3097278029301214  0.5796553127141401  1.0000
  C   C217      1.0  0.622449189967734  0.3396661589775105  0.5486333206192562  1.0000
  C   C218      1.0  0.5764040844838916  0.2807130496991373  0.5729009603378173  1.0000
  C   C219      1.0  0.619149579060814  0.32262421978759825  0.6267023517409153  1.0000
  C   C220      1.0  0.6393623647240134  0.29598593883728436  0.5705301816519334  1.0000
  H   H313      1.0  0.6509872063378296  0.3619767708474349  0.5527058589424797  1.0000
  H   H314      1.0  0.6043773869203831  0.35099058027525887  0.5548894216156243  1.0000
  H   H315      1.0  0.6187706638632734  0.3306403621014835  0.5128284157770401  1.0000
  H   H316      1.0  0.5690087977145631  0.25843095976742614  0.5971594456370325  1.0000
  H   H317      1.0  0.5569387692251846  0.2905402680657487  0.5782296327082266  1.0000
  H   H318      1.0  0.5718766166691855  0.2691310849851999  0.5382697862747462  1.0000
  H   H319      1.0  0.6135229227346432  0.3007291570439758  0.650992675989684  1.0000
  H   H320      1.0  0.6001918007532845  0.33263253700422213  0.6346358597848052  1.0000
  H   H321      1.0  0.6472855677469808  0.34485463144168915  0.6330998845336948  1.0000
  H   H322      1.0  0.6682991390193205  0.31749876390572257  0.5740991884843869  1.0000
  H   H323      1.0  0.6356406708049046  0.28500072490547695  0.5356361769300355  1.0000
  H   H324      1.0  0.6347917528702092  0.2739934174764134  0.5940651580112386  1.0000
  N   N20       1.0  0.2594093252024887  0.6539201509347399  0.5883330495782854  1.0000
  C   C221      1.0  0.2234816557998626  0.6209406452840089  0.5859111920039618  1.0000
  C   C222      1.0  0.2546024709573008  0.6848247492571314  0.5991993044342708  1.0000
  C   C223      1.0  0.277600428638843  0.6599885739713606  0.5443737923273837  1.0000
  C   C224      1.0  0.28189375019956436  0.6499214551345301  0.6234916068461395  1.0000
  H   H325      1.0  0.22599056244697308  0.5970188445760595  0.5778562760396486  1.0000
  H   H326      1.0  0.20607714827433735  0.6230721965818405  0.5592943775748964  1.0000
  H   H327      1.0  0.20880067298085134  0.6155861126086283  0.61841198079154  1.0000
  H   H328      1.0  0.23667907850704223  0.6877131458991068  0.5740477994807139  1.0000
  H   H329      1.0  0.2423375178928472  0.6819682124136348  0.6330254994212966  1.0000
  H   H330      1.0  0.2809352392799995  0.7104209131197196  0.5991669587983968  1.0000
  H   H331      1.0  0.2803179024575555  0.6365910480656397  0.5341756105560778  1.0000
  H   H332      1.0  0.3053466784514495  0.6837655712873235  0.5454063889457564  1.0000
  H   H333      1.0  0.2620846932444746  0.6645908282170703  0.517542778612897  1.0000
  H   H334      1.0  0.30908117744256586  0.6745936010566103  0.6264161041502521  1.0000
  H   H335      1.0  0.2863251716708658  0.6270142173970734  0.615814082360206  1.0000
  H   H336      1.0  0.2689277009177015  0.6450063933891368  0.6571637373306108  1.0000
  N   N21       1.0  0.5117538401228312  0.8517639277034558  0.2352404655451429  1.0000
  C   C225      1.0  0.5004427296425392  0.8132523031549111  0.23864452106030964  1.0000
  C   C226      1.0  0.48041790155636066  0.8566120600743495  0.24463800904681357  1.0000
  C   C227      1.0  0.5250695165520819  0.8646006965923133  0.18927397909777363  1.0000
  C   C228      1.0  0.5410175952903012  0.8726642648307846  0.2683487914811992  1.0000
  H   H337      1.0  0.4780977159400052  0.7966292212357539  0.21445147435187414  1.0000
  H   H338      1.0  0.49012806605550463  0.8026087135882504  0.2728396803230096  1.0000
  H   H339      1.0  0.5233026942572299  0.8083988238765418  0.23174501613931456  1.0000
  H   H340      1.0  0.48787805803522694  0.8853698074608166  0.24257871470154116  1.0000
  H   H341      1.0  0.45741998082569935  0.8407388683315152  0.2209778252729782  1.0000
  H   H342      1.0  0.47014131258080877  0.8476411485249505  0.27919666013698546  1.0000
  H   H343      1.0  0.533818916715023  0.8935855878547242  0.18562225938095836  1.0000
  H   H344      1.0  0.5035638084884462  0.8494273562850574  0.16353461087618093  1.0000
  H   H345      1.0  0.5487095030549693  0.8612835931775094  0.18102020615486808  1.0000
  H   H346      1.0  0.5496703534538593  0.9017731762513312  0.26729389087157185  1.0000
  H   H347      1.0  0.5652887833691261  0.8699380772922585  0.26230883022566664  1.0000
  H   H348      1.0  0.5319242312214338  0.8637428092429674  0.30346253278076585  1.0000
  N   N22       1.0  0.8648826461353255  0.37477003758287464  0.2313793290935106  1.0000
  C   C229      1.0  0.8622317246473501  0.3991156564258683  0.2643268374456323  1.0000
  C   C230      1.0  0.8974976431162947  0.3721441868776677  0.24156421223405825  1.0000
  C   C231      1.0  0.8675182805631526  0.38895830793539027  0.18530461712056237  1.0000
  C   C232      1.0  0.8322559077457415  0.33876700615928373  0.23461809668859016  1.0000
  H   H349      1.0  0.8598425278194288  0.3888642137100823  0.29933589044813946  1.0000
  H   H350      1.0  0.8379557746163776  0.401765683527696  0.25783528635659975  1.0000
  H   H351      1.0  0.8864167785312812  0.42654053169517725  0.26327466986017445  1.0000
  H   H352      1.0  0.9003564453150843  0.3539311648580258  0.21737724882906828  1.0000
  H   H353      1.0  0.922629249134818  0.39886716523530324  0.23947674929529705  1.0000
  H   H354      1.0  0.8962548998876901  0.3615386347805359  0.27620547346631086  1.0000
  H   H355      1.0  0.8699804633181301  0.3714635229322797  0.15954531286243626  1.0000
  H   H356      1.0  0.8916877949134576  0.41623279559499626  0.18158676312653665  1.0000
  H   H357      1.0  0.8431423940623939  0.3909043128985358  0.17639925504761883  1.0000
  H   H358      1.0  0.833200213915641  0.3196025508788998  0.21024624366033262  1.0000
  H   H359      1.0  0.8071330202896261  0.33977717639966515  0.22741827558748304  1.0000
  H   H360      1.0  0.829416240221654  0.3274380358282584  0.2690960808251222  1.0000
  N   N23       1.0  0.6209598042123208  0.5380848397657738  0.6261207545337582  1.0000
  C   C233      1.0  0.5808598707733923  0.5172816161008086  0.627041641068993  1.0000
  C   C234      1.0  0.6354663916550591  0.5393477361481351  0.6718829305883199  1.0000
  C   C235      1.0  0.632934893152257  0.5750258069849586  0.610804900964725  1.0000
  C   C236      1.0  0.6345902556662885  0.5207667422393075  0.5948937197484443  1.0000
  H   H361      1.0  0.5687994159406693  0.5155031876480162  0.5931032282223078  1.0000
  H   H362      1.0  0.5696541379366377  0.5296387545312667  0.6502858967200071  1.0000
  H   H363      1.0  0.5708061967105047  0.48936217758216205  0.6389290517726998  1.0000
  H   H364      1.0  0.6270632520629279  0.5119430404123401  0.6843797967740803  1.0000
  H   H365      1.0  0.6656446341292643  0.5548774990949565  0.6726679831705059  1.0000
  H   H366      1.0  0.6253050731916167  0.5517244971530897  0.6965923450811221  1.0000
  H   H367      1.0  0.6222968669080791  0.5750788165326164  0.5764466220989175  1.0000
  H   H368      1.0  0.6630697547015771  0.5915016211370304  0.6096691315378698  1.0000
  H   H369      1.0  0.6231280095544236  0.5887920775300474  0.6338316352540332  1.0000
  H   H370      1.0  0.6648050582644828  0.5352456808305313  0.5941458551568164  1.0000
  H   H371      1.0  0.6245770480861503  0.5196356359639962  0.5598779995818689  1.0000
  H   H372      1.0  0.6257764215043143  0.4927197867949573  0.6052109589458057  1.0000
  N   N24       1.0  0.07088345948078278  0.5854042946186515  0.1428354319409863  1.0000
  C   C237      1.0  0.04787669500662606  0.5987559016020846  0.16202761445249353  1.0000
  C   C238      1.0  0.08700557818020416  0.6044939575130182  0.10027857185660295  1.0000
  C   C239      1.0  0.04848010511665768  0.546485120672738  0.13373272699599598  1.0000
  C   C240      1.0  0.10009336440309635  0.5918453719351662  0.17522642153312543  1.0000
  H   H373      1.0  0.035215622786101575  0.5848847180315997  0.19415515182717874  1.0000
  H   H374      1.0  0.025547694877294358  0.594181729216357  0.13832035142040344  1.0000
  H   H375      1.0  0.06396305388616219  0.6280849413437903  0.16921325061729042  1.0000
  H   H376      1.0  0.10449079940096628  0.6339218631855476  0.10573785564172881  1.0000
  H   H377      1.0  0.10431030215632342  0.594955784772314  0.08467367513085929  1.0000
  H   H378      1.0  0.06577245303593715  0.59995978971744  0.07478739534822375  1.0000
  H   H379      1.0  0.026301190296648347  0.5406077071307783  0.10910236945224629  1.0000
  H   H380      1.0  0.03576402793624123  0.5310801382230939  0.16494391538152092  1.0000
  H   H381      1.0  0.06505690276692166  0.5355944055081376  0.11918948057510816  1.0000
  H   H382      1.0  0.11772314230125835  0.581699040350852  0.1619749753353152  1.0000
  H   H383      1.0  0.08902425063195163  0.5781814416574748  0.20793488669098842  1.0000
  H   H384      1.0  0.11811308455556224  0.6210186415011785  0.18214144869345608  1.0000
