data_image0
_chemical_formula_structural       FeS2FeS2FeSFeS3FeS2FeS2FeSFeS3FeS2FeS2FeSFeS3FeS2FeS2FeSFeS3FeS2FeS2FeSFeS3FeS2FeS2FeSFeS3FeS2FeS2FeSFeS3FeS2FeS2FeSFeS3FeS2FeS2FeSFeS3FeS2FeS2FeSFeS3FeS2FeS2FeSFeS3FeS2FeS2FeSFeS3FeS2FeS2FeSFeS3FeS2FeS2FeSFeS3FeS2FeS2FeSFeS3FeS2FeS2FeSFeS3C6H4C6H4C6H4C6H4C6H4C6H4C6H4C6H4C6H4C6H4C6H4C6H4C6H4C6H4C6H4C6H4C6H4C6H4C6H4C6H4C6H4C6H4C6H4C6H4C6H4C6H4C6H4C6H4C6H4C6H4C6H4C6H4NC4H12NC4H12NC4H12NC4H12NC4H12NC4H12NC4H12NC4H12NC4H12NC4H12NC4H12NC4H12NC4H12NC4H12NC4H12NC4H12NC4H12NC4H12NC4H12NC4H12NC4H12NC4H12NC4H12NC4H12NC4H12NC4H12NC4H12NC4H12NC4H12NC4H12NC4H12NC4H12
_chemical_formula_sum              "Fe64 S128 C320 H512 N32"
_cell_length_a       39.41726978833177
_cell_length_b       27.039017754157083
_cell_length_c       44.55293831460001
_cell_angle_alpha    90.04424655154996
_cell_angle_beta     80.6732179316914
_cell_angle_gamma    89.8260678169413

_space_group_name_H-M_alt    "P 1"
_space_group_IT_number       1

loop_
  _space_group_symop_operation_xyz
  'x, y, z'

loop_
  _atom_site_type_symbol
  _atom_site_label
  _atom_site_symmetry_multiplicity
  _atom_site_fract_x
  _atom_site_fract_y
  _atom_site_fract_z
  _atom_site_occupancy
  Fe  Fe1       1.0  0.34770431791836787  0.3388690869421127  0.35991595899893386  1.0000
  S   S1        1.0  0.3174227063111725  0.27216805494956386  0.3785195322123834  1.0000
  S   S2        1.0  0.32682865521082927  0.4146592971799904  0.3512831674377848  1.0000
  Fe  Fe2       1.0  0.4162919739506526  0.28640063694381973  0.35772282394161564  1.0000
  S   S3        1.0  0.3919476387421082  0.21610838494168766  0.37706888042000963  1.0000
  S   S4        1.0  0.4733708345756849  0.29537331658170446  0.34355997499211904  1.0000
  Fe  Fe3       1.0  0.35478452733404603  0.22923684636544014  0.3447268844627746  1.0000
  S   S5        1.0  0.3432064794305928  0.16298884372474337  0.31742584355258613  1.0000
  Fe  Fe4       1.0  0.35737477373988596  0.2650962119508824  0.4089687793593304  1.0000
  S   S6        1.0  0.34158897493071894  0.24701107070141298  0.45856525383883806  1.0000
  S   S7        1.0  0.38159120837242305  0.2964436682776384  0.3231507918028668  1.0000
  S   S8        1.0  0.385120340831108  0.33475730554277366  0.3928632468202839  1.0000
  Fe  Fe5       1.0  0.4432167054432335  0.22450041784176378  0.5832945598358595  1.0000
  S   S9        1.0  0.464670735862939  0.2944866556215197  0.5990373874415579  1.0000
  S   S10       1.0  0.4612490886948986  0.20679382263430873  0.5337786111254581  1.0000
  Fe  Fe6       1.0  0.40727775815031847  0.1999603536031134  0.6473249517828549  1.0000
  S   S11       1.0  0.42576563175650445  0.26867411365071286  0.6679866358496787  1.0000
  S   S12       1.0  0.3790260632616063  0.13961856617568832  0.6758718122692149  1.0000
  Fe  Fe7       1.0  0.4123691320730548  0.30586647139378903  0.6263811365458745  1.0000
  S   S13       1.0  0.39091756732449384  0.38220786704306775  0.6223282081208732  1.0000
  Fe  Fe8       1.0  0.47595459457915873  0.2505962123771796  0.6387202355104913  1.0000
  S   S14       1.0  0.5272202043991465  0.25913543289792135  0.6539514252123857  1.0000
  S   S15       1.0  0.38959504890560437  0.23874861303323902  0.607771319727471  1.0000
  S   S16       1.0  0.4587715614589537  0.1792031633112933  0.6207947552029793  1.0000
  Fe  Fe9       1.0  0.3716327024878758  0.08023726746898892  0.9122674894974103  1.0000
  S   S17       1.0  0.3998037206903457  0.009640203786902557  0.898476183835101  1.0000
  S   S18       1.0  0.3520036574930672  0.0961237477985534  0.9614802776989971  1.0000
  Fe  Fe10      1.0  0.377405904377156  0.116812697661752  0.8470037691915335  1.0000
  S   S19       1.0  0.40616457667685135  0.04935719173662686  0.8279772305708382  1.0000
  S   S20       1.0  0.36517409028121955  0.17950359543227654  0.8172075681427518  1.0000
  Fe  Fe11      1.0  0.3677221933493815  0.007872306647592977  0.8613235519412479  1.0000
  S   S21       1.0  0.34382904120554453  0.9386538752018321  0.8460168776719224  1.0000
  Fe  Fe12      1.0  0.4351814361561231  0.05825308996980891  0.8668255263337725  1.0000
  S   S22       1.0  0.49238011312468705  0.04764364168385305  0.8599958358688043  1.0000
  S   S23       1.0  0.3365250621076019  0.07506952001569629  0.8774561688561248  1.0000
  S   S24       1.0  0.40947806451564217  0.12930767073213703  0.8836228771171462  1.0000
  Fe  Fe13      1.0  0.4173199598950734  0.1346241759978212  0.14966846193175704  1.0000
  S   S25       1.0  0.4398956405508012  0.07184206524490544  0.172824557422942  1.0000
  S   S26       1.0  0.38167056990795833  0.19107754684812786  0.1752664606435638  1.0000
  Fe  Fe14      1.0  0.4571009700796297  0.10859632501249167  0.08735053736485596  1.0000
  S   S27       1.0  0.483044834662647  0.044320648530852935  0.10581286063411917  1.0000
  S   S28       1.0  0.4733216537341134  0.12098165658512311  0.03707084209365186  1.0000
  Fe  Fe15      1.0  0.4310574102379804  0.027903674123344047  0.13222298777707767  1.0000
  S   S29       1.0  0.41338964299605535  0.9490114881243058  0.13350547105219696  1.0000
  Fe  Fe16      1.0  0.4893951554521281  0.09467745889828882  0.14433064764267028  1.0000
  S   S30       1.0  0.5382216613072025  0.0931236566230404  0.16425747865340584  1.0000
  S   S31       1.0  0.4042524971457487  0.08863795680834885  0.11103778784719856  1.0000
  S   S32       1.0  0.467784976723908  0.16081279668212745  0.12378758176883939  1.0000
  Fe  Fe17      1.0  0.6011869264435103  0.09670490088522234  0.35799129339166297  1.0000
  S   S33       1.0  0.6169752561481514  0.16179882328456613  0.38354396765385806  1.0000
  S   S34       1.0  0.5510397399428983  0.09147471386397119  0.34060043998105805  1.0000
  Fe  Fe18      1.0  0.6653387410130157  0.03827112698030599  0.3646795520356562  1.0000
  S   S35       1.0  0.6864580043790129  0.09822118242745215  0.3911772703524001  1.0000
  S   S36       1.0  0.6899358650035213  0.9639562531138912  0.354569962986366  1.0000
  Fe  Fe19      1.0  0.6322346539202259  0.10554735250721027  0.41580095894278035  1.0000
  S   S37       1.0  0.6131080579251156  0.1089364291530943  0.46631841228144316  1.0000
  Fe  Fe20      1.0  0.6692875940173503  0.14831012163428317  0.3561540537028455  1.0000
  S   S38       1.0  0.6999654896238475  0.2128100620307937  0.3343649383377461  1.0000
  S   S39       1.0  0.6126369189417317  0.04122312280239382  0.39214281087351316  1.0000
  S   S40       1.0  0.6518890101335607  0.08753178865630495  0.3279445576699663  1.0000
  Fe  Fe21      1.0  0.657948181127107  0.04937115608768067  0.6474778067445357  1.0000
  S   S41       1.0  0.6902054938574933  0.11310627068140636  0.6277398541750154  1.0000
  S   S42       1.0  0.6013290430565551  0.05468878360564816  0.6655636404897776  1.0000
  Fe  Fe22      1.0  0.7184144216680365  0.9785208540618969  0.6395628161174094  1.0000
  S   S43       1.0  0.755919140569836  0.03704184539691502  0.6205108136061787  1.0000
  S   S44       1.0  0.7347282687556954  0.8989516704478745  0.638892744842732  1.0000
  Fe  Fe23      1.0  0.7273301825046015  0.08535433034547173  0.657184767650133  1.0000
  S   S45       1.0  0.7507528359743153  0.1445522232627615  0.6827505362009585  1.0000
  Fe  Fe24      1.0  0.7153273587431929  0.058613991353718004  0.5930971793504041  1.0000
  S   S46       1.0  0.7324005632079057  0.07250828290728785  0.5430599799956817  1.0000
  S   S47       1.0  0.6935012436055408  0.024533863964144812  0.6790766375542527  1.0000
  S   S48       1.0  0.679455780906539  0.997145027257262  0.6099321139123942  1.0000
  Fe  Fe25      1.0  0.6964350272341218  0.19494292493322452  0.8504844929536399  1.0000
  S   S49       1.0  0.6794435702139459  0.2568716670878535  0.8231859774650135  1.0000
  S   S50       1.0  0.7315770549041337  0.13614456821559273  0.8266574460670756  1.0000
  Fe  Fe26      1.0  0.6529864377276082  0.2313438035711166  0.9094154892610257  1.0000
  S   S51       1.0  0.6327473976596459  0.29591735602392477  0.8860410337806469  1.0000
  S   S52       1.0  0.6305473606779579  0.22485936789279407  0.9591205578355566  1.0000
  Fe  Fe27      1.0  0.6271607381923325  0.24170498430977339  0.8491514467828467  1.0000
  S   S53       1.0  0.5803747251188782  0.23978388089124364  0.8261360935475683  1.0000
  Fe  Fe28      1.0  0.6872746996571342  0.3042688865850947  0.8628451764560415  1.0000
  S   S54       1.0  0.7128251571139003  0.3781512809092895  0.8528117090217442  1.0000
  S   S55       1.0  0.6433516039234896  0.17618375563912309  0.8741172133410219  1.0000
  S   S56       1.0  0.7081868493619666  0.24308495800113247  0.8886901697278788  1.0000
  Fe  Fe29      1.0  0.7239624002430253  0.23630200974533214  0.09828495406225268  1.0000
  S   S57       1.0  0.6982803283097041  0.31025250470241045  0.10546982196756086  1.0000
  S   S58       1.0  0.7296110023292773  0.19126949839037732  0.055066889965634136  1.0000
  Fe  Fe30      1.0  0.7413406284769422  0.23382201575301126  0.1627138961899821  1.0000
  S   S59       1.0  0.7176837101691433  0.3083182952673439  0.17503137126532708  1.0000
  S   S60       1.0  0.7616870236176406  0.18219037305997124  0.1954507274958805  1.0000
  Fe  Fe31      1.0  0.6752556587164663  0.28102340780846385  0.1513461926820004  1.0000
  S   S61       1.0  0.6194030442312414  0.29229031768061764  0.17083404521100942  1.0000
  Fe  Fe32      1.0  0.7432592930458406  0.33073386115701014  0.1280879325698418  1.0000
  S   S62       1.0  0.7686338278918391  0.4038569696352658  0.11424179203799004  1.0000
  S   S63       1.0  0.6970109507468304  0.20498193767761783  0.14220471417828034  1.0000
  S   S64       1.0  0.7708180438314456  0.2583708854779179  0.11776149975366676  1.0000
  Fe  Fe33      1.0  0.8651785493332912  0.8852028712874778  0.3722210114371743  1.0000
  S   S65       1.0  0.8276703169198444  0.8282834983303224  0.39409153569565264  1.0000
  S   S66       1.0  0.8495394295278761  0.9580637438000214  0.3541558364255933  1.0000
  Fe  Fe34      1.0  0.9270884782427974  0.8269822825450842  0.3843239290653365  1.0000
  S   S67       1.0  0.8951949424195683  0.765369551878919  0.40736277776667135  1.0000
  S   S68       1.0  0.9846278276892187  0.8268284246452577  0.378874955474072  1.0000
  Fe  Fe35      1.0  0.8650611942015773  0.7736643494252443  0.36894984935043046  1.0000
  S   S69       1.0  0.8516353668052871  0.7037178855862775  0.34601965753876435  1.0000
  Fe  Fe36      1.0  0.8612096609770399  0.8255054775881236  0.4303078755562471  1.0000
  S   S70       1.0  0.8388110398031083  0.8235092370758319  0.4802980953715737  1.0000
  S   S71       1.0  0.8999107421363377  0.8308116427386237  0.3440444037502213  1.0000
  S   S72       1.0  0.8957564902827375  0.886820994951301  0.4105054524531681  1.0000
  Fe  Fe37      1.0  0.9095657677879209  0.8031857247023224  0.6623017154701772  1.0000
  S   S73       1.0  0.8894315960328564  0.7349038318816707  0.6424331702889512  1.0000
  S   S74       1.0  0.8778736925171203  0.8681388614376037  0.6819255686041703  1.0000
  Fe  Fe38      1.0  0.9830059724195727  0.764805033393314  0.6529883547147426  1.0000
  S   S75       1.0  0.9685978810449193  0.6936621158115092  0.6328449691820306  1.0000
  S   S76       1.0  0.03810493771188065  0.7787336064039291  0.6567859369207694  1.0000
  Fe  Fe39      1.0  0.9369386082058164  0.7415761371781204  0.6070181854366073  1.0000
  S   S77       1.0  0.9471809530502068  0.7353074979726623  0.5559161198515289  1.0000
  Fe  Fe40      1.0  0.9233354739002776  0.6948643539540855  0.6705797107820736  1.0000
  S   S78       1.0  0.9070156746316281  0.6257961961266966  0.6976030519259462  1.0000
  S   S79       1.0  0.9542641956051713  0.8129826908035735  0.6249224970281381  1.0000
  S   S80       1.0  0.9404860216029642  0.762828946773194  0.6925902211592926  1.0000
  Fe  Fe41      1.0  0.939126703580428  0.5487553855350821  0.8872836825923095  1.0000
  S   S81       1.0  0.9117828307822738  0.6201949807717688  0.9003234372806587  1.0000
  S   S82       1.0  0.9965324600753603  0.5429933203851183  0.874179928859982  1.0000
  Fe  Fe42      1.0  0.8731032106641942  0.48912864872287953  0.8972130669470307  1.0000
  S   S83       1.0  0.8402662602333381  0.5560901181498608  0.9096491155313068  1.0000
  S   S84       1.0  0.8504854714401998  0.4130580013126935  0.9048560661648302  1.0000
  Fe  Fe43      1.0  0.8746380393728254  0.5926644118919959  0.8709059989424703  1.0000
  S   S85       1.0  0.8574853468381514  0.6488670201760243  0.8392124925454679  1.0000
  Fe  Fe44      1.0  0.8805009995300488  0.5766794973965498  0.9375826825535513  1.0000
  S   S86       1.0  0.862648475381532  0.6019855446514877  0.9856025823927291  1.0000
  S   S87       1.0  0.9039966085827478  0.5233982056863591  0.8554859678000518  1.0000
  S   S88       1.0  0.9113910130216386  0.507590115517108  0.9274847079928066  1.0000
  Fe  Fe45      1.0  0.9121096171079148  0.6482514726161995  0.17980820333888117  1.0000
  S   S89       1.0  0.9277705777796662  0.5872147857335596  0.2084909654541559  1.0000
  S   S90       1.0  0.8793868802905538  0.7107190357798842  0.2022157883166794  1.0000
  Fe  Fe46      1.0  0.9526969449850998  0.6050974950222945  0.12135973119301383  1.0000
  S   S91       1.0  0.9707945835625702  0.5403205430217454  0.1459863361918615  1.0000
  S   S92       1.0  0.9751653776275239  0.610573480291601  0.07162568780138304  1.0000
  Fe  Fe47      1.0  0.9166405914199768  0.537851920028952  0.17078949206361219  1.0000
  S   S93       1.0  0.8881628616871796  0.4674743901573096  0.18508684649323018  1.0000
  Fe  Fe48      1.0  0.9798805422812779  0.5963657295568672  0.1807886025916092  1.0000
  S   S94       1.0  0.028235179166539084  0.5935771572145554  0.20142031301121308  1.0000
  S   S95       1.0  0.8974280410888067  0.598642252141957  0.1435155524645438  1.0000
  S   S96       1.0  0.9654066728923726  0.6615721343875541  0.15457684814024142  1.0000
  Fe  Fe49      1.0  0.1562223161401702  0.5376774549460257  0.4099431962567375  1.0000
  S   S97       1.0  0.18594065662293488  0.5945744496145071  0.431474571586715  1.0000
  S   S98       1.0  0.1715014942675508  0.4576472773496744  0.40653484829692116  1.0000
  Fe  Fe50      1.0  0.0980857389686112  0.6091593781963879  0.40255824745439495  1.0000
  S   S99       1.0  0.12267951718881441  0.671498942992068  0.4242260693385563  1.0000
  S   S100      1.0  0.04778270029856683  0.6135359264557586  0.3847377386327004  1.0000
  Fe  Fe51      1.0  0.17133162885321307  0.6446774083339045  0.3952641450782783  1.0000
  S   S101      1.0  0.20609234170141694  0.7009957710256316  0.3689286407677775  1.0000
  Fe  Fe52      1.0  0.13447886880445706  0.6152298837076047  0.4580286957646102  1.0000
  S   S102      1.0  0.12041358107792884  0.622827356505418  0.5089348051361302  1.0000
  S   S103      1.0  0.14579080083498894  0.5856967342054754  0.3714873046762147  1.0000
  S   S104      1.0  0.10567418574104363  0.5549085719351327  0.4387707705457468  1.0000
  Fe  Fe53      1.0  0.22462193388850715  0.511329261423427  0.6830353923254646  1.0000
  S   S105      1.0  0.2614532993137198  0.5717121044153187  0.665424552978094  1.0000
  S   S106      1.0  0.2432205281483936  0.4351276926385806  0.6931924842919825  1.0000
  Fe  Fe54      1.0  0.16210452448040386  0.5789098780575753  0.686737113702242  1.0000
  S   S107      1.0  0.19421951072429153  0.6434804612127818  0.668359562071556  1.0000
  S   S108      1.0  0.1051115095536803  0.5868940792749252  0.7033827955213754  1.0000
  Fe  Fe55      1.0  0.22255657296886458  0.589689686010778  0.635412474809315  1.0000
  S   S109      1.0  0.24064241807391357  0.6131904331731256  0.5870514952237995  1.0000
  Fe  Fe56      1.0  0.22946943751003152  0.6193826705832908  0.7000045330171205  1.0000
  S   S110      1.0  0.2503792939051145  0.6803872867123006  0.725686340153611  1.0000
  S   S111      1.0  0.18748894530636412  0.5260873148520966  0.6507360717550754  1.0000
  S   S112      1.0  0.195764231755174  0.5578087251503552  0.7206480314862466  1.0000
  Fe  Fe57      1.0  0.11964373308848775  0.747719270362722  0.8940732087374161  1.0000
  S   S113      1.0  0.13717322502794727  0.6796897562957287  0.9156772232027124  1.0000
  S   S114      1.0  0.07330444141086084  0.7479593251825961  0.8704274583006679  1.0000
  Fe  Fe58      1.0  0.17687892880362444  0.8105367101475957  0.9126541644928922  1.0000
  S   S115      1.0  0.1994949623687142  0.7468094953273711  0.9350542482665155  1.0000
  S   S116      1.0  0.19631610931831334  0.8878026096696461  0.9175477015591278  1.0000
  Fe  Fe59      1.0  0.18976895530921536  0.7041180040182513  0.8938651047175376  1.0000
  S   S117      1.0  0.22310790797142369  0.6456544749282485  0.8678858742008672  1.0000
  Fe  Fe60      1.0  0.14464614097773354  0.7290419557967412  0.9543250107669345  1.0000
  S   S118      1.0  0.1228069947506879  0.7133091570562771  0.003350654928663044  1.0000
  S   S119      1.0  0.1716966389837293  0.7695738316454281  0.8698049087195663  1.0000
  S   S120      1.0  0.12262680981208178  0.795574206660589  0.9345791157745817  1.0000
  Fe  Fe61      1.0  0.23525566114539584  0.836996795122477  0.17949464394191644  1.0000
  S   S121      1.0  0.264751004245921  0.7683544788365604  0.16261763797904963  1.0000
  S   S122      1.0  0.25678756241523654  0.9127845426370993  0.18683714167307894  1.0000
  Fe  Fe62      1.0  0.16622983047165246  0.785628639346288  0.18341963481665133  1.0000
  S   S123      1.0  0.18987027876509846  0.713730627909129  0.16593058893298424  1.0000
  S   S124      1.0  0.10918615582031782  0.7947294983291909  0.1975084260612006  1.0000
  Fe  Fe63      1.0  0.22730296559815558  0.7285865509436381  0.19777551395068005  1.0000
  S   S125      1.0  0.23813358297679704  0.6641315365353647  0.22697978271390382  1.0000
  Fe  Fe64      1.0  0.22449492677191887  0.7600274501688989  0.13253786082277388  1.0000
  S   S126      1.0  0.24000627157733215  0.7379596192993984  0.08344923421690398  1.0000
  S   S127      1.0  0.20124957879650615  0.797815438061485  0.21747283824782979  1.0000
  S   S128      1.0  0.19744431317586414  0.8312141535932668  0.14696628341131582  1.0000
  C   C1        1.0  0.15476540440089762  0.717542017584677  0.026426952656750435  1.0000
  C   C2        1.0  0.18814943603367693  0.7009930264130804  0.01569479676614627  1.0000
  C   C3        1.0  0.21394497656331626  0.7064652560534  0.033719914309645826  1.0000
  C   C4        1.0  0.20643582961135112  0.7280954911956283  0.06263228904013052  1.0000
  C   C5        1.0  0.1729324555996207  0.7441677384876599  0.07356046785632397  1.0000
  C   C6        1.0  0.14715236804293036  0.7390909049529598  0.055368593545495726  1.0000
  H   H1        1.0  0.194154167350432  0.6840578006516569  0.9934463027202289  1.0000
  H   H2        1.0  0.23985399452248515  0.6940325704404549  0.025205347217747365  1.0000
  H   H3        1.0  0.167151434719931  0.7615916422940635  0.09569103065023277  1.0000
  H   H4        1.0  0.12157571400248744  0.7531756061120076  0.06336417042450981  1.0000
  C   C7        1.0  0.24404562479152703  0.6705352835374213  0.7651900604020087  1.0000
  C   C8        1.0  0.23900290560445742  0.6227744616216294  0.7770633941743296  1.0000
  C   C9        1.0  0.23314587992948924  0.6154214965462669  0.8086478071707386  1.0000
  C   C10       1.0  0.23174280786040224  0.6558386513548076  0.8284887263102403  1.0000
  C   C11       1.0  0.23680826915611605  0.7036266821535201  0.816628018148379  1.0000
  C   C12       1.0  0.24321910472898386  0.7109137774515731  0.7850038999438871  1.0000
  H   H5        1.0  0.23987438278691744  0.5914763359094948  0.7619595230624343  1.0000
  H   H6        1.0  0.22905778826036605  0.5785133228450994  0.8178555364598389  1.0000
  H   H7        1.0  0.23650287716207194  0.7348815232587121  0.8318355856159471  1.0000
  H   H8        1.0  0.24735179747598313  0.7479269037038365  0.7759603555848164  1.0000
  C   C13       1.0  0.21617083625614295  0.6902861391647344  0.3295579391820254  1.0000
  C   C14       1.0  0.21240857167659602  0.6432726269254954  0.31746745912854457  1.0000
  C   C15       1.0  0.21869428116577386  0.6358875511341944  0.28590637834511906  1.0000
  C   C16       1.0  0.22949294336675083  0.6751797060463514  0.2662807687507179  1.0000
  C   C17       1.0  0.2336776456002962  0.7221385832102086  0.2782899106680661  1.0000
  C   C18       1.0  0.22704676540844423  0.7296479714500994  0.30991724478261373  1.0000
  H   H9        1.0  0.20506125905125755  0.6124430834973316  0.3324024893175828  1.0000
  H   H10       1.0  0.21490309419818993  0.5997589379167078  0.27662127702020833  1.0000
  H   H11       1.0  0.24247080896334894  0.7525137974064742  0.2632570937736517  1.0000
  H   H12       1.0  0.23022660649474924  0.766058058606182  0.3191634246293793  1.0000
  C   C19       1.0  0.20722674641998784  0.616402790425966  0.5653943751641607  1.0000
  C   C20       1.0  0.17333464527655534  0.6065665619542632  0.578737348143284  1.0000
  C   C21       1.0  0.14689819538516846  0.608635370242662  0.5611487165750282  1.0000
  C   C22       1.0  0.15419673043267973  0.6205858655639948  0.5301842990048353  1.0000
  C   C23       1.0  0.1880562111442078  0.6307050128132322  0.5168306951051147  1.0000
  C   C24       1.0  0.21455459161588314  0.6286356110988138  0.5344493297181724  1.0000
  H   H13       1.0  0.16743484384898422  0.5972127612168304  0.6026095912581924  1.0000
  H   H14       1.0  0.12081025196342932  0.6002109815140688  0.5715168268668454  1.0000
  H   H15       1.0  0.19380960270477787  0.6405352754914609  0.4930211983436464  1.0000
  H   H16       1.0  0.24074382137075762  0.6364497290238689  0.5240574234559192  1.0000
  C   C25       1.0  0.05064834305585091  0.6494767159085474  0.20003083868619884  1.0000
  C   C26       1.0  0.08505582475226652  0.649433512018368  0.20419284050326897  1.0000
  C   C27       1.0  0.10330328644365615  0.6939632896490963  0.20321835027092788  1.0000
  C   C28       1.0  0.08698005537276345  0.7386849327159075  0.1986237058223664  1.0000
  C   C29       1.0  0.05225568456108412  0.7388447798994359  0.19549290205828412  1.0000
  C   C30       1.0  0.03422679555209647  0.6942398278428468  0.19587301652090494  1.0000
  H   H17       1.0  0.09772711400598752  0.6148880650810401  0.2078634931529356  1.0000
  H   H18       1.0  0.12976318422467917  0.6936326190120929  0.20666659625334177  1.0000
  H   H19       1.0  0.03945690424094149  0.7734791865891243  0.19228376527051377  1.0000
  H   H20       1.0  0.007438579346008907  0.6947338991539523  0.19369637907486673  1.0000
  C   C31       1.0  0.017977485394963244  0.5998689440957086  0.8713541862159341  1.0000
  C   C32       1.0  0.0009253132156941722  0.643817572619992  0.8663816052414015  1.0000
  C   C33       1.0  0.018304770717512242  0.6891233451270806  0.8654763716248546  1.0000
  C   C34       1.0  0.05266362960167302  0.6906252960337855  0.8697928910127329  1.0000
  C   C35       1.0  0.06999785477844471  0.6464624063181906  0.8736190648619068  1.0000
  C   C36       1.0  0.05277003889950545  0.6011655226544184  0.8741681931115037  1.0000
  H   H21       1.0  0.9743865248263732  0.6430729627133953  0.8631727865966936  1.0000
  H   H22       1.0  0.0048603478385844555  0.7231197024271355  0.8620497175035372  1.0000
  H   H23       1.0  0.09678552806105949  0.6467734736796419  0.8757389622056779  1.0000
  H   H24       1.0  0.06622141573582475  0.5671362439717647  0.877511521517381  1.0000
  C   C37       1.0  0.8939506342175103  0.6024576636853087  0.00948641598072908  1.0000
  C   C38       1.0  0.88535954165442  0.6211239137240117  0.03907471937222162  1.0000
  C   C39       1.0  0.9100615141553702  0.6228272383223864  0.058441523038045395  1.0000
  C   C40       1.0  0.9434267815550884  0.6056598953051454  0.04831521063377008  1.0000
  C   C41       1.0  0.9519047307587343  0.5861238371164875  0.018905449920094908  1.0000
  C   C42       1.0  0.9272347317844887  0.5847240494594634  0.9994186767192555  1.0000
  H   H25       1.0  0.8596502538832905  0.6349485538761648  0.04690840459729917  1.0000
  H   H26       1.0  0.9034431924970839  0.6385418217653327  0.08094180190028236  1.0000
  H   H27       1.0  0.9774715178839172  0.5717203745080645  0.011306967713859972  1.0000
  H   H28       1.0  0.9339180233829435  0.5698773562058315  0.9766959652665688  1.0000
  C   C43       1.0  0.05595873123610507  0.72685760020039  0.6719510379925986  1.0000
  C   C44       1.0  0.0909341191863974  0.7264000458710259  0.674047915462546  1.0000
  C   C45       1.0  0.10601234098272126  0.6838958816081927  0.6841976125296966  1.0000
  C   C46       1.0  0.08639839393905761  0.6413410475874619  0.6917698284734617  1.0000
  C   C47       1.0  0.05116648265261598  0.642367165362161  0.6904614879406626  1.0000
  C   C48       1.0  0.03590609790022503  0.685162578781325  0.680817855385061  1.0000
  H   H29       1.0  0.10639464380051733  0.7588759808226622  0.6676614636028632  1.0000
  H   H30       1.0  0.13266591553535348  0.6846094249228398  0.686366369479276  1.0000
  H   H31       1.0  0.03575419648971962  0.6097390650788204  0.6960900628058094  1.0000
  H   H32       1.0  0.008692519245100071  0.6856093728278355  0.680020042930013  1.0000
  C   C49       1.0  0.8943003256243341  0.6319811336102418  0.7371872545716986  1.0000
  C   C50       1.0  0.8814179340311981  0.590847832196553  0.7544777617879366  1.0000
  C   C51       1.0  0.8710661390368875  0.5951668333347688  0.7861049735958814  1.0000
  C   C52       1.0  0.8733467601512349  0.6407927640877387  0.8004395719130639  1.0000
  C   C53       1.0  0.8863822989111014  0.6817285315739405  0.783211489368804  1.0000
  C   C54       1.0  0.8970013486641665  0.6772425772240214  0.7517480318168404  1.0000
  H   H33       1.0  0.8790053228657134  0.5557225904082169  0.7433626167210061  1.0000
  H   H34       1.0  0.860414778030633  0.5636056518127236  0.7992816774606817  1.0000
  H   H35       1.0  0.8881586475141203  0.7170606389206594  0.794288666913454  1.0000
  H   H36       1.0  0.9069471676455596  0.7090238588246289  0.7389115218624485  1.0000
  C   C55       1.0  0.03137854479719589  0.6731024765806762  0.3812200471414206  1.0000
  C   C56       1.0  0.05032360149635135  0.7149232679333896  0.3864056785339057  1.0000
  C   C57       1.0  0.03591999182087622  0.7621518544285406  0.38529862311678936  1.0000
  C   C58       1.0  0.0023483572618612225  0.7676333293927923  0.3794220155889756  1.0000
  C   C59       1.0  0.9834852485343342  0.7259111791504129  0.37377766467193974  1.0000
  C   C60       1.0  0.9982760507662871  0.6786846188280743  0.3740797059227173  1.0000
  H   H37       1.0  0.07605888736441538  0.7111599505129358  0.3912705139676686  1.0000
  H   H38       1.0  0.05060668823473211  0.794486826367832  0.389512846876363  1.0000
  H   H39       1.0  0.9576670980241311  0.7302120373573424  0.3689271839507181  1.0000
  H   H40       1.0  0.9837887308459071  0.6463308144380792  0.3696034009955943  1.0000
  C   C61       1.0  0.8555948151397935  0.7062969290189507  0.3061504726590683  1.0000
  C   C62       1.0  0.8588722049352782  0.6621284876368823  0.28944578390843184  1.0000
  C   C63       1.0  0.8660015686502726  0.6631878944709214  0.2575570670525491  1.0000
  C   C64       1.0  0.8687654160795019  0.708397855824635  0.24213352433416488  1.0000
  C   C65       1.0  0.8638194758805756  0.7525401741071971  0.25881269665070084  1.0000
  C   C66       1.0  0.857767342222757  0.7515508199215708  0.29077745846527187  1.0000
  H   H41       1.0  0.8571366133762026  0.6270385808230732  0.3012581907460005  1.0000
  H   H42       1.0  0.8693107980288424  0.6290069924614501  0.24500393497118322  1.0000
  H   H43       1.0  0.8655653815158288  0.7876381111455755  0.2470054754415744  1.0000
  H   H44       1.0  0.8546620235922957  0.7857972772082258  0.30348421875641685  1.0000
  C   C67       1.0  0.8690008293236675  0.8021625711617458  0.5023519596767293  1.0000
  C   C68       1.0  0.8579868357786906  0.7836751298071423  0.531706737414653  1.0000
  C   C69       1.0  0.8819945908187107  0.765302763005829  0.549098931922135  1.0000
  C   C70       1.0  0.917042529800889  0.7651318718084852  0.537018824544489  1.0000
  C   C71       1.0  0.9280577434539745  0.785240600638092  0.5081482280041595  1.0000
  C   C72       1.0  0.9041183899835116  0.8034938076058831  0.4907707406164888  1.0000
  H   H45       1.0  0.830806121042308  0.781983361085781  0.5406038736991213  1.0000
  H   H46       1.0  0.8732808946923907  0.749501103017475  0.571311838014112  1.0000
  H   H47       1.0  0.9552014146917682  0.7865317783960271  0.49909869907063587  1.0000
  H   H48       1.0  0.9128646907065504  0.8186310558486528  0.46837641993099166  1.0000
  C   C73       1.0  0.8027768269694232  0.41976875116549706  0.13320456908478434  1.0000
  C   C74       1.0  0.8229397035048303  0.4611432151052764  0.12352270208577472  1.0000
  C   C75       1.0  0.8500397054185932  0.4750021447997068  0.1386206943027395  1.0000
  C   C76       1.0  0.85659000202157  0.4481955883806336  0.16391091261452295  1.0000
  C   C77       1.0  0.8364521701428248  0.4067572555305657  0.17355752180783923  1.0000
  C   C78       1.0  0.8096987696911284  0.3923573734702602  0.1581277075110132  1.0000
  H   H49       1.0  0.8177056177825548  0.48239050902984787  0.10422202142976139  1.0000
  H   H50       1.0  0.8657720252758545  0.5064242207695842  0.13066308274955188  1.0000
  H   H51       1.0  0.841521725078773  0.38573764540635697  0.19302148480578385  1.0000
  H   H52       1.0  0.7943256009776665  0.36023555874861213  0.16560858477002213  1.0000
  C   C79       1.0  0.7491770110974051  0.39069273639645674  0.869790764870955  1.0000
  C   C80       1.0  0.7581044147029813  0.3600668428728857  0.8925882998613258  1.0000
  C   C81       1.0  0.7890629756962892  0.3675996323088592  0.9036060525886661  1.0000
  C   C82       1.0  0.8108058222017762  0.4065291413424334  0.8923722481565437  1.0000
  C   C83       1.0  0.8012731066250105  0.4384945728128904  0.8705240458832725  1.0000
  C   C84       1.0  0.7705712105040499  0.43036162657347166  0.8591177969277727  1.0000
  H   H53       1.0  0.7412047548942939  0.33056983934309025  0.9017246098479316  1.0000
  H   H54       1.0  0.7961606858040788  0.34321521737837346  0.9208240935563267  1.0000
  H   H55       1.0  0.8179190484662241  0.4687688929672882  0.8618654780161087  1.0000
  H   H56       1.0  0.7636499716971473  0.4543869977538627  0.841638441650172  1.0000
  C   C85       1.0  0.6609905112978832  0.2213926127959222  0.9838081233262511  1.0000
  C   C86       1.0  0.6547429376573377  0.2461123297893731  0.011850465643695296  1.0000
  C   C87       1.0  0.6769924115235324  0.23960674352877875  0.03319572404952087  1.0000
  C   C88       1.0  0.7048150252383079  0.20693516815876367  0.026995261022892514  1.0000
  C   C89       1.0  0.7113588732317736  0.18292213677036062  0.9987296706417533  1.0000
  C   C90       1.0  0.6897588335344699  0.19061635446063244  0.9769998456209111  1.0000
  H   H57       1.0  0.6325594470421754  0.27011333907781665  0.017140847297500095  1.0000
  H   H58       1.0  0.6719649470929041  0.2586359847257227  0.054792998639756396  1.0000
  H   H59       1.0  0.732848817732206  0.15756556072753738  0.9938580752124577  1.0000
  H   H60       1.0  0.6945691532423147  0.1711324187135852  0.9555025037389699  1.0000
  C   C91       1.0  0.7740303711991288  0.8903416401178089  0.6515056277958251  1.0000
  C   C92       1.0  0.7867030723738221  0.9260723468328785  0.6694507470539298  1.0000
  C   C93       1.0  0.8187801716762221  0.9190747684441753  0.6786138199197355  1.0000
  C   C94       1.0  0.8385292796859208  0.8770503184911301  0.6692046407218083  1.0000
  C   C95       1.0  0.8261421737627405  0.84204922281559  0.6506111249942257  1.0000
  C   C96       1.0  0.7936176432925276  0.8481590282616973  0.6423022912689729  1.0000
  H   H61       1.0  0.7716678426781111  0.9588651734477042  0.67649956534056  1.0000
  H   H62       1.0  0.8283385076080667  0.9463654626821058  0.692934105903288  1.0000
  H   H63       1.0  0.8413162309427447  0.8099763382394475  0.6429162666860648  1.0000
  H   H64       1.0  0.7838612699675765  0.8206229373458598  0.6282780653635786  1.0000
  C   C97       1.0  0.7458157660045851  0.14079145433111515  0.7225996103354013  1.0000
  C   C98       1.0  0.7433376400069335  0.09533382259987706  0.7377947126980923  1.0000
  C   C99       1.0  0.7395654935276351  0.09406816402449446  0.7697536724884217  1.0000
  C   C100      1.0  0.7372182738090522  0.1381747368815899  0.7865952778021731  1.0000
  C   C101      1.0  0.7393959004918381  0.18344580272045818  0.7712479316001661  1.0000
  C   C102      1.0  0.7441420854867044  0.18471207869919676  0.7394076205376644  1.0000
  H   H65       1.0  0.7449735569895164  0.06122604100864944  0.7249124047385187  1.0000
  H   H66       1.0  0.7380979460913327  0.05887440720773369  0.7814412970476343  1.0000
  H   H67       1.0  0.7377904858566539  0.21771034197435732  0.7836647081188587  1.0000
  H   H68       1.0  0.7461262122727104  0.21993215081370074  0.7277221690318633  1.0000
  C   C103      1.0  0.7347292114421409  0.9633362677366413  0.35153947026136917  1.0000
  C   C104      1.0  0.7523406051320349  0.9181802590395016  0.34777792832840254  1.0000
  C   C105      1.0  0.7878368490605787  0.9164336868289918  0.3480043796296979  1.0000
  C   C106      1.0  0.8056973725011292  0.9598821988001327  0.35195796187953876  1.0000
  C   C107      1.0  0.7883293173044991  0.005287174002557071  0.354571220896501  1.0000
  C   C108      1.0  0.7528463242907115  0.007021279028230243  0.3543574106383064  1.0000
  H   H69       1.0  0.7384143841907527  0.8843643118015326  0.3452780742671928  1.0000
  H   H70       1.0  0.801328022561279  0.8814409998893268  0.3451209000919293  1.0000
  H   H71       1.0  0.802185348496012  0.03898136026323895  0.3574978250944838  1.0000
  H   H72       1.0  0.7395493995594052  0.04207363828329891  0.35658344850839  1.0000
  C   C109      1.0  0.7181484544349438  0.20409017071088376  0.29596394713919555  1.0000
  C   C110      1.0  0.7300748602009898  0.2449515837336798  0.2779790089324699  1.0000
  C   C111      1.0  0.7429651514852617  0.23877175406482481  0.24686898630530985  1.0000
  C   C112      1.0  0.7441345810879704  0.1916312545934234  0.2337849210654144  1.0000
  C   C113      1.0  0.7325508566532435  0.1508431050962029  0.25184250312760187  1.0000
  C   C114      1.0  0.719844996869668  0.15699769793269613  0.28286029068676  1.0000
  H   H73       1.0  0.7292100619110558  0.28144663409974024  0.28806262838771846  1.0000
  H   H74       1.0  0.7524410805171919  0.2703088739908  0.233093569713722  1.0000
  H   H75       1.0  0.7331984957887403  0.11443379459367353  0.24171481074022524  1.0000
  H   H76       1.0  0.7118446442821799  0.12514861176024938  0.2966473822281042  1.0000
  C   C115      1.0  0.6462941339555306  0.09877892511405557  0.4875882674452872  1.0000
  C   C116      1.0  0.6387758612533964  0.0778201419628792  0.5166443549222486  1.0000
  C   C117      1.0  0.6649387775549693  0.07073165813774013  0.5342044477773857  1.0000
  C   C118      1.0  0.698773022010411  0.08403322002575099  0.5225326421429279  1.0000
  C   C119      1.0  0.7062580470260241  0.10487984409949061  0.4934592109456571  1.0000
  C   C120      1.0  0.6800553691207631  0.11245926914374202  0.47606973071792785  1.0000
  H   H77       1.0  0.6128090553563201  0.06636364339279124  0.525426026532676  1.0000
  H   H78       1.0  0.6590465990507934  0.05420353417541661  0.556531114741983  1.0000
  H   H79       1.0  0.7323102410319672  0.11594287929126404  0.4845620910322818  1.0000
  H   H80       1.0  0.6859244621192907  0.12982978292458486  0.45401315005113735  1.0000
  C   C121      1.0  0.3698237206096478  0.9396286490299032  0.14812124474738017  1.0000
  C   C122      1.0  0.3569553590417036  0.8913605065932851  0.15060838020266817  1.0000
  C   C123      1.0  0.3221975710646949  0.8828479200543132  0.16211107361620833  1.0000
  C   C124      1.0  0.3000935314873994  0.9225908101043466  0.17096488236348023  1.0000
  C   C125      1.0  0.31288386400413676  0.971017064872475  0.1679666965893135  1.0000
  C   C126      1.0  0.34774851282607017  0.979576805986088  0.1567219267526623  1.0000
  H   H81       1.0  0.3739885166570911  0.8603655432803462  0.1440353726373228  1.0000
  H   H82       1.0  0.3127660308992966  0.845459045249282  0.16465203594505215  1.0000
  H   H83       1.0  0.29575583080241236  0.0019251091893646155  0.1741255665338251  1.0000
  H   H84       1.0  0.3575042091395036  0.016965479674456274  0.15466266571790396  1.0000
  C   C127      1.0  0.5962369810365862  0.23732793426917637  0.17004752368613643  1.0000
  C   C128      1.0  0.610394459219407  0.1922296610153564  0.17723302832216775  1.0000
  C   C129      1.0  0.591797224911664  0.14841444095789583  0.17634185377784325  1.0000
  C   C130      1.0  0.5593880565437429  0.14925155394965206  0.16742711151926032  1.0000
  C   C131      1.0  0.5450439403105087  0.1943509055163743  0.16049572847196364  1.0000
  C   C132      1.0  0.5632954869336281  0.2384575541933864  0.16217765944675705  1.0000
  H   H85       1.0  0.6355322726334317  0.19089625332342094  0.1838128449192734  1.0000
  H   H86       1.0  0.6029127510337083  0.11360081003994948  0.18192076640838384  1.0000
  H   H87       1.0  0.520017696779628  0.19547255626154872  0.15376602758522007  1.0000
  H   H88       1.0  0.5522892567689375  0.27332230509978617  0.15656282970929258  1.0000
  C   C133      1.0  0.30389288425700306  0.9226953268599639  0.8673159859015425  1.0000
  C   C134      1.0  0.286685857487982  0.880486798911486  0.8594684248671121  1.0000
  C   C135      1.0  0.2538323859673389  0.8688448174090146  0.8751642678027832  1.0000
  C   C136      1.0  0.23784101687505843  0.9001385520707377  0.8982278284156071  1.0000
  C   C137      1.0  0.2551273186795986  0.9421513020546679  0.9061659437086058  1.0000
  C   C138      1.0  0.28833121572842546  0.9529003937115984  0.8911266485324101  1.0000
  H   H89       1.0  0.2987587687057281  0.8567903885094882  0.8411965690097565  1.0000
  H   H90       1.0  0.24069005426844936  0.8361786840020985  0.8690552268788366  1.0000
  H   H91       1.0  0.24287769005500237  0.9664724911074087  0.9240030333293389  1.0000
  H   H92       1.0  0.3016601579642483  0.9849087564404527  0.8977565616793117  1.0000
  C   C139      1.0  0.5164678000654452  0.10102894705881556  0.8498088643907741  1.0000
  C   C140      1.0  0.5004459470014816  0.14603702995901138  0.8453665885410961  1.0000
  C   C141      1.0  0.5202695849836511  0.1885646764907518  0.8377959338641889  1.0000
  C   C142      1.0  0.5561063632233164  0.18607979193455457  0.8346498795588754  1.0000
  C   C143      1.0  0.5721405766409275  0.14083794129807686  0.838424630771484  1.0000
  C   C144      1.0  0.5523393077597295  0.09841863575319931  0.8460585829560706  1.0000
  H   H93       1.0  0.4728486144808793  0.14814879123299698  0.8477020824441328  1.0000
  H   H94       1.0  0.5078286943236159  0.2235951775446677  0.8349216231482387  1.0000
  H   H95       1.0  0.5997850971135468  0.138237163645736  0.8354629808358958  1.0000
  H   H96       1.0  0.5648201410880002  0.0635207063349986  0.8492608111572624  1.0000
  C   C145      1.0  0.3858350379343009  0.10550443114949978  0.9819887258332364  1.0000
  C   C146      1.0  0.4198219090764494  0.0961294707426347  0.9684892285030017  1.0000
  C   C147      1.0  0.4465367310586446  0.10117447264149847  0.9855637796095322  1.0000
  C   C148      1.0  0.4394744896238732  0.11618747086386053  0.01602323765928615  1.0000
  C   C149      1.0  0.4055259361704997  0.12568810926001336  0.029508272388308884  1.0000
  C   C150      1.0  0.378714877294514  0.12019832464512321  0.012525548214443516  1.0000
  H   H97       1.0  0.4254432609981222  0.08395608090320278  0.945076637686818  1.0000
  H   H98       1.0  0.4725469707243082  0.09208855587346135  0.9753672998244793  1.0000
  H   H99       1.0  0.39992648270637043  0.1379923058308168  0.052876566694644814  1.0000
  H   H100      1.0  0.35244879926127093  0.1275959114939143  0.022995360929557007  1.0000
  C   C151      1.0  0.34891373749861276  0.3939305314145604  0.6408430606315187  1.0000
  C   C152      1.0  0.3316280427020071  0.36105884840622177  0.662234110735727  1.0000
  C   C153      1.0  0.2985749705939636  0.37305077001558296  0.6776135677011768  1.0000
  C   C154      1.0  0.28276271354628996  0.41763250256777074  0.6714220579718719  1.0000
  C   C155      1.0  0.2995791912701929  0.4491638694391904  0.649054513618263  1.0000
  C   C156      1.0  0.33271657565441354  0.4377349520920684  0.634135435857275  1.0000
  H   H101      1.0  0.34394879314787585  0.3269453354024834  0.6673380858503634  1.0000
  H   H102      1.0  0.28550273413381494  0.3481353393181199  0.6946447110101661  1.0000
  H   H103      1.0  0.2871600046694233  0.4824286965452109  0.6431743124208127  1.0000
  H   H104      1.0  0.3458740133075559  0.4631113962444731  0.6174596286519936  1.0000
  C   C157      1.0  0.5478227157074052  0.20255295550329117  0.6574394042699045  1.0000
  C   C158      1.0  0.5288744138360667  0.1588567880477696  0.661757449254931  1.0000
  C   C159      1.0  0.5455744625194557  0.11369034043032476  0.6644925676749033  1.0000
  C   C160      1.0  0.5813833541163607  0.1119033356126015  0.662122257322872  1.0000
  C   C161      1.0  0.6003668609955679  0.15568026790598155  0.6577911064608009  1.0000
  C   C162      1.0  0.5835306374313547  0.20107283849998445  0.6559215551191401  1.0000
  H   H105      1.0  0.5012523834905499  0.15995526407938618  0.6637749364977399  1.0000
  H   H106      1.0  0.5307768491364516  0.07991611993154851  0.6680239654506399  1.0000
  H   H107      1.0  0.6279208768766421  0.1548947689169522  0.6562057621358579  1.0000
  H   H108      1.0  0.5982561908691586  0.2349457311653388  0.652756873644214  1.0000
  C   C163      1.0  0.37372082663208356  0.15078051552656496  0.7151851470210001  1.0000
  C   C164      1.0  0.3736344632996736  0.11093157606846699  0.735292590504401  1.0000
  C   C165      1.0  0.3712929436524007  0.11942640989558856  0.7666570508235089  1.0000
  C   C166      1.0  0.3679068944114055  0.16764432844906546  0.7781104839844265  1.0000
  C   C167      1.0  0.36707828364943995  0.20734608909920044  0.758082623724235  1.0000
  C   C168      1.0  0.3702745755320841  0.19898811679551434  0.7266617634042771  1.0000
  H   H109      1.0  0.3763363775460997  0.07357568421092855  0.7264636938453836  1.0000
  H   H110      1.0  0.3719950102762572  0.08869895102544256  0.781912410725981  1.0000
  H   H111      1.0  0.36423099098757417  0.2447299605809252  0.7668516147648452  1.0000
  H   H112      1.0  0.3693706846214879  0.22980593968555088  0.7113863720599901  1.0000
  C   C169      1.0  0.28399874867690456  0.4260707119786155  0.3679937223510071  1.0000
  C   C170      1.0  0.2608056214312642  0.38724945267289973  0.3752292661333364  1.0000
  C   C171      1.0  0.22627205753323235  0.3973148583230445  0.38701546051642044  1.0000
  C   C172      1.0  0.2147431503600115  0.44622305836170295  0.39136432372573154  1.0000
  C   C173      1.0  0.2379555118378134  0.4851561458670239  0.38440690394728555  1.0000
  C   C174      1.0  0.27259149404246386  0.4750128047478242  0.37295215517729646  1.0000
  H   H113      1.0  0.26921704080721237  0.3494799098318789  0.37109524343032896  1.0000
  H   H114      1.0  0.20837694287986153  0.3670921913208813  0.3923602557744314  1.0000
  H   H115      1.0  0.2292760800501629  0.5230030107443265  0.3878716246641732  1.0000
  H   H116      1.0  0.2905990920839042  0.5050772215786724  0.3679262143810261  1.0000
  C   C175      1.0  0.49529397807911896  0.23881046684778875  0.3408380982436719  1.0000
  C   C176      1.0  0.4777742831210822  0.19453008121085325  0.3382568219088748  1.0000
  C   C177      1.0  0.4953438697055959  0.1493509669530951  0.3371174972562509  1.0000
  C   C178      1.0  0.5304208257039832  0.14836790713108605  0.33880511473412656  1.0000
  C   C179      1.0  0.5482712588984392  0.19264925944557942  0.3402417603244824  1.0000
  C   C180      1.0  0.5307318432809773  0.2379292186854382  0.34115467730723764  1.0000
  H   H117      1.0  0.4507673434567405  0.19495653123565362  0.3367843584631513  1.0000
  H   H118      1.0  0.4815675313263124  0.11509309616464165  0.33557980878220034  1.0000
  H   H119      1.0  0.5754976346597911  0.1919505234898481  0.3408301477751937  1.0000
  H   H120      1.0  0.5443820704749419  0.27221852111001  0.34288142590208887  1.0000
  C   C181      1.0  0.3543886615807881  0.1715028249185152  0.27809951860569554  1.0000
  C   C182      1.0  0.36751952348103817  0.1315548408147742  0.2597803751406987  1.0000
  C   C183      1.0  0.37568916610705794  0.13719363363255807  0.22817418852458526  1.0000
  C   C184      1.0  0.37088436562995475  0.18283783355980182  0.21474108662737815  1.0000
  C   C185      1.0  0.3576224777155199  0.2227630174003964  0.23307171553403366  1.0000
  C   C186      1.0  0.34953155391917523  0.21719876476215763  0.26475229377540455  1.0000
  H   H121      1.0  0.37148757256996956  0.09622216784500082  0.2700758094409116  1.0000
  H   H122      1.0  0.3849866814359022  0.10591260545793135  0.21422777243573268  1.0000
  H   H123      1.0  0.35368837489751914  0.2581153932997081  0.2227573167237522  1.0000
  H   H124      1.0  0.338978028798008  0.24802295941478536  0.27877534997386055  1.0000
  C   C187      1.0  0.37536559627131716  0.2300487456303536  0.47770826054939236  1.0000
  C   C188      1.0  0.36765794256990453  0.21403772699130788  0.507906745063289  1.0000
  C   C189      1.0  0.39404410984898747  0.20579699233020277  0.5249726541407159  1.0000
  C   C190      1.0  0.4282793359747095  0.21340795736804316  0.5118689772368918  1.0000
  C   C191      1.0  0.43613196573853785  0.2284077524393159  0.4814096918555057  1.0000
  C   C192      1.0  0.4096837617488057  0.2367378709579517  0.4643132913801462  1.0000
  H   H125      1.0  0.34112801328152564  0.20876556699934903  0.5182847375600292  1.0000
  H   H126      1.0  0.3878283495398177  0.19340610126252197  0.5482633603157728  1.0000
  H   H127      1.0  0.46252830061574757  0.2353151888066607  0.4713099065785053  1.0000
  H   H128      1.0  0.41572003144320513  0.2498463414016608  0.4411130913645512  1.0000
  N   N1        1.0  0.05756500855987756  0.7308608486814314  0.5645566378021737  1.0000
  C   C193      1.0  0.08679019749030426  0.749011543345437  0.5423146623258479  1.0000
  C   C194      1.0  0.03469078527721936  0.7727460986087997  0.575453571572292  1.0000
  C   C195      1.0  0.07060955476011133  0.7079533456477686  0.5905890953287661  1.0000
  C   C196      1.0  0.03809727396640472  0.6937543957219006  0.5499297251488856  1.0000
  H   H129      1.0  0.10489219912681436  0.7184663903070322  0.5339908975715079  1.0000
  H   H130      1.0  0.10167540013270915  0.7775743809867237  0.5525597944302486  1.0000
  H   H131      1.0  0.07790455713311784  0.7656398793836331  0.5220881181135869  1.0000
  H   H132      1.0  0.04822943377090971  0.801238342618728  0.5871308730590069  1.0000
  H   H133      1.0  0.02407990566655327  0.790847802687952  0.5565240306400638  1.0000
  H   H134      1.0  0.012452310511548381  0.760107623674176  0.5921498057639702  1.0000
  H   H135      1.0  0.04920422072388364  0.6938771183233141  0.607857383794681  1.0000
  H   H136      1.0  0.08510943311388797  0.7350313854341922  0.6024151961446149  1.0000
  H   H137      1.0  0.08805718727054379  0.6763216446200081  0.5831820103317195  1.0000
  H   H138      1.0  0.01584077619373958  0.6793729440655347  0.5661776106313692  1.0000
  H   H139      1.0  0.0546316681378054  0.6616612555708333  0.5412845291534895  1.0000
  H   H140      1.0  0.027542521968288547  0.7099376526695602  0.5303972396064262  1.0000
  N   N2        1.0  0.53220139325617  0.18930488439149581  0.9397683234352768  1.0000
  C   C197      1.0  0.5391273318940342  0.24294490759850734  0.9366710145752074  1.0000
  C   C198      1.0  0.5604640584139599  0.16162863980289727  0.9211858902260763  1.0000
  C   C199      1.0  0.49946933180110265  0.17790259377634177  0.929067299425203  1.0000
  C   C200      1.0  0.5299828701609268  0.17481679420382834  0.9720230640131743  1.0000
  H   H141      1.0  0.5183285762907195  0.26504728325151294  0.9504160635898193  1.0000
  H   H142      1.0  0.5413744443898275  0.25515658565975396  0.9125417353184196  1.0000
  H   H143      1.0  0.5637439623335434  0.25275890194299877  0.9444572604762128  1.0000
  H   H144      1.0  0.5553679888723456  0.12114214156953312  0.9215213616790314  1.0000
  H   H145      1.0  0.5641617524579667  0.17390626946470572  0.8971141367115745  1.0000
  H   H146      1.0  0.5852625272391407  0.16736997955555802  0.929555245024208  1.0000
  H   H147      1.0  0.4998606020603069  0.19063223338448357  0.905269974641902  1.0000
  H   H148      1.0  0.47719355043036354  0.19597806325265166  0.9435728711817551  1.0000
  H   H149      1.0  0.4944230366352804  0.13739902374469976  0.9293223480368975  1.0000
  H   H150      1.0  0.5260415050117144  0.1343118921807279  0.9751205961243429  1.0000
  H   H151      1.0  0.5081740827653768  0.19362996772619037  0.9867315644839959  1.0000
  H   H152      1.0  0.5539791721278929  0.18447047902869612  0.9809239001924537  1.0000
  N   N3        1.0  0.6144767753203905  0.1304299378535207  0.07780172980418179  1.0000
  C   C201      1.0  0.6236172064110004  0.17933895197357624  0.08892713600599082  1.0000
  C   C202      1.0  0.576963463924705  0.12835646215196628  0.07786902738672064  1.0000
  C   C203      1.0  0.6245033566617089  0.09142961227581486  0.09791913394206872  1.0000
  C   C204      1.0  0.6329663618980382  0.12264915854643002  0.04653272107855555  1.0000
  H   H153      1.0  0.6518237302870816  0.182339389029637  0.08894916199969126  1.0000
  H   H154      1.0  0.6104797279960463  0.18629010865196338  0.11252834872601535  1.0000
  H   H155      1.0  0.6161422294089652  0.20977716192354007  0.07449997753325727  1.0000
  H   H156      1.0  0.5690446789994893  0.09178134911351886  0.06989493997131001  1.0000
  H   H157      1.0  0.5622877632812057  0.13434390867780097  0.10113630230428389  1.0000
  H   H158      1.0  0.5685108876830763  0.15721491679081326  0.06283616406952758  1.0000
  H   H159      1.0  0.6104182679562377  0.09545866363793698  0.12154598256852783  1.0000
  H   H160      1.0  0.6525405414262105  0.09289757214017216  0.09899687753091045  1.0000
  H   H161      1.0  0.6186374704607249  0.05390678398545215  0.08990901506628264  1.0000
  H   H162      1.0  0.6261517005601894  0.15152491290452236  0.03071105398353846  1.0000
  H   H163      1.0  0.6268492472442597  0.08607852787457358  0.03733935829042512  1.0000
  H   H164      1.0  0.6613652451207636  0.12424067870578234  0.04574370631570445  1.0000
  N   N4        1.0  0.8178113645021066  0.4519077345432644  0.0013004863387484633  1.0000
  C   C205      1.0  0.8076577910552611  0.46856600913201996  0.03313511546732384  1.0000
  C   C206      1.0  0.8556785392622032  0.4529833151783762  0.9932045535079045  1.0000
  C   C207      1.0  0.80257614408513  0.4851732713220888  0.9807242341409136  1.0000
  C   C208      1.0  0.805451355743497  0.4009215980642994  0.9979944055406589  1.0000
  H   H165      1.0  0.77921833974468  0.4683343158365544  0.0400866333160812  1.0000
  H   H166      1.0  0.8168434059171255  0.5068600928157897  0.03637681955673644  1.0000
  H   H167      1.0  0.8184909630825767  0.44398344227540787  0.049323421428409946  1.0000
  H   H168      1.0  0.8641804508774856  0.4399369090285842  0.9694346893928941  1.0000
  H   H169      1.0  0.8658109388999505  0.49116804469527536  0.9949040250046061  1.0000
  H   H170      1.0  0.8681494574336304  0.4288930517835913  0.0085061806539235  1.0000
  H   H171      1.0  0.8098328261332021  0.4735547872735247  0.9565144775299763  1.0000
  H   H172      1.0  0.8115023342835826  0.5239821304668228  0.982470766960263  1.0000
  H   H173      1.0  0.7740144329222078  0.4854175166686815  0.9860877692308233  1.0000
  H   H174      1.0  0.8127556228184812  0.38735591047827367  0.9741640158433836  1.0000
  H   H175      1.0  0.7769411026322349  0.398752969802009  0.003907814422885458  1.0000
  H   H176      1.0  0.8164286642649443  0.3747600451773137  0.013202557582418615  1.0000
  N   N5        1.0  0.8128200331981035  0.05259051249787072  0.2629504456339223  1.0000
  C   C209      1.0  0.8353244349250268  0.053561288438154  0.28647057285116506  1.0000
  C   C210      1.0  0.7773615455432695  0.04014330939577282  0.27725341775859674  1.0000
  C   C211      1.0  0.8255490027583753  0.01481767351848462  0.2398076646632022  1.0000
  C   C212      1.0  0.8130723357510566  0.10168989659654293  0.24827333655777892  1.0000
  H   H177      1.0  0.8260896067847495  0.0809765534961997  0.30464904877155913  1.0000
  H   H178      1.0  0.8622153542417493  0.06346007871606862  0.2766396269029222  1.0000
  H   H179      1.0  0.8362695634036305  0.016807166034380483  0.2976333364421408  1.0000
  H   H180      1.0  0.7596166840354565  0.03908505821688668  0.2602130926202105  1.0000
  H   H181      1.0  0.7762480393914549  0.0032407134988470254  0.28849588205498977  1.0000
  H   H182      1.0  0.7669075723988348  0.06777427705323791  0.29493687451498346  1.0000
  H   H183      1.0  0.8091041337392136  0.013062298100843028  0.22171599256833013  1.0000
  H   H184      1.0  0.8257153493346775  0.9773085669256848  0.2501446648388334  1.0000
  H   H185      1.0  0.8522503146306768  0.023034318390230846  0.22852947034136836  1.0000
  H   H186      1.0  0.7972521619025743  0.10196684338670448  0.22967802347834101  1.0000
  H   H187      1.0  0.8395185575226218  0.11295253131174521  0.23792315629168295  1.0000
  H   H188      1.0  0.8025645511717266  0.13097798983417608  0.2648462595868737  1.0000
  N   N6        1.0  0.8074867693383452  0.25053667544098385  0.8346706407764214  1.0000
  C   C213      1.0  0.8211928687083895  0.2101807184939386  0.8137004497444632  1.0000
  C   C214      1.0  0.8327068499012302  0.29123905157419017  0.8328151436403218  1.0000
  C   C215      1.0  0.8005434522990567  0.2313491874280684  0.8661343008651762  1.0000
  C   C216      1.0  0.7752107109806102  0.2692894286754488  0.8260351223728258  1.0000
  H   H189      1.0  0.8025283737780807  0.17903972636597015  0.814654402113973  1.0000
  H   H190      1.0  0.845549493530763  0.19488468028488165  0.8194945389778079  1.0000
  H   H191      1.0  0.8263630963093547  0.22312254839077653  0.7896816715143182  1.0000
  H   H192      1.0  0.8384507168807338  0.3066275821076343  0.8093889603354456  1.0000
  H   H193      1.0  0.822824380200836  0.3223787735980214  0.8482301762209163  1.0000
  H   H194      1.0  0.8573433550504174  0.27871025783779413  0.8394923947947347  1.0000
  H   H195      1.0  0.7817819368619141  0.20024205866737932  0.8681999557059781  1.0000
  H   H196      1.0  0.7895502351277056  0.2606085241302017  0.8825065857735122  1.0000
  H   H197      1.0  0.8243949528289556  0.21737665584646418  0.8736199893280397  1.0000
  H   H198      1.0  0.7644199038194025  0.30043195718966326  0.8408244276566023  1.0000
  H   H199      1.0  0.7553307464586152  0.23995785438632872  0.8282921552372972  1.0000
  H   H200      1.0  0.7790487545919267  0.2829620107515933  0.8021799708445649  1.0000
  N   N7        1.0  0.624959396614861  0.2542087225389806  0.264556367799959  1.0000
  C   C217      1.0  0.6114427582191473  0.30438654819965844  0.26044971176493714  1.0000
  C   C218      1.0  0.6335051364588459  0.24951331779653377  0.29552410539284646  1.0000
  C   C219      1.0  0.6562664907981081  0.24585002160324496  0.24194450797405997  1.0000
  C   C220      1.0  0.5986863484116213  0.21710249486228056  0.2602962753168868  1.0000
  H   H201      1.0  0.605180768743015  0.30926607722241517  0.23709909630697334  1.0000
  H   H202      1.0  0.6306426270201826  0.33323819944465694  0.26362872097208184  1.0000
  H   H203      1.0  0.5876242818300024  0.31196749236493726  0.2769627960554765  1.0000
  H   H204      1.0  0.610980573884193  0.2578554244812972  0.31327493969718423  1.0000
  H   H205      1.0  0.6424037419083491  0.21138236183896894  0.2997668119373391  1.0000
  H   H206      1.0  0.6545245966919468  0.2751995137408063  0.29913199429206017  1.0000
  H   H207      1.0  0.6674079361065742  0.20844103299068711  0.24433801991340545  1.0000
  H   H208      1.0  0.676454929075037  0.2735423045360825  0.2443476442210716  1.0000
  H   H209      1.0  0.650942041433494  0.2492755940730018  0.21831597203839165  1.0000
  H   H210      1.0  0.5910219164254329  0.2205271657528984  0.2374358065785029  1.0000
  H   H211      1.0  0.5751184932408104  0.22156754919151925  0.27756786741977313  1.0000
  H   H212      1.0  0.6084339743453743  0.17872357193020816  0.2623910348363771  1.0000
  N   N8        1.0  0.8238666269095887  0.9307936481718418  0.561091671402381  1.0000
  C   C221      1.0  0.8303790237844914  0.9475384505801878  0.5912257614681513  1.0000
  C   C222      1.0  0.8036923555394763  0.8845719390101208  0.5645876106492924  1.0000
  C   C223      1.0  0.8570094776328105  0.9216089455782611  0.5410299327770871  1.0000
  C   C224      1.0  0.8043250961181126  0.9693292444042613  0.5475770809079202  1.0000
  H   H213      1.0  0.845468932893967  0.982414711152763  0.5895958795645043  1.0000
  H   H214      1.0  0.8448411807310229  0.9192691235067626  0.6022866542681324  1.0000
  H   H215      1.0  0.8058771508523699  0.9547203510163709  0.6068502611274368  1.0000
  H   H216      1.0  0.7991618544487102  0.8700086423723639  0.5421758702827358  1.0000
  H   H217      1.0  0.817233300192639  0.8551861298782576  0.5755719413343349  1.0000
  H   H218      1.0  0.7781672938491371  0.8903082890428816  0.57908959554646  1.0000
  H   H219      1.0  0.8530688542224565  0.9092465428907159  0.5179860150286357  1.0000
  H   H220      1.0  0.8720813193946864  0.8920680496385186  0.5503823265825393  1.0000
  H   H221      1.0  0.8731326446093717  0.9555058944363716  0.5381177107024433  1.0000
  H   H222      1.0  0.7996026454000679  0.958352846286317  0.5245612478057021  1.0000
  H   H223      1.0  0.8182662094170986  0.005231375242037206  0.5453564711205737  1.0000
  H   H224      1.0  0.7788041987135722  0.9763137029194578  0.5618611268068977  1.0000
  N   N9        1.0  0.9697634889454518  0.7082391862043641  0.28174255610367793  1.0000
  C   C225      1.0  0.988983189979354  0.7491556678609381  0.293199734554516  1.0000
  C   C226      1.0  0.9548512772500456  0.7255728583607381  0.2552123813689017  1.0000
  C   C227      1.0  0.9418635307060078  0.6920188465118122  0.3059011604104511  1.0000
  C   C228      1.0  0.9932316169634462  0.6661452077141139  0.2726956479593743  1.0000
  H   H225      1.0  0.001966751656995225  0.7368852909966992  0.31226620262864235  1.0000
  H   H226      1.0  0.9716116023720167  0.7804983521097046  0.3017815960138091  1.0000
  H   H227      1.0  0.009097977165206661  0.7640158074701768  0.27501873432087903  1.0000
  H   H228      1.0  0.9362522570559049  0.7564016982076847  0.26151947355305594  1.0000
  H   H229      1.0  0.9750026276527379  0.739250848785263  0.23673115113684448  1.0000
  H   H230      1.0  0.9407786625609454  0.6954461798572867  0.24544118790844333  1.0000
  H   H231      1.0  0.9264816259968993  0.6618953677768207  0.297744603294512  1.0000
  H   H232      1.0  0.9239725019221955  0.7229996241974459  0.3138669297068258  1.0000
  H   H233      1.0  0.9520011080417767  0.6775573239509409  0.3260183997310334  1.0000
  H   H234      1.0  0.01593549909459946  0.6777635198309007  0.2562136666548631  1.0000
  H   H235      1.0  0.9802771948414434  0.6361105016756203  0.26166891765028427  1.0000
  H   H236      1.0  0.00288470582319289  0.6496626062713408  0.29259766557081857  1.0000
  N   N10       1.0  0.9859008787456505  0.566641114892309  0.7686691365630146  1.0000
  C   C229      1.0  0.014764862935541771  0.543490191936435  0.748067988762841  1.0000
  C   C230      1.0  0.9956502126508545  0.5735868057814579  0.7990371557069871  1.0000
  C   C231      1.0  0.955438692021883  0.5342227008649751  0.7713992258006408  1.0000
  C   C232      1.0  0.9776208896899368  0.6151618307310767  0.756334038151891  1.0000
  H   H237      1.0  0.008224013360246401  0.537667749117754  0.7249286161863745  1.0000
  H   H238      1.0  0.02168301024510512  0.5068246147394393  0.7567315516553025  1.0000
  H   H239      1.0  0.03826440551183333  0.5668826482005143  0.7455490803923385  1.0000
  H   H240      1.0  0.9741081110118187  0.5898297096596816  0.8154106557308393  1.0000
  H   H241      1.0  0.0024685392325106293  0.5377484614346428  0.8088879631924041  1.0000
  H   H242      1.0  0.018111225696900966  0.5986104901869191  0.7982274515474617  1.0000
  H   H243      1.0  0.9335825684978308  0.550015172733045  0.7875381156762987  1.0000
  H   H244      1.0  0.9608855801024717  0.49697168265982516  0.780155096709305  1.0000
  H   H245      1.0  0.9465431590013542  0.5293427386504947  0.7490883777825561  1.0000
  H   H246      1.0  0.9563162571223173  0.6338584664872191  0.7717134207139612  1.0000
  H   H247      1.0  0.9693115310505478  0.6112604140964113  0.7336862718376096  1.0000
  H   H248      1.0  0.00016472611847688642  0.6403960491420003  0.753431430601284  1.0000
  N   N11       1.0  0.507549776921097  0.11526617803377089  0.4376466000427846  1.0000
  C   C233      1.0  0.5236867608361737  0.06718766123398619  0.42800423872406756  1.0000
  C   C234      1.0  0.4756111688464552  0.12139471950208702  0.42458152018670486  1.0000
  C   C235      1.0  0.5315925564074849  0.15565289476397237  0.4267925010522918  1.0000
  C   C236      1.0  0.49951392712955817  0.11684780393050423  0.4711986394365981  1.0000
  H   H249      1.0  0.5302196961621644  0.06463076914539119  0.40277801981143946  1.0000
  H   H250      1.0  0.5062980837975263  0.03578731626224174  0.4357494105125579  1.0000
  H   H251      1.0  0.5479732056961185  0.061620742817111385  0.4373759968065243  1.0000
  H   H252      1.0  0.48093359865836827  0.11986564638888877  0.39926657793838904  1.0000
  H   H253      1.0  0.45665233970553326  0.09186912084733767  0.43245866317003845  1.0000
  H   H254      1.0  0.4629610070025845  0.15760790156464027  0.4310726654749382  1.0000
  H   H255      1.0  0.5201053354805713  0.19258958572501803  0.43321449275554574  1.0000
  H   H256      1.0  0.5386058062529712  0.1549324597526363  0.4015874407633476  1.0000
  H   H257      1.0  0.5558708599774252  0.15251288311091551  0.436448068076458  1.0000
  H   H258      1.0  0.48079854778396786  0.08763473844954829  0.48025242974875637  1.0000
  H   H259      1.0  0.48802789617845926  0.15296350810506062  0.4793110115457966  1.0000
  H   H260      1.0  0.5230913996827473  0.11153990632392423  0.4816490837596209  1.0000
  N   N12       1.0  0.5713567872353017  0.1880011915668524  0.5585991814336355  1.0000
  C   C237      1.0  0.5856236698869358  0.15576403360974217  0.580305880695473  1.0000
  C   C238      1.0  0.5509652378789548  0.22812179158370197  0.5754576425958456  1.0000
  C   C239      1.0  0.5489830928693505  0.15864086852517992  0.5418002449762915  1.0000
  C   C240      1.0  0.5997939278176637  0.20955411602668514  0.536877428484845  1.0000
  H   H261      1.0  0.5649117322087223  0.13935475651103724  0.5973182741424051  1.0000
  H   H262      1.0  0.6029893566467193  0.17667451884018262  0.593042677743932  1.0000
  H   H263      1.0  0.600898029078292  0.12472782347729579  0.5685765678617607  1.0000
  H   H264      1.0  0.5294424473357744  0.21304606432769044  0.5921495649779459  1.0000
  H   H265      1.0  0.5668842047980264  0.25109907275591953  0.5885688276119669  1.0000
  H   H266      1.0  0.5394448941387199  0.2530356727186856  0.5599277479234499  1.0000
  H   H267      1.0  0.5636044136246449  0.12828088815256394  0.5285552879216167  1.0000
  H   H268      1.0  0.5375434559878185  0.18208789827849445  0.5254656930198826  1.0000
  H   H269      1.0  0.527219700168023  0.1418333574518497  0.5575323041943789  1.0000
  H   H270      1.0  0.615690328281003  0.18026394358419204  0.5237427294585261  1.0000
  H   H271      1.0  0.6172408320403043  0.23188484901919376  0.5487937195023627  1.0000
  H   H272      1.0  0.589956578856317  0.23400247664002194  0.5201073110873041  1.0000
  N   N13       1.0  0.8103148082256993  0.759225416518957  0.741130787364663  1.0000
  C   C241      1.0  0.8140066216523207  0.7047583051819203  0.7408695891244098  1.0000
  C   C242      1.0  0.7951799150324987  0.7750506947940281  0.7144199355439192  1.0000
  C   C243      1.0  0.8444353426950721  0.7823821625198655  0.7398858398980448  1.0000
  C   C244      1.0  0.7876766336460702  0.7748484470499845  0.7693185965662308  1.0000
  H   H273      1.0  0.8236401292204157  0.6912607829189795  0.7615507109773615  1.0000
  H   H274      1.0  0.8324523420072909  0.6917618200967026  0.7207294614392046  1.0000
  H   H275      1.0  0.7890042397862032  0.6860868244019508  0.7403009396452909  1.0000
  H   H276      1.0  0.7925316639285697  0.8160704004286369  0.7136209819596313  1.0000
  H   H277      1.0  0.8115773533643478  0.763338954133832  0.6928362605524561  1.0000
  H   H278      1.0  0.7691774100852181  0.7590005867590294  0.7146641940718257  1.0000
  H   H279      1.0  0.8426506814666724  0.8235255778685492  0.7396571923686859  1.0000
  H   H280      1.0  0.8622539965313317  0.771383613289109  0.7189278066473955  1.0000
  H   H281      1.0  0.8566071470174547  0.7717388583861441  0.7597863889127954  1.0000
  H   H282      1.0  0.7985033476667726  0.7635581816786415  0.7899140946266402  1.0000
  H   H283      1.0  0.7616982453281539  0.757990821915707  0.7710803788294769  1.0000
  H   H284      1.0  0.7843264478925229  0.8157798154377888  0.7702014175660564  1.0000
  N   N14       1.0  0.7977925420479571  0.5585808457471518  0.21747702122320783  1.0000
  C   C245      1.0  0.8239110048920887  0.5801466656018812  0.19362380949528235  1.0000
  C   C246      1.0  0.8150635654886285  0.5301291114920959  0.23902939422495142  1.0000
  C   C247      1.0  0.7753197034999939  0.5252107789213001  0.2032143905310584  1.0000
  C   C248      1.0  0.7770911791156462  0.5988242999240677  0.23389800395335372  1.0000
  H   H285      1.0  0.8407432268877205  0.5508746032117796  0.18166158461195125  1.0000
  H   H286      1.0  0.840767584738025  0.6068015150169248  0.2032240127920464  1.0000
  H   H287      1.0  0.8119675003433928  0.6003160669983215  0.17620313492498765  1.0000
  H   H288      1.0  0.8331510599548739  0.5536448912683548  0.24945714404504327  1.0000
  H   H289      1.0  0.7961951869481443  0.5140769947578134  0.25772197210276393  1.0000
  H   H290      1.0  0.8303451117974497  0.4988215417766034  0.2274316497121199  1.0000
  H   H291      1.0  0.7553366996550068  0.5078915011213357  0.22046879663406527  1.0000
  H   H292      1.0  0.7903780336338964  0.49462270064873176  0.19052635114197408  1.0000
  H   H293      1.0  0.7620381228895939  0.5452015192640783  0.1865889682390007  1.0000
  H   H294      1.0  0.7569871305108364  0.5840438492766268  0.25207927169137484  1.0000
  H   H295      1.0  0.763993520833507  0.621252756153626  0.2181852024203835  1.0000
  H   H296      1.0  0.7935042995983967  0.624556346443235  0.2448419843535281  1.0000
  N   N15       1.0  0.37627889830346234  0.3673358773896623  0.5339768829621376  1.0000
  C   C249      1.0  0.3706211064772092  0.363391267370886  0.5020587121962014  1.0000
  C   C250      1.0  0.41161036889885494  0.35097211662362915  0.5362162955260484  1.0000
  C   C251      1.0  0.3513350966375543  0.33566728067412366  0.5535275522517406  1.0000
  C   C252      1.0  0.37157916569571725  0.41932096917974  0.544112176360246  1.0000
  H   H297      1.0  0.3888178439202539  0.38698490901359467  0.4866143814749232  1.0000
  H   H298      1.0  0.34399970491494253  0.37431548892423544  0.4995130713479003  1.0000
  H   H299      1.0  0.3744109372563342  0.3248780446388277  0.4935554540495735  1.0000
  H   H300      1.0  0.416773950210049  0.3536432639228528  0.5600074110438694  1.0000
  H   H301      1.0  0.4159354288045516  0.31176693734231553  0.529003138461463  1.0000
  H   H302      1.0  0.43120542714969146  0.3737140529795846  0.5216550027937865  1.0000
  H   H303      1.0  0.35484923081797837  0.3378579328148308  0.5777971882232829  1.0000
  H   H304      1.0  0.3543533898695943  0.29615351054318817  0.5466323347907052  1.0000
  H   H305      1.0  0.3243654261719147  0.3466371128879779  0.552377708959729  1.0000
  H   H306      1.0  0.38986079978439614  0.44426282561804603  0.5297426114776118  1.0000
  H   H307      1.0  0.37611732264399234  0.423727049510057  0.5679696723880283  1.0000
  H   H308      1.0  0.3450187487707334  0.4326082228167809  0.5432329240422119  1.0000
  N   N16       1.0  0.632977168749952  0.14764182671680123  0.7464601386064855  1.0000
  C   C253      1.0  0.6105585866373316  0.18820042074660293  0.7389829899778468  1.0000
  C   C254      1.0  0.6118731466910049  0.10369926366465676  0.7563534298821318  1.0000
  C   C255      1.0  0.6513272485574091  0.1637988508398634  0.7711506099807904  1.0000
  C   C256      1.0  0.6582785186623438  0.1347844162778802  0.7193359231471278  1.0000
  H   H309      1.0  0.6258654703579682  0.22155045567934306  0.7308696927198733  1.0000
  H   H310      1.0  0.591792965651472  0.19964044831774874  0.7592925905811426  1.0000
  H   H311      1.0  0.595878761529737  0.17705014839588765  0.7207733411064476  1.0000
  H   H312      1.0  0.6280727640542054  0.07268501058247073  0.7625557697463156  1.0000
  H   H313      1.0  0.5922182712222959  0.11204439778620245  0.7766015078373072  1.0000
  H   H314      1.0  0.5983384351911919  0.0899034404545102  0.7378833643766702  1.0000
  H   H315      1.0  0.667630861164189  0.13362975840300056  0.77817815421408  1.0000
  H   H316      1.0  0.6331784952136372  0.17557621865559717  0.791657097745795  1.0000
  H   H317      1.0  0.6683875887660337  0.19583119045831832  0.7639744894009912  1.0000
  H   H318      1.0  0.6743333810628842  0.16714724829575392  0.710597859550425  1.0000
  H   H319      1.0  0.6455350166586586  0.12068896321307104  0.7005472471875038  1.0000
  H   H320      1.0  0.6761265831087296  0.10530075282936374  0.7245939257137985  1.0000
  N   N17       1.0  0.12892492351397317  0.6792773884472156  0.7855410038451771  1.0000
  C   C257      1.0  0.15511687500966248  0.673819586686841  0.7579969198328054  1.0000
  C   C258      1.0  0.10748091861718706  0.6342584338430618  0.7896438315004491  1.0000
  C   C259      1.0  0.10692996543060272  0.7226633493996999  0.7821990129178241  1.0000
  C   C260      1.0  0.14625651577432933  0.6862996373355208  0.812267070439086  1.0000
  H   H321      1.0  0.14308293273156694  0.6669193247445527  0.7374729867262988  1.0000
  H   H322      1.0  0.17256030445356027  0.6421878481563869  0.7602753356920595  1.0000
  H   H323      1.0  0.17147878086508755  0.7074010540730158  0.753762620206463  1.0000
  H   H324      1.0  0.12320097756410102  0.6008967261750944  0.7926943668277162  1.0000
  H   H325      1.0  0.08710300078625664  0.6373903552973592  0.8100001911027304  1.0000
  H   H326      1.0  0.09464779382008158  0.6274086914628089  0.7695137157993747  1.0000
  H   H327      1.0  0.1222166064102162  0.7573851650324485  0.7795131917877033  1.0000
  H   H328      1.0  0.08672983373168527  0.727616261738124  0.8026276945711467  1.0000
  H   H329      1.0  0.09375009786702693  0.7188737820324836  0.7620066392742131  1.0000
  H   H330      1.0  0.16383662687019127  0.718683384984533  0.809291780140462  1.0000
  H   H331      1.0  0.1618495977920765  0.6533652749543061  0.8164134095212474  1.0000
  H   H332      1.0  0.12744303894384815  0.6929040528685755  0.8332855739463634  1.0000
  N   N18       1.0  0.47308162950778276  0.202177725403887  0.24448019965683682  1.0000
  C   C261      1.0  0.4872501784905699  0.24923351105124425  0.23108540343245504  1.0000
  C   C262      1.0  0.4997336668499  0.175688878482172  0.258066484038301  1.0000
  C   C263      1.0  0.46219950761556766  0.1710473467706837  0.22049023110177982  1.0000
  C   C264      1.0  0.4431475450402403  0.212838784189005  0.2682221741625942  1.0000
  H   H333      1.0  0.49501814657997356  0.27405830401295417  0.24873329091634733  1.0000
  H   H334      1.0  0.467958764971619  0.2695769196575282  0.2200447252554042  1.0000
  H   H335      1.0  0.5102264682469119  0.24279264819440038  0.21346850544697082  1.0000
  H   H336      1.0  0.4895907892496361  0.14053830437963685  0.2690338289473427  1.0000
  H   H337      1.0  0.5222712283436479  0.16589960548642568  0.24053742973317563  1.0000
  H   H338      1.0  0.5091141299781266  0.19850244583007223  0.27579965288744956  1.0000
  H   H339      1.0  0.48434321318747087  0.16058952907655819  0.2027944728139235  1.0000
  H   H340      1.0  0.4431730006108487  0.1905680638486461  0.20875503243598942  1.0000
  H   H341      1.0  0.4501262436410619  0.13608921173002503  0.23005116818544863  1.0000
  H   H342      1.0  0.4502648700986562  0.23710984988957973  0.28642621516368794  1.0000
  H   H343      1.0  0.4318695569982891  0.17836314626072028  0.2792663892044976  1.0000
  H   H344      1.0  0.4224067563469776  0.23212795823087062  0.25854058843799255  1.0000
  N   N19       1.0  0.015657848820929576  0.687396113262895  0.9684529538616757  1.0000
  C   C265      1.0  0.009107927476747824  0.6448690581686005  0.9493383069571728  1.0000
  C   C266      1.0  0.9825325875917015  0.7093729447552075  0.9827038238984063  1.0000
  C   C267      1.0  0.03606454846444529  0.7248367862329891  0.949269454498577  1.0000
  C   C268      1.0  0.03497488395639481  0.6705691915001188  0.9924073564536132  1.0000
  H   H345      1.0  0.993938675073901  0.6156662278468421  0.9629220016667935  1.0000
  H   H346      1.0  0.033520045682180255  0.6275578775473474  0.9380365272087872  1.0000
  H   H347      1.0  0.9943370486919781  0.6562185050863183  0.9311895276026246  1.0000
  H   H348      1.0  0.9864837787255948  0.7418093953993526  0.9971187423716142  1.0000
  H   H349      1.0  0.9670971696941549  0.7219018791902645  0.9652693415051513  1.0000
  H   H350      1.0  0.9665575431295542  0.6822637550649291  0.9975545310886008  1.0000
  H   H351      1.0  0.06104593586879492  0.709283081352131  0.9378990881862583  1.0000
  H   H352      1.0  0.041959136292838206  0.7573063657466474  0.9628865639247597  1.0000
  H   H353      1.0  0.022272096214527748  0.7386291828306328  0.9309796224613944  1.0000
  H   H354      1.0  0.060024661999333206  0.6534294695975529  0.9824355532040248  1.0000
  H   H355      1.0  0.02012428706824787  0.6428189751776192  0.007652375369061382  1.0000
  H   H356      1.0  0.040883747091704725  0.7019455084799744  0.00690169890492176  1.0000
  N   N20       1.0  0.11461640479727393  0.7170149872849485  0.29622576591887667  1.0000
  C   C269      1.0  0.12742751286877604  0.6898519017918431  0.32093296653873854  1.0000
  C   C270      1.0  0.09827628548770485  0.7638076387312188  0.30827090506168187  1.0000
  C   C271      1.0  0.08912681642812254  0.6863032235550499  0.2839000412255032  1.0000
  C   C272      1.0  0.14362501744212222  0.7281906139654141  0.2717627392173047  1.0000
  H   H357      1.0  0.14596455985390694  0.7124719384109451  0.3314499006868145  1.0000
  H   H358      1.0  0.14086786623536374  0.6551188304152173  0.3123790071696281  1.0000
  H   H359      1.0  0.10613438238663642  0.6793829071242714  0.3393906431476157  1.0000
  H   H360      1.0  0.0891719349606074  0.7858672515247758  0.2899866593794864  1.0000
  H   H361      1.0  0.07579622431623893  0.7568925913110289  0.32630979226056805  1.0000
  H   H362      1.0  0.11665813221939317  0.7873414465858825  0.31838985848452467  1.0000
  H   H363      1.0  0.07821163861587208  0.7063479662391395  0.26583058559281403  1.0000
  H   H364      1.0  0.06752365681806449  0.6756990841610162  0.30205365943122037  1.0000
  H   H365      1.0  0.1010033239223596  0.6514884364990302  0.27361779413024073  1.0000
  H   H366      1.0  0.1349104257129878  0.7490149776627093  0.25280691309392894  1.0000
  H   H367      1.0  0.15664904745073388  0.6938739386942306  0.26187761450498165  1.0000
  H   H368      1.0  0.1634274383322972  0.7511188048516058  0.2803441906419503  1.0000
  N   N21       1.0  0.22927594850734428  0.8580618805195556  0.9989318989932282  1.0000
  C   C273      1.0  0.23011385462789197  0.9120742324155481  0.9938117881506552  1.0000
  C   C274      1.0  0.19366085921163487  0.8401719477570107  0.0003130944996008189  1.0000
  C   C275      1.0  0.24138644167018625  0.8467797588871555  0.027906239743985983  1.0000
  C   C276      1.0  0.2518827546702584  0.8330842806851604  0.9736657756170927  1.0000
  H   H369      1.0  0.2567134143239291  0.9268352588378783  0.9917080917686308  1.0000
  H   H370      1.0  0.21381014047723715  0.9320411017810206  0.012763399463046055  1.0000
  H   H371      1.0  0.2202869895240927  0.9217089890405445  0.9724766600535706  1.0000
  H   H372      1.0  0.19225497892924612  0.7995187812957951  0.003373649359048825  1.0000
  H   H373      1.0  0.175925493571079  0.8571470703944244  0.019558638088624125  1.0000
  H   H374      1.0  0.18346286688047495  0.8487292423284944  0.9789999281613474  1.0000
  H   H375      1.0  0.2424947462443311  0.8062041053375254  0.03172858532452438  1.0000
  H   H376      1.0  0.2240108948316616  0.8626968928007192  0.0477923787272041  1.0000
  H   H377      1.0  0.2676707415604344  0.8613785905539499  0.0281889361902814  1.0000
  H   H378      1.0  0.2517604215238166  0.7922066071029382  0.9768442014091601  1.0000
  H   H379      1.0  0.27894090935052884  0.84588628706004  0.971719541461765  1.0000
  H   H380      1.0  0.24339781099588412  0.840453278386074  0.9514592926661668  1.0000
  N   N22       1.0  0.7357026229204741  0.965123548070438  0.45020621587680854  1.0000
  C   C277      1.0  0.7627444502926194  0.003312114845850811  0.4445499353865159  1.0000
  C   C278      1.0  0.7485375687142868  0.918758059326979  0.43469116957237697  1.0000
  C   C279      1.0  0.7048148064486348  0.9823103466234426  0.4382755405428255  1.0000
  C   C280      1.0  0.72675595671123  0.9561767602300224  0.4832701708443032  1.0000
  H   H381      1.0  0.7698933368703891  0.0111835268639906  0.41980175139875436  1.0000
  H   H382      1.0  0.7865823588025241  0.9914093721677835  0.4529491569537403  1.0000
  H   H383      1.0  0.7540734340263158  0.03874258822450094  0.4560705631294395  1.0000
  H   H384      1.0  0.7717613063129513  0.9044534579376303  0.44320556071531575  1.0000
  H   H385      1.0  0.7286930671126328  0.8892038019704951  0.43794987876426067  1.0000
  H   H386      1.0  0.7558695369354262  0.9244929848847839  0.4097873735676571  1.0000
  H   H387      1.0  0.6841595432708307  0.9539212247934608  0.4412638875830278  1.0000
  H   H388      1.0  0.7107720453115152  0.9905495742414349  0.4135397267888751  1.0000
  H   H389      1.0  0.6940019659384821  0.016659474017415965  0.44991728872241077  1.0000
  H   H390      1.0  0.7060479699900724  0.9280738511006206  0.48835766167844186  1.0000
  H   H391      1.0  0.7174402144064842  0.9906176481157621  0.4957293055787692  1.0000
  H   H392      1.0  0.7493466389079448  0.9426705375488321  0.4929858184202574  1.0000
  N   N23       1.0  0.2707852686958813  0.7438686250681898  0.6266001736383007  1.0000
  C   C281      1.0  0.29701248643950484  0.7795029898265413  0.6125925471877764  1.0000
  C   C282      1.0  0.2561851855358769  0.760640417262227  0.6576386717029978  1.0000
  C   C283      1.0  0.28690092622806307  0.6947654859081407  0.6282717359456945  1.0000
  C   C284      1.0  0.24311281427425635  0.7403615628897996  0.607886998390178  1.0000
  H   H393      1.0  0.308585770319613  0.7677588191474982  0.5891788956107825  1.0000
  H   H394      1.0  0.31828642566726834  0.7829307925298863  0.6261481380222953  1.0000
  H   H395      1.0  0.28575261696415144  0.817020543791296  0.6109110810081904  1.0000
  H   H396      1.0  0.23617148381464326  0.7347117894508703  0.6688242335593412  1.0000
  H   H397      1.0  0.27622495282477855  0.7625950859551877  0.6726096771868296  1.0000
  H   H398      1.0  0.2440667788601971  0.7978201038660347  0.6574118161874656  1.0000
  H   H399      1.0  0.26767111988392717  0.667173820676955  0.6384783191480817  1.0000
  H   H400      1.0  0.3076764198869995  0.6955766421746827  0.6424708853507469  1.0000
  H   H401      1.0  0.29800294001252475  0.6805692130258698  0.605271872036246  1.0000
  H   H402      1.0  0.2531697556293081  0.7268654877728338  0.5844721899246743  1.0000
  H   H403      1.0  0.23039241803793786  0.7767198470623142  0.6058959981455501  1.0000
  H   H404      1.0  0.22289899494243356  0.7136538268978864  0.6177627201393011  1.0000
  N   N24       1.0  0.18677047690560328  0.46339974552499064  0.49759218052696497  1.0000
  C   C285      1.0  0.1769864802956585  0.4227118710009014  0.5193700119882639  1.0000
  C   C286      1.0  0.20361761159949981  0.5031422015883352  0.5125239823495744  1.0000
  C   C287      1.0  0.15561790985165477  0.4833263849752104  0.4873413139706375  1.0000
  C   C288      1.0  0.2107960485370494  0.44454447502351924  0.4710644330510265  1.0000
  H   H405      1.0  0.16415859282642326  0.392211035287579  0.5086993471768118  1.0000
  H   H406      1.0  0.15883596254112717  0.4357787840759695  0.5396412001640141  1.0000
  H   H407      1.0  0.19987441276023854  0.40672008914595964  0.5275719229763959  1.0000
  H   H408      1.0  0.21136062115010334  0.53430424781623  0.4965663300120802  1.0000
  H   H409      1.0  0.18611565286800003  0.5186094664644557  0.5324855603186668  1.0000
  H   H410      1.0  0.22716030025391765  0.4896121266033664  0.5207462629325501  1.0000
  H   H411      1.0  0.16216247527141975  0.5137721421339648  0.4707611479656716  1.0000
  H   H412      1.0  0.13696235916306568  0.4985850808553148  0.5066082355577611  1.0000
  H   H413      1.0  0.14230957231538643  0.45454461345178826  0.4756552317543383  1.0000
  H   H414      1.0  0.21855561927754225  0.47435702283453146  0.45410548221177255  1.0000
  H   H415      1.0  0.19880639730649793  0.41481853887699355  0.4589892281690857  1.0000
  H   H416      1.0  0.23463790118085384  0.4290562528301016  0.47776869561434115  1.0000
  N   N25       1.0  0.9474964453049536  0.6515543728419356  0.4624102467739369  1.0000
  C   C289      1.0  0.9254717872655304  0.6427061484921179  0.43907093752289394  1.0000
  C   C290      1.0  0.9258970649353957  0.6522787754821692  0.4928206218747417  1.0000
  C   C291      1.0  0.9651008404613721  0.699634824295589  0.45671726606255275  1.0000
  C   C292      1.0  0.9734960011264773  0.6117125461048316  0.4610489248150306  1.0000
  H   H417      1.0  0.9125830689029105  0.6060748951986453  0.44214858454059086  1.0000
  H   H418      1.0  0.940640416536609  0.6436091675924922  0.4157673300498904  1.0000
  H   H419      1.0  0.9049216884574571  0.67131125471192  0.4400960783114651  1.0000
  H   H420      1.0  0.9416169516818647  0.6583012376514931  0.5111288850199153  1.0000
  H   H421      1.0  0.9064682441131623  0.6826536495884037  0.4947337181353195  1.0000
  H   H422      1.0  0.9117634780632166  0.6169123978188932  0.4978029483936332  1.0000
  H   H423      1.0  0.9793897258588707  0.7095794934066286  0.47544336131400955  1.0000
  H   H424      1.0  0.946574384381732  0.729984704278171  0.45440578774739865  1.0000
  H   H425      1.0  0.9840942080798931  0.6990433911296167  0.4354280026243839  1.0000
  H   H426      1.0  0.9909402226398112  0.6177708324027732  0.4780106711052913  1.0000
  H   H427      1.0  0.9899252297228736  0.6098167843811171  0.4381866616588555  1.0000
  H   H428      1.0  0.9612649580415  0.5748605822184417  0.46562575747632123  1.0000
  N   N26       1.0  0.30586264300130817  0.4889240546758218  0.7550317694894133  1.0000
  C   C293      1.0  0.2885044774338048  0.5084319069584172  0.7846002779115832  1.0000
  C   C294      1.0  0.3434983924910976  0.4940394875347963  0.7529683416088672  1.0000
  C   C295      1.0  0.29429595809668013  0.5170572277768284  0.7300900561510469  1.0000
  C   C296      1.0  0.2971242398902598  0.43612651503676186  0.7523796852643234  1.0000
  H   H429      1.0  0.2600512663979947  0.5049447312900652  0.7868458972458472  1.0000
  H   H430      1.0  0.294403334861916  0.5483113162405068  0.7873496812390666  1.0000
  H   H431      1.0  0.29663473697053094  0.48817261820346985  0.8040074337229809  1.0000
  H   H432      1.0  0.3531568154873194  0.47304903232905726  0.771376806864134  1.0000
  H   H433      1.0  0.3573001122101439  0.4797326736505385  0.7308232725163168  1.0000
  H   H434      1.0  0.35099871221789003  0.5334473945389628  0.7549346336785241  1.0000
  H   H435      1.0  0.26603277004397335  0.513654660645218  0.7309017029089946  1.0000
  H   H436      1.0  0.3066615865498683  0.503000597855616  0.7074110889174428  1.0000
  H   H437      1.0  0.3003205302905402  0.5571585401786966  0.7313044550584055  1.0000
  H   H438      1.0  0.26899244652794857  0.4309558656476364  0.7528375025108638  1.0000
  H   H439      1.0  0.3047465677022957  0.4137495020633978  0.7711678327393705  1.0000
  H   H440      1.0  0.3103332903146186  0.4200674408813761  0.7305612049780719  1.0000
  N   N27       1.0  0.2780895332738705  0.05191116130583495  0.25211543264596314  1.0000
  C   C297      1.0  0.2980910993443855  0.07805106098523495  0.225945280303529  1.0000
  C   C298      1.0  0.2455717851835756  0.07886105235845253  0.26230117529925384  1.0000
  C   C299      1.0  0.29823626911090606  0.04968377949864933  0.2773366792100081  1.0000
  C   C300      1.0  0.27040577365641244  0.0011463676399168232  0.24289182311957788  1.0000
  H   H441      1.0  0.3229614986581752  0.05896630270628589  0.21772652053899985  1.0000
  H   H442      1.0  0.30408978875797893  0.11667114706475301  0.23202783142380476  1.0000
  H   H443      1.0  0.2837668608329133  0.08013452651036546  0.20640456514178382  1.0000
  H   H444      1.0  0.250517668592121  0.11734358482853136  0.26944756806797115  1.0000
  H   H445      1.0  0.2297302466168926  0.081268904583784  0.2437941946787733  1.0000
  H   H446      1.0  0.22981533736580104  0.060164722034393936  0.2820294342276783  1.0000
  H   H447      1.0  0.2842727394382855  0.02925272453397354  0.2972308641257593  1.0000
  H   H448      1.0  0.3036586403161215  0.08739738180727774  0.2854715166732923  1.0000
  H   H449      1.0  0.32339405934776433  0.03078512243577114  0.27021369503308434  1.0000
  H   H450      1.0  0.2556325696558334  0.9799353285223685  0.2620409362388941  1.0000
  H   H451      1.0  0.29432956768434265  0.9798177574344882  0.23458377834823554  1.0000
  H   H452      1.0  0.2548252572893019  0.0013665190842122588  0.2241442882701754  1.0000
  N   N28       1.0  0.0791610573539831  0.635196255189715  0.1008345404381481  1.0000
  C   C301      1.0  0.11054539565724757  0.6108744209852174  0.08470217360018384  1.0000
  C   C302      1.0  0.05717259374194143  0.5981223939199112  0.11893089947632385  1.0000
  C   C303      1.0  0.06000769775144764  0.6579052807360015  0.07842172964058092  1.0000
  C   C304      1.0  0.08884553504874375  0.6738309875342111  0.12133798980177479  1.0000
  H   H453      1.0  0.1258025150662127  0.5937754060877518  0.10095710090759025  1.0000
  H   H454      1.0  0.12757864268004698  0.6377693995828447  0.07059973278728782  1.0000
  H   H455      1.0  0.10414798867357442  0.5812555051689338  0.06919477079284242  1.0000
  H   H456      1.0  0.04859619398370865  0.5688862455871976  0.1042287413316394  1.0000
  H   H457      1.0  0.07075759508201243  0.5797523845974857  0.13598068189878698  1.0000
  H   H458      1.0  0.03360942605038548  0.6154942782407923  0.13178401921502236  1.0000
  H   H459      1.0  0.03599334356722357  0.67629553352667  0.08981000817696594  1.0000
  H   H460      1.0  0.05216432009323286  0.6296141467312978  0.06272684189492028  1.0000
  H   H461      1.0  0.07579913398768051  0.6860116257393901  0.06424694528933261  1.0000
  H   H462      1.0  0.10283976762375072  0.6578064657400833  0.1388429915280831  1.0000
  H   H463      1.0  0.06581480785139592  0.6935302122850561  0.13346854018148813  1.0000
  H   H464      1.0  0.10594562276716864  0.7020384471124815  0.10871556375826774  1.0000
  N   N29       1.0  0.39624190279677757  0.9670225420215556  0.04537424554350932  1.0000
  C   C305      1.0  0.39165695318526  0.973003206584676  0.013292471967979669  1.0000
  C   C306      1.0  0.3919951720270859  0.9144276716953236  0.054218302602816876  1.0000
  C   C307      1.0  0.3702717225577699  0.9971595356281345  0.06508024140752222  1.0000
  C   C308      1.0  0.431074005590457  0.9836081511880447  0.048948279285634166  1.0000
  H   H465      1.0  0.3950694149253491  0.01222010266961715  0.005952909806468786  1.0000
  H   H466      1.0  0.3654829794069553  0.9617179077282236  0.009730410985659077  1.0000
  H   H467      1.0  0.41070877661415867  0.9506706305388187  0.9976999651844114  1.0000
  H   H468      1.0  0.3952352342623317  0.9088220387699949  0.07838424803440765  1.0000
  H   H469      1.0  0.36596915518459394  0.9006437823597944  0.051943474719957416  1.0000
  H   H470      1.0  0.4113419530760082  0.8905824399652622  0.040006837977110354  1.0000
  H   H471      1.0  0.3731543386459642  0.9936762609455209  0.08943525817479507  1.0000
  H   H472      1.0  0.3436655900401812  0.9855376025897487  0.06316323640738314  1.0000
  H   H473      1.0  0.37266437039858386  0.03707579804519323  0.059013965681162635  1.0000
  H   H474      1.0  0.4357239120692582  0.978664437848103  0.07272156800693282  1.0000
  H   H475      1.0  0.4348834883743926  0.023472633444512336  0.04334773635195188  1.0000
  H   H476      1.0  0.4513816870000552  0.9625244398493057  0.03392496281739832  1.0000
  N   N30       1.0  0.2973236229806926  0.5305792610638176  0.279598234350789  1.0000
  C   C309      1.0  0.26533268889569883  0.5032472353735068  0.2907964498058395  1.0000
  C   C310      1.0  0.29547799590182733  0.5514666009561361  0.24922215778032886  1.0000
  C   C311      1.0  0.326963192608395  0.4963702938637944  0.27748576332505936  1.0000
  C   C312      1.0  0.30159362024146613  0.5711435755550487  0.3009393711506947  1.0000
  H   H477      1.0  0.24252313596661515  0.5281437215498657  0.29405603782464595  1.0000
  H   H478      1.0  0.2664923239202011  0.4851995332628076  0.3130416798426163  1.0000
  H   H479      1.0  0.26066965251963725  0.4734847548216132  0.27469511516543266  1.0000
  H   H480      1.0  0.31905504301496995  0.5727364166687412  0.24016236104389987  1.0000
  H   H481      1.0  0.29236715315922124  0.5220122793523047  0.23242754468804594  1.0000
  H   H482      1.0  0.27335104910104696  0.5773785123594238  0.2499365640175999  1.0000
  H   H483      1.0  0.3515925960043433  0.515430768007719  0.26885882296891106  1.0000
  H   H484      1.0  0.32436048757359753  0.4647413575895939  0.26201887492121445  1.0000
  H   H485      1.0  0.32930007742719003  0.4804261543939779  0.3001370201850879  1.0000
  H   H486      1.0  0.32556175813053057  0.5923884278122779  0.2932388687453493  1.0000
  H   H487      1.0  0.30291084225546894  0.5567750149559921  0.3241106279827788  1.0000
  H   H488      1.0  0.2798125195680877  0.597870089345889  0.3030412083181546  1.0000
  N   N31       1.0  0.4804486627026094  0.16055077872691056  0.7549577310643851  1.0000
  C   C313      1.0  0.46167218360218043  0.13697114821804976  0.7326276037791458  1.0000
  C   C314      1.0  0.501546341483536  0.20170706672983177  0.7402908340458981  1.0000
  C   C315      1.0  0.5029947065582276  0.12348761661777738  0.7662604254609432  1.0000
  C   C316      1.0  0.45549923941781223  0.18001705569788806  0.780647845918743  1.0000
  H   H489      1.0  0.44516399817756896  0.10622231066278635  0.7431302581587743  1.0000
  H   H490      1.0  0.4795591701832624  0.12118512911888896  0.7130917737229806  1.0000
  H   H491      1.0  0.44469361933064083  0.1639328592204008  0.7232605445224533  1.0000
  H   H492      1.0  0.5217259429316836  0.18816356164182152  0.7217499564554142  1.0000
  H   H493      1.0  0.48560024456277145  0.2290945130007916  0.7300280370591343  1.0000
  H   H494      1.0  0.5147264784288368  0.22190404212664652  0.7568943131273026  1.0000
  H   H495      1.0  0.4877547457714533  0.09342101823228027  0.7791758527894305  1.0000
  H   H496      1.0  0.5190407637881814  0.14054701228699332  0.7817914578656117  1.0000
  H   H497      1.0  0.5207511689988512  0.10590297785311899  0.747222453847759  1.0000
  H   H498      1.0  0.43931416779484045  0.15000509598356307  0.7925506683147108  1.0000
  H   H499      1.0  0.43776985192716616  0.20756717198080613  0.7728472236300258  1.0000
  H   H500      1.0  0.4685636657728025  0.19864776590940006  0.7978353445171298  1.0000
  N   N32       1.0  0.2794740531335966  0.04549752974630266  0.8052833358654293  1.0000
  C   C317      1.0  0.2626499665136571  0.027491494222712024  0.8353516061819738  1.0000
  C   C318      1.0  0.3124495900277493  0.019116341459097578  0.7962782508359478  1.0000
  C   C319      1.0  0.2859602938194783  0.09922064434299228  0.8069345422823898  1.0000
  C   C320      1.0  0.2568570158472805  0.036008388398727664  0.7825147825294855  1.0000
  H   H501      1.0  0.25790190490988063  0.9868800819441885  0.8350918828253006  1.0000
  H   H502      1.0  0.23753697485079442  0.0461843666557318  0.8429242028095434  1.0000
  H   H503      1.0  0.2789513958533935  0.03425248573803863  0.8530658945683057  1.0000
  H   H504      1.0  0.33054030383144145  0.026678899456573646  0.8124831655068315  1.0000
  H   H505      1.0  0.30880067410833933  0.9782683115356485  0.7960638641272284  1.0000
  H   H506      1.0  0.3253752723866213  0.03036814687774081  0.7732435692133938  1.0000
  H   H507      1.0  0.3037005823955789  0.10770205925799055  0.8233344412030124  1.0000
  H   H508      1.0  0.2617871592415067  0.12031700372706358  0.8143935014082753  1.0000
  H   H509      1.0  0.2980603652740481  0.11423729245841606  0.784479886368629  1.0000
  H   H510      1.0  0.25158770950388265  0.9957549120312319  0.7807105198846106  1.0000
  H   H511      1.0  0.26879946554535133  0.04916242413167174  0.7595359727174129  1.0000
  H   H512      1.0  0.23168852390903424  0.05530082287167632  0.788636435631331  1.0000
