data_image0
_chemical_formula_structural       FeS2FeS2FeSFeS3FeS2FeS2FeSFeS3FeS2FeS2FeSFeS3FeS2FeS2FeSFeS3FeS2FeS2FeSFeS3FeS2FeS2FeSFeS3FeS2FeS2FeSFeS3FeS2FeS2FeSFeS3FeS2FeS2FeSFeS3FeS2FeS2FeSFeS3FeS2FeS2FeSFeS3FeS2FeS2FeSFeS3FeS2FeS2FeSFeS3FeS2FeS2FeSFeS3FeS2FeS2FeSFeS3FeS2FeS2FeSFeS3C6H4C6H4C6H4C6H4C6H4C6H4C6H4C6H4C6H4C6H4C6H4C6H4C6H4C6H4C6H4C6H4C6H4C6H4C6H4C6H4C6H4C6H4C6H4C6H4C6H4C6H4C6H4C6H4C6H4C6H4C6H4C6H4NC4H12NC4H12NC4H12NC4H12NC4H12NC4H12NC4H12NC4H12NC4H12NC4H12NC4H12NC4H12NC4H12NC4H12NC4H12NC4H12NC4H12NC4H12NC4H12NC4H12NC4H12NC4H12NC4H12NC4H12NC4H12NC4H12NC4H12NC4H12NC4H12NC4H12NC4H12NC4H12
_chemical_formula_sum              "Fe64 S128 C320 H512 N32"
_cell_length_a       27.23741244055091
_cell_length_b       38.19187335198616
_cell_length_c       48.33659101670278
_cell_angle_alpha    91.73955295022577
_cell_angle_beta     80.82816306020698
_cell_angle_gamma    81.59843198398414

_space_group_name_H-M_alt    "P 1"
_space_group_IT_number       1

loop_
  _space_group_symop_operation_xyz
  'x, y, z'

loop_
  _atom_site_type_symbol
  _atom_site_label
  _atom_site_symmetry_multiplicity
  _atom_site_fract_x
  _atom_site_fract_y
  _atom_site_fract_z
  _atom_site_occupancy
  Fe  Fe1       1.0  0.30070884016524485  0.07166375000680592  0.13351286956174266  1.0000
  S   S1        1.0  0.37680956953850503  0.07373628216968968  0.1452020074883209  1.0000
  S   S2        1.0  0.2666676359360478  0.021391107684972085  0.13265096239075774  1.0000
  Fe  Fe2       1.0  0.2871772962488898  0.14880578161475505  0.11799016121281554  1.0000
  S   S3        1.0  0.3617406488011034  0.15666442383359813  0.12895793011886605  1.0000
  S   S4        1.0  0.25001122854150876  0.19470849929786457  0.09696750522707316  1.0000
  Fe  Fe3       1.0  0.3896765410552555  0.10392618972517266  0.10620112585512424  1.0000
  S   S5        1.0  0.4626771055277734  0.09391765666006088  0.07606118986458729  1.0000
  Fe  Fe4       1.0  0.34052284593405574  0.12607573835832475  0.16685534404205168  1.0000
  S   S6        1.0  0.3453039708868037  0.1482237778309434  0.21014578725940036  1.0000
  S   S7        1.0  0.3166573273702975  0.09782855325159115  0.09280596336434643  1.0000
  S   S8        1.0  0.2629644940265521  0.12236836515351937  0.15761566304215122  1.0000
  Fe  Fe5       1.0  0.3606099807403409  0.7705896299678274  0.10971709404599847  1.0000
  S   S9        1.0  0.43507288662411947  0.7829164002628567  0.11820886714728772  1.0000
  S   S10       1.0  0.36477922627600196  0.74378675680165  0.06683716011736852  1.0000
  Fe  Fe6       1.0  0.31090773488536566  0.7887937819818661  0.17072402649929547  1.0000
  S   S11       1.0  0.3821320871872275  0.8015060649462339  0.18335910970112385  1.0000
  S   S12       1.0  0.2424276324868502  0.7972831644774434  0.20468067723913003  1.0000
  Fe  Fe7       1.0  0.3898729716500811  0.8302113162374377  0.14361859151739753  1.0000
  S   S13       1.0  0.41629280714828987  0.8830915540346275  0.1469776487836109  1.0000
  Fe  Fe8       1.0  0.41969747225177356  0.753025074695482  0.1569371474436711  1.0000
  S   S14       1.0  0.48360081976643604  0.716277387292015  0.169947726146984  1.0000
  S   S15       1.0  0.3160433298704101  0.820651611089412  0.1321872993816747  1.0000
  S   S16       1.0  0.34769108659680237  0.7376193161337306  0.14731922395671443  1.0000
  Fe  Fe9       1.0  0.41516301329387484  0.10533458856334313  0.9182559233409342  1.0000
  S   S17       1.0  0.3334402215994149  0.10203840590218088  0.9311921128370072  1.0000
  S   S18       1.0  0.477009443181358  0.09198870298174323  0.9438115802036814  1.0000
  Fe  Fe10      1.0  0.40202340979489926  0.12667095083565616  0.8588977635051787  1.0000
  S   S19       1.0  0.3187677666704116  0.12524824853394578  0.867073951195474  1.0000
  S   S20       1.0  0.44990465988497624  0.13522734921830096  0.8176724663984084  1.0000
  Fe  Fe11      1.0  0.32067917670513746  0.15257427582482191  0.9087419678969859  1.0000
  S   S21       1.0  0.2644429995122686  0.19791155294672969  0.931260547555969  1.0000
  Fe  Fe12      1.0  0.33921083268649904  0.07509627530166811  0.8886726496275358  1.0000
  S   S22       1.0  0.302975107728337  0.026667849533558892  0.8818548330601373  1.0000
  S   S23       1.0  0.40252140815373283  0.15794704983416444  0.8990004801286023  1.0000
  S   S24       1.0  0.4222435250434144  0.0745204451703289  0.8772260681321123  1.0000
  Fe  Fe13      1.0  0.41507960954153433  0.8358639234197838  0.8770753864010234  1.0000
  S   S25       1.0  0.33327407203689824  0.8309272282887717  0.8805143144787154  1.0000
  S   S26       1.0  0.4541171512909678  0.882760196622869  0.8668342768336234  1.0000
  Fe  Fe14      1.0  0.44433498687861345  0.7618659144049651  0.8962660487146464  1.0000
  S   S27       1.0  0.36548489656853  0.7495857247877601  0.9010547658741044  1.0000
  S   S28       1.0  0.5109983488188391  0.7299354014924333  0.9105337841180231  1.0000
  Fe  Fe15      1.0  0.3625035351931322  0.7764381974725583  0.860110962260477  1.0000
  S   S29       1.0  0.3380246268427961  0.749921060657979  0.823215934648098  1.0000
  Fe  Fe16      1.0  0.343143624746614  0.8047527041611368  0.9209411010159433  1.0000
  S   S30       1.0  0.2935979982130386  0.8216972383221197  0.9625853877507823  1.0000
  S   S31       1.0  0.44384104235620825  0.7835766142665341  0.8538184647125295  1.0000
  S   S32       1.0  0.4219668534734518  0.8149404651239571  0.9190335057534849  1.0000
  Fe  Fe17      1.0  0.24007908268834333  0.8135717181602977  0.6233818527567295  1.0000
  S   S33       1.0  0.3073808301734967  0.772154624150003  0.6091722480320069  1.0000
  S   S34       1.0  0.19252287128735437  0.8347054013661157  0.5911578346611442  1.0000
  Fe  Fe18      1.0  0.25482580312887254  0.8093346585432857  0.6850711088173477  1.0000
  S   S35       1.0  0.3219617498848105  0.7669927540026998  0.6740268876544001  1.0000
  S   S36       1.0  0.23535845112863304  0.8327993482059902  0.7298748281307208  1.0000
  Fe  Fe19      1.0  0.34463436379824586  0.8015766837840942  0.6388488135351007  1.0000
  S   S37       1.0  0.4250884618216932  0.8124669208341893  0.6293293783368419  1.0000
  Fe  Fe20      1.0  0.27592387140957  0.7429136598425761  0.6459304135205062  1.0000
  S   S38       1.0  0.27317555194561477  0.6840445126671258  0.6386050894895823  1.0000
  S   S39       1.0  0.2794744577998994  0.8449167223427858  0.6508444475807602  1.0000
  S   S40       1.0  0.20688212704228268  0.78320020010772  0.6591854102663394  1.0000
  Fe  Fe21      1.0  0.42829890360222966  0.07968450779237085  0.6662288528155899  1.0000
  S   S41       1.0  0.5069705678313982  0.05231288082457495  0.6661424941928261  1.0000
  S   S42       1.0  0.37209651738853217  0.0976529390028851  0.7055624264459064  1.0000
  Fe  Fe22      1.0  0.44095226770401796  0.07521265737087876  0.6022896844274197  1.0000
  S   S43       1.0  0.5205360940715933  0.047865378951313896  0.5976274492097139  1.0000
  S   S44       1.0  0.39855357592463275  0.08583803891396309  0.5660643486331296  1.0000
  Fe  Fe23      1.0  0.49081811201302433  0.0152377956037264  0.6327756266674563  1.0000
  S   S45       1.0  0.5186332860243348  0.955998240427353  0.6301314708545395  1.0000
  Fe  Fe24      1.0  0.5284007928967326  0.08789782757831599  0.6313062911168353  1.0000
  S   S46       1.0  0.5987470021665774  0.11391943516389334  0.630219558466874  1.0000
  S   S47       1.0  0.41062521777525185  0.040103567693158294  0.6352844271047107  1.0000
  S   S48       1.0  0.45036824877240655  0.11768146570515131  0.6335242184311738  1.0000
  Fe  Fe25      1.0  0.18761094269345563  0.8567190771061379  0.3972620649379591  1.0000
  S   S49       1.0  0.26817669364133145  0.8322062699193431  0.39416691218039607  1.0000
  S   S50       1.0  0.15896954453796175  0.9156484857396024  0.3996075002761406  1.0000
  Fe  Fe26      1.0  0.14990498035480973  0.7841233466313899  0.39995650829728996  1.0000
  S   S51       1.0  0.22819044470706704  0.7548151937480276  0.39740485564632394  1.0000
  S   S52       1.0  0.08002088312620459  0.7574440124823429  0.4009929920412617  1.0000
  Fe  Fe27      1.0  0.23838096320611973  0.7978144963995977  0.4279090303440086  1.0000
  S   S53       1.0  0.28143298149352614  0.7872672280380663  0.4638246364295265  1.0000
  Fe  Fe28      1.0  0.2495531692505398  0.7921132748733563  0.36397640388629005  1.0000
  S   S54       1.0  0.302456529618436  0.7697855709120167  0.32435481058993804  1.0000
  S   S55       1.0  0.15854376925187053  0.8247629164523367  0.4329885092499521  1.0000
  S   S56       1.0  0.1704956966082595  0.819043483837081  0.36459891012573015  1.0000
  Fe  Fe29      1.0  0.4162790719598196  0.07012364252531016  0.34757367027529085  1.0000
  S   S57       1.0  0.34646623850876357  0.10916874295776338  0.36217263984531145  1.0000
  S   S58       1.0  0.4409139749616893  0.05561227449537603  0.3009101194594814  1.0000
  Fe  Fe30      1.0  0.4381553119990823  0.06236753209166922  0.40792197781813794  1.0000
  S   S59       1.0  0.3696170121414701  0.10113950371469442  0.4252657649139727  1.0000
  S   S60       1.0  0.48947479422743007  0.04216760740603327  0.43851675644724747  1.0000
  Fe  Fe31      1.0  0.33157950735069947  0.07125871353678906  0.3962079331593536  1.0000
  S   S61       1.0  0.2543031893632827  0.057104427342376064  0.4115422443148174  1.0000
  Fe  Fe32      1.0  0.3938258556556201  0.13376513855197494  0.38918378839587237  1.0000
  S   S62       1.0  0.39522793752161994  0.1931995648356851  0.3944390512199969  1.0000
  S   S63       1.0  0.3991223239743372  0.03077882951907137  0.3804134424402077  1.0000
  S   S64       1.0  0.46446533499468173  0.0964587167864971  0.3730820568171308  1.0000
  Fe  Fe33      1.0  0.02448712396982785  0.4209305335991711  0.16640179696430538  1.0000
  S   S65       1.0  0.972305042621112  0.38035187349472016  0.16771155831642004  1.0000
  S   S66       1.0  0.020473729787554754  0.4660075258075408  0.1985641919068142  1.0000
  Fe  Fe34      1.0  0.08020312704947558  0.3948761982696235  0.10794030820331468  1.0000
  S   S67       1.0  0.03436186597250841  0.3513180292859024  0.10424560680517386  1.0000
  S   S68       1.0  0.1453179514546294  0.4088727275997598  0.07750494846623092  1.0000
  Fe  Fe35      1.0  0.9686953490646212  0.39241337753062827  0.12283724437467285  1.0000
  S   S69       1.0  0.8981638665978738  0.3968265008160142  0.10377027599278169  1.0000
  Fe  Fe36      1.0  0.04199341469643685  0.3425585506678986  0.14920306135631445  1.0000
  S   S70       1.0  0.05706180285596676  0.2885058589808571  0.16618122239464697  1.0000
  S   S71       1.0  0.013942587195580497  0.43666683704490383  0.12302037417185088  1.0000
  S   S72       1.0  0.09444095844638067  0.382218651371787  0.15145671781219472  1.0000
  Fe  Fe37      1.0  0.5464607047873911  0.5161296330245637  0.14822994862160802  1.0000
  S   S73       1.0  0.5442228561515413  0.45812786469875894  0.13955383460575793  1.0000
  S   S74       1.0  0.47263982080863504  0.5529736656110306  0.15549319786250057  1.0000
  Fe  Fe38      1.0  0.6594408687270318  0.5058693721189954  0.14221840133004054  1.0000
  S   S75       1.0  0.6653910386767039  0.44758535354262013  0.13322350388598292  1.0000
  S   S76       1.0  0.7314455907911503  0.5276008441216704  0.14377194177989336  1.0000
  Fe  Fe39      1.0  0.6087159543090587  0.4621296427216127  0.10498858041488826  1.0000
  S   S77       1.0  0.625844413673683  0.43445500927861497  0.061625226443997316  1.0000
  Fe  Fe40      1.0  0.6011272771199679  0.4496346892550067  0.16875991392866627  1.0000
  S   S78       1.0  0.6110976426122752  0.4056983110927642  0.19907443633821154  1.0000
  S   S79       1.0  0.6070543933352415  0.5206383240274898  0.11162013463678014  1.0000
  S   S80       1.0  0.5987843749120971  0.5073811845137322  0.17984827750504945  1.0000
  Fe  Fe41      1.0  0.12401448159841337  0.3636311305946331  0.8741776969269321  1.0000
  S   S81       1.0  0.14860376922914034  0.41711706380090835  0.8749798751858594  1.0000
  S   S82       1.0  0.17596068904500842  0.31469360907705785  0.8547323189744962  1.0000
  Fe  Fe42      1.0  0.017153809167658896  0.39230705208321126  0.8998840602792338  1.0000
  S   S83       1.0  0.032278020028890304  0.44833448501053313  0.903572115227465  1.0000
  S   S84       1.0  0.9424016615870792  0.3732437969420006  0.9091077950474312  1.0000
  Fe  Fe43      1.0  0.07633808931758619  0.437084780147183  0.8598938289036706  1.0000
  S   S85       1.0  0.06343114431484456  0.4793616130754186  0.8286901545770281  1.0000
  Fe  Fe44      1.0  0.10288282436663974  0.42383055232965244  0.9184757955236272  1.0000
  S   S86       1.0  0.14066639892366073  0.4478974668915721  0.9510571055693273  1.0000
  S   S87       1.0  0.05564157098054157  0.3829288163554443  0.8552295413491032  1.0000
  S   S88       1.0  0.08383343622193586  0.368743477746742  0.9186400476596968  1.0000
  Fe  Fe45      1.0  0.6034122200111477  0.4998787181115521  0.9167252269564891  1.0000
  S   S89       1.0  0.6453495875494759  0.545953557044618  0.9098580375903739  1.0000
  S   S90       1.0  0.546655903996256  0.506369170634432  0.9569079523304789  1.0000
  Fe  Fe46      1.0  0.6560122725052965  0.46264542684481164  0.8604302287946158  1.0000
  S   S91       1.0  0.7029264462500698  0.5055369979181527  0.8499889920457665  1.0000
  S   S92       1.0  0.6667683468716074  0.4153064181564205  0.8296566643903205  1.0000
  Fe  Fe47      1.0  0.7124946381057508  0.5045837711487346  0.895261787159741  1.0000
  S   S93       1.0  0.7835976731375827  0.5107607015938949  0.9117507134705959  1.0000
  Fe  Fe48      1.0  0.631103069666786  0.542367168357209  0.8656059926386024  1.0000
  S   S94       1.0  0.6016050138313279  0.5869493026252182  0.8403586051719826  1.0000
  S   S95       1.0  0.6717071575339721  0.4584277178971964  0.9048712574119329  1.0000
  S   S96       1.0  0.5833153410320446  0.4994439155415776  0.8733296333048087  1.0000
  Fe  Fe49      1.0  0.6489437496961503  0.3194176341210999  0.6461336221371273  1.0000
  S   S97       1.0  0.6040599289194005  0.3721520836160225  0.639451802560616  1.0000
  S   S98       1.0  0.5931879740090628  0.2797366521075867  0.6496121491922295  1.0000
  Fe  Fe50      1.0  0.7453377526762885  0.35409094012436376  0.6454179573755832  1.0000
  S   S99       1.0  0.7046449418769227  0.40740891045638916  0.6387096806821254  1.0000
  S   S100      1.0  0.8275932051551592  0.3525875147845335  0.6500106075788901  1.0000
  Fe  Fe51      1.0  0.6439166300893888  0.3941373502708409  0.6719370725832138  1.0000
  S   S101      1.0  0.6105323982783628  0.43529699744079237  0.7075077743958809  1.0000
  Fe  Fe52      1.0  0.6704557093369898  0.3788930993563478  0.607151300649308  1.0000
  S   S102      1.0  0.6812060884310012  0.3945618209659089  0.5618759624358735  1.0000
  S   S103      1.0  0.6855577002849774  0.34157698710142204  0.6801660018472442  1.0000
  S   S104      1.0  0.7140144090189219  0.3255339799775842  0.6122520459947696  1.0000
  Fe  Fe53      1.0  0.09263222843236744  0.49959699254575274  0.6039965934829931  1.0000
  S   S105      1.0  0.028423584679176047  0.5443006201143287  0.6127458479686573  1.0000
  S   S106      1.0  0.13264473828465803  0.4865749145308224  0.5594293909899467  1.0000
  Fe  Fe54      1.0  0.08467358206797747  0.4832319983155914  0.6661138843513665  1.0000
  S   S107      1.0  0.019414999806782223  0.5266711145064885  0.6789880709788085  1.0000
  S   S108      1.0  0.11726154629990326  0.44658848132731466  0.6967865656635128  1.0000
  Fe  Fe55      1.0  0.9910267971157377  0.5067781234056065  0.6411339326863137  1.0000
  S   S109      1.0  0.9112001888122231  0.4992100635500388  0.6379091604210723  1.0000
  Fe  Fe56      1.0  0.06449350003755917  0.5591753661841706  0.6492492323106847  1.0000
  S   S110      1.0  0.07145812514480628  0.6157419064712963  0.6622763476597648  1.0000
  S   S111      1.0  0.053346815392057156  0.4611371667610534  0.6300647410648731  1.0000
  S   S112      1.0  0.13162112808395873  0.516732663155888  0.6387180745286276  1.0000
  Fe  Fe57      1.0  0.6034739171783836  0.3203348785931803  0.3791902357432694  1.0000
  S   S113      1.0  0.5380194954420888  0.3638992805523965  0.39058735996012334  1.0000
  S   S114      1.0  0.5941703955993434  0.26398496005529704  0.3666585396752062  1.0000
  Fe  Fe58      1.0  0.6794368443468326  0.371148517709753  0.3871493154586689  1.0000
  S   S115      1.0  0.6185533882070033  0.41766849778001675  0.3985232122905607  1.0000
  S   S116      1.0  0.7595745334311941  0.3770601764630847  0.3911356438890898  1.0000
  Fe  Fe59      1.0  0.5786033051804249  0.37976773813222015  0.4249393875947373  1.0000
  S   S117      1.0  0.5401829145733863  0.3935541427260928  0.46979402133828113  1.0000
  Fe  Fe60      1.0  0.5858317785879044  0.3964976608053017  0.3626574786323331  1.0000
  S   S118      1.0  0.5533570106868042  0.4329106080170353  0.3316198922200743  1.0000
  S   S119      1.0  0.6410561001648252  0.3339649452065213  0.415402842068937  1.0000
  S   S120      1.0  0.6496668559233936  0.35212351148842047  0.3494175766885272  1.0000
  Fe  Fe61      1.0  0.030502907066513263  0.5507001986543498  0.38653381291919076  1.0000
  S   S121      1.0  0.0749046878164067  0.4969762951682163  0.3910285734005073  1.0000
  S   S122      1.0  0.08553210932496902  0.5905218787243067  0.3859632222747216  1.0000
  Fe  Fe62      1.0  0.9335966646496582  0.5176641505716499  0.3856730340551834  1.0000
  S   S123      1.0  0.9735033692674687  0.46328708783696454  0.38992099834908267  1.0000
  S   S124      1.0  0.8508330744322249  0.5211008050843678  0.381590376431148  1.0000
  Fe  Fe63      1.0  0.008333111989611942  0.48890236993655667  0.42265936803475496  1.0000
  S   S125      1.0  0.9981855028871189  0.46809540066878663  0.4662374562462555  1.0000
  Fe  Fe64      1.0  0.034623444879182716  0.47782571501334103  0.35763680316375146  1.0000
  S   S126      1.0  0.06738443905515279  0.4374878056931036  0.32141003804288976  1.0000
  S   S127      1.0  0.9657272721081003  0.5432245713986203  0.4200622776410726  1.0000
  S   S128      1.0  0.9934841957599109  0.5314635676277886  0.3514808643915869  1.0000
  C   C1        1.0  0.7808023351881246  0.418603334240205  0.3904485658023417  1.0000
  C   C2        1.0  0.8237057072658168  0.42228588002271844  0.4022073797525494  1.0000
  C   C3        1.0  0.8440520046944141  0.4540281658731742  0.4005349877706627  1.0000
  C   C4        1.0  0.8226834390485267  0.4822036378006009  0.3863500394764554  1.0000
  C   C5        1.0  0.7787289703336533  0.4789770383141356  0.3752988532088735  1.0000
  C   C6        1.0  0.7576980119990029  0.44731266390889146  0.3774061252003194  1.0000
  H   H1        1.0  0.8415107272051237  0.40037687006146533  0.41260336664565533  1.0000
  H   H2        1.0  0.8760560687716875  0.45667408375915974  0.41052783957959005  1.0000
  H   H3        1.0  0.761520825771068  0.500746254460342  0.36453773632155984  1.0000
  H   H4        1.0  0.7245875983198431  0.4447546402495743  0.3682046802346907  1.0000
  C   C7        1.0  0.0948040678438717  0.48460061068487703  0.5332513876583888  1.0000
  C   C8        1.0  0.11759360282455704  0.4774092924779845  0.5050948154738799  1.0000
  C   C9        1.0  0.08820219679682864  0.4737268874189401  0.4840391657761063  1.0000
  C   C10       1.0  0.035901066775706036  0.47689807976105825  0.49115853448474833  1.0000
  C   C11       1.0  0.013075250951267868  0.48486990230493116  0.5192007568268283  1.0000
  C   C12       1.0  0.04234747091677857  0.4890440634612507  0.540177815915772  1.0000
  H   H5        1.0  0.15819541005648016  0.4738380974798877  0.49965631406845595  1.0000
  H   H6        1.0  0.10610222735856924  0.4670941433076387  0.46250272646188917  1.0000
  H   H7        1.0  0.9725277089104882  0.4879465217459397  0.5246618677774907  1.0000
  H   H8        1.0  0.024392614813478833  0.49492082425379363  0.5617723523579062  1.0000
  C   C13       1.0  0.6400765951785619  0.3899270554783785  0.5378028266398361  1.0000
  C   C14       1.0  0.6608629252989545  0.3784199802102981  0.5100132275159025  1.0000
  C   C15       1.0  0.6302365080824266  0.3783985506659796  0.489271622216772  1.0000
  C   C16       1.0  0.578575078637561  0.3904043457132955  0.4960277227258619  1.0000
  C   C17       1.0  0.5574597475008171  0.4009616530770732  0.5240016789036354  1.0000
  C   C18       1.0  0.5881180733006564  0.4006934656902412  0.5448918008261241  1.0000
  H   H9        1.0  0.7010741865311688  0.3701837781980673  0.504344440636123  1.0000
  H   H10       1.0  0.6469337696500647  0.37002254492727116  0.46788155702838974  1.0000
  H   H11       1.0  0.5174640754585069  0.41029915796002214  0.52937646932337  1.0000
  H   H12       1.0  0.5718441563394181  0.4101941121009639  0.5661804693903777  1.0000
  C   C19       1.0  0.8538812896424447  0.39212038360135537  0.6446087744280271  1.0000
  C   C20       1.0  0.8956236999412277  0.39771414787379156  0.6569954493974419  1.0000
  C   C21       1.0  0.9150826452291775  0.42993940705793204  0.6542386318486312  1.0000
  C   C22       1.0  0.8922513662333459  0.456958926788239  0.6394621466781233  1.0000
  C   C23       1.0  0.851298689581367  0.451040668806632  0.626663269167031  1.0000
  C   C24       1.0  0.8330197483596753  0.41854232393654556  0.6286651777791884  1.0000
  H   H13       1.0  0.9123728208662779  0.37730618721887094  0.6691719913590479  1.0000
  H   H14       1.0  0.9465981569769885  0.43429526362563203  0.6643115932272721  1.0000
  H   H15       1.0  0.8337089963780151  0.4716690529405931  0.6149745296473785  1.0000
  H   H16       1.0  0.8026984341836432  0.4140415296370862  0.6177947591903321  1.0000
  C   C25       1.0  0.6485075773794935  0.421036378584735  0.7963701526864516  1.0000
  C   C26       1.0  0.6238560757908403  0.45350378065178487  0.7892915868706916  1.0000
  C   C27       1.0  0.6110534248640723  0.45724646435349453  0.762276943664259  1.0000
  C   C28       1.0  0.6234003255326519  0.42878498944551346  0.7420113412414613  1.0000
  C   C29       1.0  0.6477397508910556  0.3963553720648908  0.7492615013115256  1.0000
  C   C30       1.0  0.6600672777862271  0.3924867267390846  0.7762889106584647  1.0000
  H   H17       1.0  0.6146314709895604  0.4757061324356908  0.8046128029508121  1.0000
  H   H18       1.0  0.5920470427755613  0.4824337631176066  0.7569695484281502  1.0000
  H   H19       1.0  0.6568609604434995  0.37408090433236474  0.7341847034915466  1.0000
  H   H20       1.0  0.6788596849174272  0.36724416479672545  0.7816325377659314  1.0000
  C   C31       1.0  0.07728129716105972  0.46911638132609373  0.7921479606378068  1.0000
  C   C32       1.0  0.10521509753130534  0.4367430763550906  0.7809528309548756  1.0000
  C   C33       1.0  0.11667175606228136  0.42994900228269717  0.751661583538749  1.0000
  C   C34       1.0  0.09940512191982374  0.45510076182767556  0.7334235884667077  1.0000
  C   C35       1.0  0.07035388043083488  0.48709468883502843  0.7446959880952093  1.0000
  C   C36       1.0  0.059907171269222  0.4942507181854512  0.773922303809603  1.0000
  H   H21       1.0  0.11888903572092004  0.4172221094746745  0.7947980990273495  1.0000
  H   H22       1.0  0.13928887925456088  0.40516421260744884  0.7430847809222236  1.0000
  H   H23       1.0  0.056783622620888985  0.5065803247245735  0.730887805550909  1.0000
  H   H24       1.0  0.03846830479367868  0.5194218151249497  0.7824094098705219  1.0000
  C   C37       1.0  0.8233919164278027  0.4710476773163686  0.9143532880458589  1.0000
  C   C38       1.0  0.8152998559052561  0.4391059822381497  0.9022331003829406  1.0000
  C   C39       1.0  0.8505699535439959  0.408348611207231  0.9021369589169809  1.0000
  C   C40       1.0  0.8941257770679384  0.4096892931144852  0.9138624191600234  1.0000
  C   C41       1.0  0.9008726785459917  0.4412318093524533  0.9271776889422896  1.0000
  C   C42       1.0  0.8654163339003096  0.47183577987858405  0.9275350599446961  1.0000
  H   H25       1.0  0.7828767632232176  0.4383016619736333  0.8920452170579419  1.0000
  H   H26       1.0  0.845183987985469  0.3839473466632351  0.8918629955633293  1.0000
  H   H27       1.0  0.9339756877776674  0.44222451051840933  0.9367296441880545  1.0000
  H   H28       1.0  0.8715971819541486  0.4964696180432632  0.9371001707162403  1.0000
  C   C43       1.0  0.5975494483729484  0.4148387291082179  0.2358398751055511  1.0000
  C   C44       1.0  0.5688932374132114  0.4466740342264733  0.24773715423244227  1.0000
  C   C45       1.0  0.5566998716894404  0.4522259289472797  0.27713679995285395  1.0000
  C   C46       1.0  0.5739556913919106  0.42640063889330826  0.2948855983611514  1.0000
  C   C47       1.0  0.6037242698860444  0.3949337118269904  0.2829350363475252  1.0000
  C   C48       1.0  0.6148387905595889  0.3890092109760605  0.25357658345624556  1.0000
  H   H29       1.0  0.5550998737537313  0.46668587157721275  0.23430268843631039  1.0000
  H   H30       1.0  0.5334073183012696  0.47656129022466065  0.28615010419067843  1.0000
  H   H31       1.0  0.6175230766318787  0.3748533356829213  0.2962169877139557  1.0000
  H   H32       1.0  0.6367411072571628  0.3642098578366162  0.24458436706044406  1.0000
  C   C49       1.0  0.602036012021131  0.45474848880400887  0.03312477223603914  1.0000
  C   C50       1.0  0.5698537054877072  0.4872422603273145  0.03657056056631189  1.0000
  C   C51       1.0  0.5526649164708879  0.5028788843511609  0.013138314085320206  1.0000
  C   C52       1.0  0.5687429672965526  0.4866386062163739  0.9860923496489862  1.0000
  C   C53       1.0  0.6012224200635502  0.4543455576505239  0.9826971661530698  1.0000
  C   C54       1.0  0.6170845166091009  0.43821435380334883  0.006167340263995679  1.0000
  H   H33       1.0  0.557780416508862  0.5000666195909695  0.05730221843314614  1.0000
  H   H34       1.0  0.5271944350455535  0.5277041275559521  0.015951160001907324  1.0000
  H   H35       1.0  0.6129639828025437  0.4412460630265362  0.9620507374188564  1.0000
  H   H36       1.0  0.6410683484395368  0.4127419734542614  0.0033702644255484415  1.0000
  C   C55       1.0  0.03571480958825569  0.45765102228226473  0.23216675386739147  1.0000
  C   C56       1.0  0.05544247852942988  0.4237275956879356  0.23906354796112406  1.0000
  C   C57       1.0  0.066262111872166  0.4180725927612872  0.26628128829626313  1.0000
  C   C58       1.0  0.05683111678345441  0.446120932312545  0.28686619279007153  1.0000
  C   C59       1.0  0.03745027608226087  0.4800203788618277  0.2798120484110914  1.0000
  C   C60       1.0  0.02711546722778362  0.4857586148371657  0.2525796456279284  1.0000
  H   H37       1.0  0.062338000584879406  0.4018783560916354  0.22346206066186283  1.0000
  H   H38       1.0  0.08139928913828737  0.39177115615037905  0.27151681053664606  1.0000
  H   H39       1.0  0.030680919476714807  0.5019333153195472  0.29524860763807925  1.0000
  H   H40       1.0  0.012025122207695912  0.5120950311295824  0.24738695504365954  1.0000
  C   C61       1.0  0.1406578491049076  0.4187594541747008  0.042456418061358046  1.0000
  C   C62       1.0  0.10312301663615299  0.4087106060048463  0.028391972542698186  1.0000
  C   C63       1.0  0.10258310953632113  0.4168176982670843  2.473728432339506e-05  1.0000
  C   C64       1.0  0.13876180761460083  0.43577807729477436  0.9861467175251641  1.0000
  C   C65       1.0  0.17566360505910417  0.44586953691180103  0.0004556750906632434  1.0000
  C   C66       1.0  0.17702581964972605  0.4370089129119799  0.02820976345064269  1.0000
  H   H41       1.0  0.07495092214182966  0.39445380911397854  0.039239586810623076  1.0000
  H   H42       1.0  0.0737872948640322  0.4090158631831308  0.9891536430743024  1.0000
  H   H43       1.0  0.2035772264830278  0.46060919203245326  0.9899832317099154  1.0000
  H   H44       1.0  0.20625126808434463  0.4446882291197968  0.03880128954595361  1.0000
  C   C67       1.0  0.782504168529866  0.49568332278936933  0.1287000547438849  1.0000
  C   C68       1.0  0.7765543291069403  0.47157474856872666  0.10760800410116327  1.0000
  C   C69       1.0  0.8137006963356719  0.44223343705580404  0.09898408644543204  1.0000
  C   C70       1.0  0.8572257579395636  0.4370771715072017  0.11120855462187856  1.0000
  C   C71       1.0  0.8648594306633085  0.46240502481805973  0.1310114843416203  1.0000
  C   C72       1.0  0.827426158570893  0.4917762581756462  0.1397445619933559  1.0000
  H   H45       1.0  0.7425714214357239  0.47505958447329616  0.09848377260283873  1.0000
  H   H46       1.0  0.8078078141291799  0.4227104092544661  0.08366685236825379  1.0000
  H   H47       1.0  0.8984449558506158  0.4585420273792118  0.14053309864940175  1.0000
  H   H48       1.0  0.832186247121036  0.5104644150421715  0.15602767753815605  1.0000
  C   C73       1.0  0.45112293761757594  0.2125061830211842  0.3878234396876715  1.0000
  C   C74       1.0  0.49836127696483623  0.19178312580486864  0.3799305119423559  1.0000
  C   C75       1.0  0.5417807905254496  0.20796912200762885  0.3738659347355716  1.0000
  C   C76       1.0  0.5387443740319633  0.24499833987628103  0.376356793252018  1.0000
  C   C77       1.0  0.49170753493888075  0.26575171786955165  0.38514892721803434  1.0000
  C   C78       1.0  0.44807980501503814  0.24954992651504213  0.39065180068974065  1.0000
  H   H49       1.0  0.5015597417978485  0.1632859108400867  0.3784217947850042  1.0000
  H   H50       1.0  0.5780886047014886  0.19170942079463898  0.3673645066325355  1.0000
  H   H51       1.0  0.488859110003098  0.29425202994671895  0.38744808584252316  1.0000
  H   H52       1.0  0.411769746553416  0.26580744079508634  0.3971285685337156  1.0000
  C   C79       1.0  0.08145808932146315  0.7108844390288898  0.3983046280441184  1.0000
  C   C80       1.0  0.03637118858876964  0.6971264448447363  0.39782903155207894  1.0000
  C   C81       1.0  0.03658431375494686  0.6603332469041555  0.39392706007707495  1.0000
  C   C82       1.0  0.08207255551447323  0.6370574542184125  0.39030939798696007  1.0000
  C   C83       1.0  0.12699880062032337  0.6508204251052832  0.39101956959644985  1.0000
  C   C84       1.0  0.12674014351415872  0.6874624635572298  0.39511896801252294  1.0000
  H   H53       1.0  0.0011380549399166995  0.7150709691233172  0.40021669768890317  1.0000
  H   H54       1.0  0.0017060300089872804  0.6500633704931484  0.39353545024478626  1.0000
  H   H55       1.0  0.1623244518068021  0.6329546653120499  0.38848625325950215  1.0000
  H   H56       1.0  0.1616633939311925  0.6975234185093291  0.3956959097865712  1.0000
  C   C85       1.0  0.18967241335498025  0.9534870515810048  0.4005824982593698  1.0000
  C   C86       1.0  0.242235998132665  0.9523731111980047  0.3952111406772365  1.0000
  C   C87       1.0  0.2633902782424149  0.9839701817645546  0.39771119000167154  1.0000
  C   C88       1.0  0.23196104477228438  0.016483263992566503  0.40589971015082665  1.0000
  C   C89       1.0  0.1798434697462757  0.01707759251648114  0.411208124943643  1.0000
  C   C90       1.0  0.15895534522362637  0.9860703331330232  0.40828863112568303  1.0000
  H   H57       1.0  0.26642953521172436  0.9273965819087169  0.38905548799169176  1.0000
  H   H58       1.0  0.30376270355796275  0.9831696976500615  0.39361087733068806  1.0000
  H   H59       1.0  0.15523221533231824  0.041876437593560065  0.4175635718948758  1.0000
  H   H60       1.0  0.11846740704880494  0.9873579996470304  0.41246526953101487  1.0000
  C   C91       1.0  0.5981641585428562  0.16032591941727695  0.6325950900252323  1.0000
  C   C92       1.0  0.554036097656077  0.1841251557084116  0.6325556725911594  1.0000
  C   C93       1.0  0.5539188861644011  0.22072939024484292  0.636727021292286  1.0000
  C   C94       1.0  0.5978852306680742  0.2339869569876533  0.6407843820278843  1.0000
  C   C95       1.0  0.6425749574205153  0.21039306211606723  0.6396828456595454  1.0000
  C   C96       1.0  0.6426099554500503  0.17365803382086906  0.6356617985000246  1.0000
  H   H61       1.0  0.5197423032671232  0.17426249147118875  0.6298969201231999  1.0000
  H   H62       1.0  0.5191897488783913  0.23884786928092333  0.6374529492797244  1.0000
  H   H63       1.0  0.6766235413297975  0.22024669729589846  0.6429282639288428  1.0000
  H   H64       1.0  0.6769888533524632  0.15538516207331846  0.6356049788617755  1.0000
  C   C97       1.0  0.4251478800982754  0.07115872311109317  0.5312966290234576  1.0000
  C   C98       1.0  0.3929577719214034  0.06898081591642051  0.5116239844135821  1.0000
  C   C99       1.0  0.41246368070793404  0.05887642732058852  0.48341233001955164  1.0000
  C   C100      1.0  0.46444449239845886  0.05154256233182854  0.4744283344869323  1.0000
  C   C101      1.0  0.49682045634505423  0.05305795236201419  0.49419592445045163  1.0000
  C   C102      1.0  0.4772388408936277  0.06287717882455038  0.5226026854821645  1.0000
  H   H65       1.0  0.3526147646147744  0.07509911523423511  0.5182404657532871  1.0000
  H   H66       1.0  0.38707684390978647  0.056434283858503444  0.4686861667705444  1.0000
  H   H67       1.0  0.537133592266304  0.04743070806219014  0.4873897536219341  1.0000
  H   H68       1.0  0.5024200101992935  0.06500135541513617  0.5375497965958924  1.0000
  C   C103      1.0  0.21647217719665482  0.665750935921106  0.6448742935059212  1.0000
  C   C104      1.0  0.2154760978105996  0.6315338560847368  0.6335781071760839  1.0000
  C   C105      1.0  0.17100471075815402  0.6162029431767356  0.6380489264385586  1.0000
  C   C106      1.0  0.12737570146141874  0.6346829492562122  0.6544254406284626  1.0000
  C   C107      1.0  0.12827980299767477  0.6690031731742287  0.665457443996838  1.0000
  C   C108      1.0  0.17247816883314349  0.6845524073359146  0.6606126875916023  1.0000
  H   H69       1.0  0.24927811831837762  0.6168307985154788  0.6212546938851728  1.0000
  H   H70       1.0  0.17068418142753297  0.589949384379689  0.6291018763071046  1.0000
  H   H71       1.0  0.09468252842914367  0.6835753302281731  0.6780798628359928  1.0000
  H   H72       1.0  0.17267240546392865  0.7108331977583959  0.6695441094740039  1.0000
  C   C109      1.0  0.21721726512428624  0.82274730064654  0.5555432946664172  1.0000
  C   C110      1.0  0.1848897544654029  0.8240681076536026  0.5355305318066106  1.0000
  C   C111      1.0  0.20388749811386808  0.8132447216323292  0.5072281615115015  1.0000
  C   C112      1.0  0.2554152182396943  0.8013990139489873  0.4988202112584876  1.0000
  C   C113      1.0  0.2875846979446173  0.800500722481417  0.5187824418086613  1.0000
  C   C114      1.0  0.26866092076327014  0.8112984242713407  0.5469441019380402  1.0000
  H   H73       1.0  0.14499307987730384  0.8329405351563179  0.5420326028878956  1.0000
  H   H74       1.0  0.17866147356208548  0.8136180817093823  0.4920631787062206  1.0000
  H   H75       1.0  0.3275143347340593  0.7915701943647723  0.5124061128094237  1.0000
  H   H76       1.0  0.29419360170037945  0.8112741330571538  0.5618720019410887  1.0000
  C   C115      1.0  0.44667940345080415  0.8541016316545675  0.6300480882532873  1.0000
  C   C116      1.0  0.4987618515024564  0.8536150250731922  0.62520681340642  1.0000
  C   C117      1.0  0.5192367526282928  0.8850799228785053  0.6259876735790542  1.0000
  C   C118      1.0  0.48818912014589566  0.9179170181376142  0.6313205009896082  1.0000
  C   C119      1.0  0.43565205064989404  0.9189067516299647  0.6361855487732052  1.0000
  C   C120      1.0  0.4148642584292592  0.8869087845619963  0.6357049673911225  1.0000
  H   H77       1.0  0.5237038817490891  0.8285833822702431  0.6208309614151699  1.0000
  H   H78       1.0  0.5597301226629023  0.8839182652223097  0.6220984549521034  1.0000
  H   H79       1.0  0.4111974821004025  0.9441329863849081  0.6403577581595256  1.0000
  H   H80       1.0  0.3744904093089485  0.8876465206678408  0.6395398057797355  1.0000
  C   C121      1.0  0.5386489746262046  0.691721077873047  0.8896493465893958  1.0000
  C   C122      1.0  0.5768456659515516  0.6684987685836666  0.8987230372513377  1.0000
  C   C123      1.0  0.5975337844506138  0.6366757703096981  0.883221928516255  1.0000
  C   C124      1.0  0.5803186846907751  0.6282016044775478  0.8584961104308324  1.0000
  C   C125      1.0  0.5437063504142671  0.6522167066150113  0.8487687719118417  1.0000
  C   C126      1.0  0.5224826488621607  0.6838454883382591  0.8644749500895001  1.0000
  H   H81       1.0  0.5897282001361219  0.6747281657830559  0.9180834359907133  1.0000
  H   H82       1.0  0.6264954247369958  0.6185956398526693  0.8905140972158619  1.0000
  H   H83       1.0  0.5305893789311239  0.6458070739052955  0.8295081668209753  1.0000
  H   H84       1.0  0.4931421107702477  0.7017855932236666  0.8573004274477045  1.0000
  C   C127      1.0  0.30981401068145864  0.7738689422765821  0.7976236764448563  1.0000
  C   C128      1.0  0.29115255056964245  0.8101272759351403  0.8016795650497972  1.0000
  C   C129      1.0  0.267831107623807  0.827914011773313  0.7809347868039976  1.0000
  C   C130      1.0  0.26377000258530564  0.8097332838154075  0.7558729953259333  1.0000
  C   C131      1.0  0.28314227067135694  0.7736526566693331  0.7517224554840468  1.0000
  C   C132      1.0  0.30574358355951553  0.7557963205259935  0.7725672482612507  1.0000
  H   H85       1.0  0.29378099045810313  0.8242514335344693  0.8209856840501002  1.0000
  H   H86       1.0  0.2527526837795965  0.8558046473602974  0.7843303981082969  1.0000
  H   H87       1.0  0.2793810782771855  0.7591866541032027  0.7328084305448141  1.0000
  H   H88       1.0  0.3197325097320555  0.7277110485043007  0.7693734779913042  1.0000
  C   C133      1.0  0.24027077544858297  0.23025483256927753  0.9098436689185574  1.0000
  C   C134      1.0  0.20504795304908172  0.25919601717128166  0.9221822284971907  1.0000
  C   C135      1.0  0.18520578024300896  0.2853636683819221  0.9055015368242517  1.0000
  C   C136      1.0  0.20040871341128536  0.2826487895680586  0.8763798354821116  1.0000
  C   C137      1.0  0.23563479432735304  0.25372104183580974  0.864074873905459  1.0000
  C   C138      1.0  0.25569050207531563  0.22763105681987758  0.880762258560694  1.0000
  H   H89       1.0  0.1929623718329774  0.2612697186217136  0.9446894744572035  1.0000
  H   H90       1.0  0.15827610267734643  0.30752184203149174  0.9152544449694706  1.0000
  H   H91       1.0  0.24768363992831158  0.2515041866374493  0.8415542861130866  1.0000
  H   H92       1.0  0.2831153140632811  0.20552302532060612  0.8710960681944074  1.0000
  C   C139      1.0  0.4277412964784772  0.12449256550125808  0.7868230002904907  1.0000
  C   C140      1.0  0.37670070100397784  0.1323344990262696  0.7848954424372455  1.0000
  C   C141      1.0  0.3600988879368717  0.12435063214482556  0.7597105968572632  1.0000
  C   C142      1.0  0.3944258406725555  0.1085744672957426  0.7363778187618557  1.0000
  C   C143      1.0  0.44539240943207525  0.100507896541835  0.738418371754968  1.0000
  C   C144      1.0  0.4620358157732675  0.10853216681459373  0.7635681451554511  1.0000
  H   H93       1.0  0.35011687942057834  0.14496199383529132  0.802695256182871  1.0000
  H   H94       1.0  0.32055298250986547  0.13053951892422047  0.7582474546682363  1.0000
  H   H95       1.0  0.47190422434317597  0.08773376497299637  0.72074474327638  1.0000
  H   H96       1.0  0.5015114547212478  0.10206161126875826  0.7650968075217053  1.0000
  C   C145      1.0  0.34504216268843546  0.9866887813373091  0.8779127487938465  1.0000
  C   C146      1.0  0.33000586297911194  0.9557637256571955  0.8679547487753273  1.0000
  C   C147      1.0  0.3633457399298765  0.9236583832605868  0.8645134053485047  1.0000
  C   C148      1.0  0.41196412991041303  0.922544821797197  0.8707444057356065  1.0000
  C   C149      1.0  0.4269219174933818  0.9534120902605666  0.8806821572190002  1.0000
  C   C150      1.0  0.39322991914261823  0.9852712542989746  0.8847038552205909  1.0000
  H   H97       1.0  0.29260932422112246  0.9566522649209399  0.862811717437622  1.0000
  H   H98       1.0  0.351751604819614  0.8999282642675083  0.856582699992026  1.0000
  H   H99       1.0  0.4642869943454742  0.9525779168694664  0.8858669803343215  1.0000
  H   H100      1.0  0.40446316580739977  0.00848984655437346  0.8935543616006182  1.0000
  C   C151      1.0  0.47633488252125145  0.598019761168174  0.16060673352783025  1.0000
  C   C152      1.0  0.5222280221404356  0.6096454591919118  0.16219497969040284  1.0000
  C   C153      1.0  0.5241435502111065  0.6460828100389592  0.1653700811675885  1.0000
  C   C154      1.0  0.4803569840870106  0.6708529881034658  0.16657713001770513  1.0000
  C   C155      1.0  0.4344735408826478  0.6591018695663129  0.16548284716930736  1.0000
  C   C156      1.0  0.432447514767338  0.6227625387264577  0.16260408450420138  1.0000
  H   H101      1.0  0.5562281752583097  0.5905697335044551  0.16075755853532817  1.0000
  H   H102      1.0  0.5597835954566392  0.6550394661194817  0.1663126810515126  1.0000
  H   H103      1.0  0.4003365408854164  0.6778563722300269  0.16732879155976027  1.0000
  H   H104      1.0  0.3968238015552905  0.6137455935591994  0.16171053984093833  1.0000
  C   C157      1.0  0.258792634886759  0.7901886614631345  0.23801439975788846  1.0000
  C   C158      1.0  0.22834326972493768  0.8076931008373914  0.2620494496314642  1.0000
  C   C159      1.0  0.24183286804318704  0.8023837836287955  0.2887041051752717  1.0000
  C   C160      1.0  0.28510115662240537  0.77887543571627  0.2914170772625179  1.0000
  C   C161      1.0  0.3151594745678699  0.7613776418918728  0.2673572318481912  1.0000
  C   C162      1.0  0.30238527760594214  0.7671846435531061  0.24072897304966903  1.0000
  H   H105      1.0  0.19471135058189645  0.8257053795239192  0.2600008448496936  1.0000
  H   H106      1.0  0.218941522448873  0.8165715806569923  0.3070434344888957  1.0000
  H   H107      1.0  0.34820719882973367  0.7430511921385998  0.269378257563927  1.0000
  H   H108      1.0  0.3257560509321466  0.7533125453033883  0.2223128360703299  1.0000
  C   C163      1.0  0.3469187470014478  0.7675029241289776  0.038303534082541286  1.0000
  C   C164      1.0  0.3124862065096214  0.7989612729729657  0.04229055352966313  1.0000
  C   C165      1.0  0.29629223975095964  0.8155553046572328  0.01897199489777122  1.0000
  C   C166      1.0  0.3153616657769809  0.8012504217152607  0.9915885747953477  1.0000
  C   C167      1.0  0.35096269984714656  0.7704452204326971  0.9876380604550541  1.0000
  C   C168      1.0  0.36611676366253465  0.7533956425869167  0.010918653830195624  1.0000
  H   H109      1.0  0.2971611411191928  0.8098501040112457  0.06333484938331019  1.0000
  H   H110      1.0  0.26861290327046927  0.8392914977561267  0.022208273753388186  1.0000
  H   H111      1.0  0.36591896655481226  0.7592199804417451  0.9666530326818815  1.0000
  H   H112      1.0  0.3926513080119966  0.7290691790109194  0.007650927161017007  1.0000
  C   C169      1.0  0.19443612213911485  0.21948100606042276  0.1153040412474242  1.0000
  C   C170      1.0  0.18093218495490726  0.25457684497247135  0.10853164894354436  1.0000
  C   C171      1.0  0.13809385070011246  0.2756347680475952  0.12373540964930387  1.0000
  C   C172      1.0  0.10825448020330897  0.26150596329386383  0.1455545731467194  1.0000
  C   C173      1.0  0.12107689695287802  0.22608892331296865  0.15191994661240082  1.0000
  C   C174      1.0  0.16430873474390534  0.2050958668252309  0.1368538544787146  1.0000
  H   H113      1.0  0.20410642190166714  0.26579852579084895  0.09184326316237434  1.0000
  H   H114      1.0  0.1285296799500143  0.3029583866974335  0.11877703214419749  1.0000
  H   H115      1.0  0.09780000228202045  0.21505351908661702  0.16868008267706297  1.0000
  H   H116      1.0  0.17409793343448146  0.17777768205871403  0.141761097487787  1.0000
  C   C175      1.0  0.36875116280446474  0.12018384862178139  0.23499647165209703  1.0000
  C   C176      1.0  0.3561830759709413  0.1311165459643115  0.2634985832836974  1.0000
  C   C177      1.0  0.375944811374856  0.1105662083184911  0.2838957151950962  1.0000
  C   C178      1.0  0.4097272469009623  0.07929299584706796  0.27603195532445113  1.0000
  C   C179      1.0  0.42221256163282644  0.06824494624169955  0.24744634006959884  1.0000
  C   C180      1.0  0.4014128066303334  0.08841498467318856  0.22699237300125963  1.0000
  H   H117      1.0  0.3307834696261456  0.15554355928979016  0.2698972145388092  1.0000
  H   H118      1.0  0.36549790420041023  0.11947109918448884  0.30562885694801833  1.0000
  H   H119      1.0  0.4484812130180418  0.04419995458645576  0.24106636124553119  1.0000
  H   H120      1.0  0.4116794735370807  0.07986054943691387  0.20503237152227527  1.0000
  C   C181      1.0  0.46313672785062576  0.09478855332504516  0.039550042148387074  1.0000
  C   C182      1.0  0.41970258979281755  0.09410304177040721  0.027403295143747834  1.0000
  C   C183      1.0  0.4229933770995509  0.09316101566331372  0.9979219325103071  1.0000
  C   C184      1.0  0.46953067925638253  0.09342446061060738  0.9807171381446128  1.0000
  C   C185      1.0  0.5125933595543288  0.09370659628814232  0.993008503740403  1.0000
  C   C186      1.0  0.5094404883037448  0.09432260847708861  0.022187237896030405  1.0000
  H   H121      1.0  0.3839412717543057  0.09363839014099129  0.04054333766971553  1.0000
  H   H122      1.0  0.3900800470845944  0.09130251271803597  0.9884391236037158  1.0000
  H   H123      1.0  0.5487418879203195  0.09352822668454557  0.9798437269237297  1.0000
  H   H124      1.0  0.5432021505842118  0.09455903652096802  0.031316755286587034  1.0000
  C   C187      1.0  0.30598097400993995  0.9826462398356444  0.1386153329202805  1.0000
  C   C188      1.0  0.29751148230383073  0.9497457923297143  0.12834057575054464  1.0000
  C   C189      1.0  0.33063293737128596  0.9187879298295425  0.13127457215600458  1.0000
  C   C190      1.0  0.37221553546144065  0.9207042293979142  0.1445724776524182  1.0000
  C   C191      1.0  0.37993697838808177  0.9534536224102655  0.15545993244575704  1.0000
  C   C192      1.0  0.34661892492289464  0.9842879698704223  0.15272096142803784  1.0000
  H   H125      1.0  0.2659404071109102  0.948313503846426  0.11750931477252632  1.0000
  H   H126      1.0  0.3247652973803974  0.8937162433105753  0.12246402993176474  1.0000
  H   H127      1.0  0.41176774964487944  0.9550042371937286  0.16605766147451892  1.0000
  H   H128      1.0  0.3521089601012661  0.00921185544650611  0.16184867533156497  1.0000
  N   N1        1.0  0.23733742595366544  0.23435731612876035  0.20154089652607107  1.0000
  C   C193      1.0  0.26302749282845955  0.24188886149047126  0.22528884290034706  1.0000
  C   C194      1.0  0.21157636361334137  0.2032155324384028  0.20732606525749178  1.0000
  C   C195      1.0  0.27483891471322475  0.2267660324610443  0.17557291988532306  1.0000
  C   C196      1.0  0.20007027426490612  0.2654706653444495  0.19799323132075716  1.0000
  H   H129      1.0  0.2911066991458102  0.2187322291001985  0.2286239630261638  1.0000
  H   H130      1.0  0.23576353443121997  0.24788430868106368  0.24519677338279403  1.0000
  H   H131      1.0  0.2834817792496362  0.2649156182160148  0.22151104958190546  1.0000
  H   H132      1.0  0.19186495520016347  0.19664216010195848  0.18985945433419407  1.0000
  H   H133      1.0  0.2387779528887811  0.1792668244726731  0.21004455124414573  1.0000
  H   H134      1.0  0.18297109389270744  0.2079166654948686  0.2267659287610538  1.0000
  H   H135      1.0  0.29423644729403214  0.24991268932602967  0.17009616675553613  1.0000
  H   H136      1.0  0.2570360688937548  0.21990993474044204  0.15734885122202158  1.0000
  H   H137      1.0  0.3041881814362086  0.20398811862426905  0.17778686945992322  1.0000
  H   H138      1.0  0.16973237098734179  0.27111385838320484  0.2166255601105384  1.0000
  H   H139      1.0  0.18160105181646036  0.26122723679606275  0.17953094648112067  1.0000
  H   H140      1.0  0.21792267403023413  0.2897282256829329  0.19452593382056815  1.0000
  N   N2        1.0  0.7605871197530207  0.4626328001979863  0.7156792137977147  1.0000
  C   C197      1.0  0.7590233728660222  0.4289165768794995  0.7002736448686223  1.0000
  C   C198      1.0  0.7567574361144792  0.45677516407812857  0.7459769824992533  1.0000
  C   C199      1.0  0.7180467679238075  0.489298851615662  0.7109275743521722  1.0000
  C   C200      1.0  0.8084756496201497  0.4754980403517336  0.7053942877307762  1.0000
  H   H141      1.0  0.7901437987732588  0.40785078319632684  0.7034793218821043  1.0000
  H   H142      1.0  0.7625156571393462  0.4323711968378658  0.6773854460831491  1.0000
  H   H143      1.0  0.7229656104408151  0.41873838768290317  0.7069618864142687  1.0000
  H   H144      1.0  0.7563769554622911  0.4817905026277703  0.7584635507752211  1.0000
  H   H145      1.0  0.721467761993009  0.44639228679489296  0.7541082509082477  1.0000
  H   H146      1.0  0.7884949495821442  0.43700520433679907  0.7503066292200709  1.0000
  H   H147      1.0  0.7183257731119816  0.5153006327595206  0.7218590942752495  1.0000
  H   H148      1.0  0.6812713664587664  0.4807530216400299  0.718777913105018  1.0000
  H   H149      1.0  0.7189823384526466  0.4935410317374844  0.6881662254270235  1.0000
  H   H150      1.0  0.8114223869281975  0.4815004717137443  0.6828428008612739  1.0000
  H   H151      1.0  0.8415404481100446  0.4553629943426261  0.7073045912424407  1.0000
  H   H152      1.0  0.8118616872761424  0.5002785805198358  0.717153455787264  1.0000
  N   N3        1.0  0.9981956771368298  0.3941699151555195  0.5696462792383917  1.0000
  C   C201      1.0  0.048509592838331866  0.40322181234609744  0.5589580173714465  1.0000
  C   C202      1.0  0.9982104233767961  0.3792272569863709  0.5975022270473997  1.0000
  C   C203      1.0  0.9856694660973921  0.36779558143462837  0.549919764519891  1.0000
  C   C204      1.0  0.9601369693641563  0.42641792593573213  0.5721752479043035  1.0000
  H   H153      1.0  0.05016812033511289  0.41366267185235034  0.5376110689027116  1.0000
  H   H154      1.0  0.07841934503897174  0.37974160537236135  0.5575211811085082  1.0000
  H   H155      1.0  0.058664136205377186  0.42392908459373785  0.5728130716343336  1.0000
  H   H156      1.0  0.00640137445284701  0.3987544031795849  0.6130561169004144  1.0000
  H   H157      1.0  0.9609491997491356  0.3716176775438881  0.6059263772803503  1.0000
  H   H158      1.0  0.026999131921085318  0.3551565381358892  0.5965986023666238  1.0000
  H   H159      1.0  0.013566095101144373  0.3430544721976756  0.5474926721827273  1.0000
  H   H160      1.0  0.985200833865191  0.37832895265926647  0.5286839796166589  1.0000
  H   H161      1.0  0.9478360833550465  0.3604414924888441  0.5573382165050892  1.0000
  H   H162      1.0  0.9219008606149096  0.4205600246536512  0.580554647357695  1.0000
  H   H163      1.0  0.9582337671578679  0.4379674045794415  0.5514841627980706  1.0000
  H   H164      1.0  0.9686276981281298  0.4472626327649889  0.5865800819064738  1.0000
  N   N4        1.0  0.3738784366208538  0.017403446091029975  0.7934666459895786  1.0000
  C   C205      1.0  0.3843769376308966  0.025838491612770593  0.7636527518165106  1.0000
  C   C206      1.0  0.37728748131528356  0.04857630086080572  0.811517960246226  1.0000
  C   C207      1.0  0.4111381739203964  0.9872648728591169  0.7988980594648167  1.0000
  C   C208      1.0  0.32264990005602895  0.008044633136751139  0.7998890348018906  1.0000
  H   H165      1.0  0.3827856805289697  0.00282641733932455  0.7493257126185977  1.0000
  H   H166      1.0  0.42233998295008235  0.03374489071252392  0.7581561955731986  1.0000
  H   H167      1.0  0.3565076513327181  0.04818812531191388  0.7587525088043913  1.0000
  H   H168      1.0  0.34891434320267833  0.07162641502372226  0.8085595262937675  1.0000
  H   H169      1.0  0.37043853726495657  0.042884317451672  0.8340926380058367  1.0000
  H   H170      1.0  0.41515488036935516  0.056895508113546836  0.8070420735174356  1.0000
  H   H171      1.0  0.40966400183193485  0.9631620066752259  0.7857357398264226  1.0000
  H   H172      1.0  0.4042971305911273  0.9803198006493793  0.8212521731853047  1.0000
  H   H173      1.0  0.4501333273987115  0.993660772762401  0.7943873680356054  1.0000
  H   H174      1.0  0.31318569094845067  0.002063311162987818  0.8223274117045332  1.0000
  H   H175      1.0  0.31868178762942756  0.9844062724361786  0.7868791029479748  1.0000
  H   H176      1.0  0.29373031915703673  0.03028571007841166  0.795940932399454  1.0000
  N   N5        1.0  0.43566331349087156  0.17008541327920867  0.47360198550744687  1.0000
  C   C209      1.0  0.4538730660477526  0.1609188775613394  0.5000787310601604  1.0000
  C   C210      1.0  0.46569217057695556  0.14637228539644082  0.45030503613814743  1.0000
  C   C211      1.0  0.4409017776914264  0.20727064224994007  0.46783551958957914  1.0000
  C   C212      1.0  0.3821149772744442  0.16569439882040002  0.47615200320336126  1.0000
  H   H177      1.0  0.4942059591797612  0.16375250422291115  0.49895746603914676  1.0000
  H   H178      1.0  0.45036171272536246  0.13299167573637471  0.5048647767763437  1.0000
  H   H179      1.0  0.43178471777660393  0.17795347200808745  0.5182516375562471  1.0000
  H   H180      1.0  0.4528560607249757  0.1523351695977677  0.4300316418862454  1.0000
  H   H181      1.0  0.506344450673731  0.14882251487634238  0.4477190181995538  1.0000
  H   H182      1.0  0.462413390298176  0.11814991806101709  0.4538601730464484  1.0000
  H   H183      1.0  0.42619470407961385  0.21512196714101348  0.4483344282960342  1.0000
  H   H184      1.0  0.48099000519852275  0.211375219317766  0.46489792551170844  1.0000
  H   H185      1.0  0.4195409211210948  0.22589285012709925  0.48522966149477514  1.0000
  H   H186      1.0  0.3582927018306691  0.18318844098347956  0.4935201135565888  1.0000
  H   H187      1.0  0.37676238227777553  0.13791029745006206  0.4805612280603029  1.0000
  H   H188      1.0  0.3671384995777139  0.1722669449597629  0.45645716615345455  1.0000
  N   N6        1.0  0.3101324929847499  0.18952599195947425  0.012784767208400938  1.0000
  C   C213      1.0  0.32635675776879663  0.21937043227205186  0.9967820782241553  1.0000
  C   C214      1.0  0.340919096604642  0.1822173702028546  0.03514246124058307  1.0000
  C   C215      1.0  0.31676985612238207  0.15769545962036047  0.9936476287526496  1.0000
  C   C216      1.0  0.2564608213258236  0.19875272627222496  0.02542263796037525  1.0000
  H   H189      1.0  0.32148506619329725  0.24393436777195213  0.01055175634992489  1.0000
  H   H190      1.0  0.3041621539757903  0.22517937520979442  0.9795344761574517  1.0000
  H   H191      1.0  0.36672913832150666  0.2132638423362475  0.9869546959946719  1.0000
  H   H192      1.0  0.3290590304463044  0.16018144178844565  0.04790014002253251  1.0000
  H   H193      1.0  0.3815840636027303  0.17456561785787666  0.02630977706370996  1.0000
  H   H194      1.0  0.3369681502540222  0.205728768550609  0.04997921297140184  1.0000
  H   H195      1.0  0.30790726971182614  0.13406644253365985  0.00524227875018024  1.0000
  H   H196      1.0  0.35606374199002805  0.15156199796792608  0.9820985608410643  1.0000
  H   H197      1.0  0.29161192434643074  0.16145447074089886  0.9776328302555439  1.0000
  H   H198      1.0  0.24289912888800386  0.1767316863048714  0.03759033720251437  1.0000
  H   H199      1.0  0.23223268684071716  0.204563690958223  0.009101149742201553  1.0000
  H   H200      1.0  0.25002520540630774  0.22247527655294344  0.040274334095307784  1.0000
  N   N7        1.0  0.5899583590848164  0.8107610459684647  0.8822947121577751  1.0000
  C   C217      1.0  0.565103660182221  0.7973399252733032  0.8600052220499962  1.0000
  C   C218      1.0  0.551906627066989  0.8229346646570053  0.9073739391659954  1.0000
  C   C219      1.0  0.6151273308924503  0.8408024855576774  0.8721125299444903  1.0000
  C   C220      1.0  0.6273799912805174  0.7819700191157007  0.8896658268040288  1.0000
  H   H201      1.0  0.5925095021803319  0.7882581265420744  0.8406201434983676  1.0000
  H   H202      1.0  0.5359008471651938  0.8181928733019794  0.8542701434481236  1.0000
  H   H203      1.0  0.5463324027580213  0.7743220907223074  0.8668669871753345  1.0000
  H   H204      1.0  0.5223433149080153  0.8441049970741007  0.9024200952619579  1.0000
  H   H205      1.0  0.5327021584557885  0.8007940034250287  0.9158704184613173  1.0000
  H   H206      1.0  0.5691252652828834  0.8337418614873477  0.9245128051690908  1.0000
  H   H207      1.0  0.6342335398009183  0.8517227908040136  0.8884018788425218  1.0000
  H   H208      1.0  0.5874386701593184  0.8628285710633153  0.8664409842288017  1.0000
  H   H209      1.0  0.6439809294731489  0.8326689989508554  0.8531072634427506  1.0000
  H   H210      1.0  0.6468099942555919  0.7910084353091231  0.9065331935391203  1.0000
  H   H211      1.0  0.656528450822201  0.7719240947830258  0.8711955974278144  1.0000
  H   H212      1.0  0.6091062749856554  0.7589709230601772  0.8973874770336705  1.0000
  N   N8        1.0  0.17824828901151582  0.5566335523161025  0.7163395781487002  1.0000
  C   C221      1.0  0.12419946049127255  0.568100049972303  0.7157567581949453  1.0000
  C   C222      1.0  0.18865603777221  0.5175111906843297  0.7160827236310211  1.0000
  C   C223      1.0  0.1915873323146726  0.5719926666728359  0.7420690922111428  1.0000
  C   C224      1.0  0.2085008846689286  0.569000181805865  0.6914264062734043  1.0000
  H   H213      1.0  0.11515540103149206  0.597461590388465  0.7151487368714372  1.0000
  H   H214      1.0  0.1001530625496615  0.5598084637195494  0.7344748102268803  1.0000
  H   H215      1.0  0.1126185558617033  0.5565739663744009  0.6968359323998226  1.0000
  H   H216      1.0  0.22929231549148182  0.5077808858181226  0.7157741805256291  1.0000
  H   H217      1.0  0.1673747080175226  0.5072338487099596  0.7349141350837438  1.0000
  H   H218      1.0  0.17769858502014502  0.5049930413738706  0.6973125328523916  1.0000
  H   H219      1.0  0.2321762091575558  0.5639601328907077  0.7431663672639766  1.0000
  H   H220      1.0  0.16941237525549857  0.5631431295805112  0.7612854760152286  1.0000
  H   H221      1.0  0.1840794347424863  0.6015147558504024  0.7428844021118909  1.0000
  H   H222      1.0  0.2495483048275193  0.5609328548304696  0.6910857298758135  1.0000
  H   H223      1.0  0.20144274312031057  0.5984470376620054  0.6908991719414544  1.0000
  H   H224      1.0  0.19923612142222574  0.5578961134967194  0.6716656371677147  1.0000
  N   N9        1.0  0.7695646762889977  0.3937572925525155  0.1816726080686229  1.0000
  C   C225      1.0  0.7466224980408088  0.43136993609135227  0.18730552690422422  1.0000
  C   C226      1.0  0.7497595305204852  0.3727116303138774  0.20487543913511894  1.0000
  C   C227      1.0  0.8248236480842681  0.39060994461062143  0.17938912464389256  1.0000
  C   C228      1.0  0.756954674115101  0.3802832059398516  0.15509239186929286  1.0000
  H   H225      1.0  0.7597371573465196  0.4478748945733751  0.16986815937136807  1.0000
  H   H226      1.0  0.756013736359413  0.44280555826661283  0.20687395275768394  1.0000
  H   H227      1.0  0.7048413155661714  0.43461354493789034  0.18964371775010153  1.0000
  H   H228      1.0  0.7668586300609554  0.3443034139804487  0.20151789978400966  1.0000
  H   H229      1.0  0.757212592611621  0.38279047161068797  0.2253998836112309  1.0000
  H   H230      1.0  0.7083112180843325  0.3738899182347394  0.20667572928505348  1.0000
  H   H231      1.0  0.8435440029962371  0.36268463230100123  0.17456784907855624  1.0000
  H   H232      1.0  0.8358706713095666  0.4004047174639636  0.19904818552993767  1.0000
  H   H233      1.0  0.8408680403242921  0.4062990717259442  0.16219981370626466  1.0000
  H   H234      1.0  0.7743573475615553  0.35218499138738774  0.14982633613583227  1.0000
  H   H235      1.0  0.7706749032184131  0.39595409327744646  0.13719446237847202  1.0000
  H   H236      1.0  0.7154703133774752  0.3817824571422772  0.15628696035412895  1.0000
  N   N10       1.0  0.6973563029001658  0.4707731022901605  0.4702962687134548  1.0000
  C   C229      1.0  0.6868690533893115  0.44186574308588045  0.4521425130144204  1.0000
  C   C230      1.0  0.7494030364751669  0.4775071286418097  0.4611316034717485  1.0000
  C   C231      1.0  0.6913754194336524  0.4605183191977936  0.4997557577499062  1.0000
  C   C232      1.0  0.6616218302231424  0.5032308322692445  0.4680407622577153  1.0000
  H   H237      1.0  0.7126313198409658  0.41666828560975694  0.453404060692728  1.0000
  H   H238      1.0  0.6917634193505929  0.44856741843898496  0.4297473344299508  1.0000
  H   H239      1.0  0.6475198197574075  0.43657570818766556  0.4580242423656865  1.0000
  H   H240      1.0  0.7546813558715926  0.4862901271008354  0.4392458764142876  1.0000
  H   H241      1.0  0.7592542944257156  0.49854773486907394  0.4747481723772295  1.0000
  H   H242      1.0  0.7772671426193084  0.4531663296037504  0.46160463078420944  1.0000
  H   H243      1.0  0.717905178862871  0.4361724767128082  0.5022969717570583  1.0000
  H   H244      1.0  0.6525639036211771  0.45497869697960003  0.5072738773919994  1.0000
  H   H245      1.0  0.6986502863033703  0.4817606406269415  0.5141448357632262  1.0000
  H   H246      1.0  0.6219612939125153  0.498961143629002  0.4748105411710017  1.0000
  H   H247      1.0  0.6649756861892787  0.5115416047270338  0.4460007829813209  1.0000
  H   H248      1.0  0.6684830969830228  0.5257225431133714  0.48136022120166755  1.0000
  N   N11       1.0  0.21776125458335327  0.9161257513519977  0.47971127232997895  1.0000
  C   C233      1.0  0.16535686995575388  0.9090728114295811  0.481940625587955  1.0000
  C   C234      1.0  0.23667012002248297  0.9078245724543732  0.5061528271534615  1.0000
  C   C235      1.0  0.21930970283896928  0.9539212015071771  0.47442348609463464  1.0000
  C   C236      1.0  0.24965789853782736  0.8936411783459242  0.4562711837039843  1.0000
  H   H249      1.0  0.15017980435534634  0.914883919943554  0.4621680793765088  1.0000
  H   H250      1.0  0.13997361984968956  0.9256367914885274  0.49930519349641045  1.0000
  H   H251      1.0  0.16279007192855507  0.8808038272504845  0.48591932816661365  1.0000
  H   H252      1.0  0.21268583955711107  0.9235323030509127  0.5244724425808626  1.0000
  H   H253      1.0  0.23716893811357517  0.8793600292817856  0.5104706612564327  1.0000
  H   H254      1.0  0.2758229065282844  0.9134166147191473  0.5052828260803576  1.0000
  H   H255      1.0  0.2584963792424487  0.9600032034378149  0.47121417134375604  1.0000
  H   H256      1.0  0.19695610067750619  0.9716395821839496  0.49210988656288784  1.0000
  H   H257      1.0  0.2034138141590299  0.9614513958209104  0.4552788846310154  1.0000
  H   H258      1.0  0.2358775274019718  0.8988134750325955  0.4360997746881549  1.0000
  H   H259      1.0  0.24974759136095998  0.8649320909655737  0.4597553740365787  1.0000
  H   H260      1.0  0.28938536462962894  0.8984932316211417  0.4535025894681082  1.0000
  N   N12       1.0  0.5149554222288899  0.19409935727361263  0.7238417009706043  1.0000
  C   C237      1.0  0.5309081357464431  0.22599985091972852  0.7107438881336446  1.0000
  C   C238      1.0  0.5406153014572312  0.18648476431806646  0.7482291751239922  1.0000
  C   C239      1.0  0.5284110094615037  0.16352327696056382  0.7031218498094218  1.0000
  C   C240      1.0  0.45985959238748786  0.20043459455392995  0.7332796308172592  1.0000
  H   H261      1.0  0.5228172352675646  0.24942338435536515  0.7259303590662358  1.0000
  H   H262      1.0  0.5110744367262843  0.2331905962082665  0.6928311013378217  1.0000
  H   H263      1.0  0.5720450233085709  0.22186517609164574  0.7024425503753043  1.0000
  H   H264      1.0  0.5822292545807911  0.18099858344938383  0.7417731730190011  1.0000
  H   H265      1.0  0.5318032637103326  0.20916056200378252  0.7641498342920534  1.0000
  H   H266      1.0  0.528661959712848  0.16299711561172023  0.7590061989396588  1.0000
  H   H267      1.0  0.5075202616939141  0.16741432181944657  0.6851875767601472  1.0000
  H   H268      1.0  0.5194945945394633  0.13861305061960003  0.712617221664424  1.0000
  H   H269      1.0  0.5693382654439544  0.1590778238031498  0.6943060740408732  1.0000
  H   H270      1.0  0.446459163221486  0.17699361969569535  0.7433411969843327  1.0000
  H   H271      1.0  0.43922505584075383  0.2059880617482135  0.7153857889942733  1.0000
  H   H272      1.0  0.44834984507801723  0.22331988631217542  0.7489327910702835  1.0000
  N   N13       1.0  0.14122141256632312  0.7308167849460668  0.31292432334648196  1.0000
  C   C241      1.0  0.10500698157838635  0.7059851044592028  0.3205537504349648  1.0000
  C   C242      1.0  0.17823828843776346  0.7279701673965878  0.33232015644616436  1.0000
  C   C243      1.0  0.1138317031893064  0.7674558102384416  0.3150738112025232  1.0000
  C   C244      1.0  0.16780356605750354  0.7219342453019103  0.2838737236969126  1.0000
  H   H273      1.0  0.07780046642155622  0.7062520744018042  0.30563849270447174  1.0000
  H   H274      1.0  0.08261966366463827  0.713179328507004  0.3418127552548374  1.0000
  H   H275      1.0  0.12438884677132638  0.6782506280744368  0.3208511620752305  1.0000
  H   H276      1.0  0.20664908231811432  0.7458559859724274  0.32688237808968895  1.0000
  H   H277      1.0  0.15964659871509193  0.7355178891859587  0.3542757773413249  1.0000
  H   H278      1.0  0.1988334627081247  0.7005251391349797  0.3319776720069891  1.0000
  H   H279      1.0  0.0851042941157774  0.7705869892117708  0.300987575063766  1.0000
  H   H280      1.0  0.13989957313980048  0.7869181961021723  0.3093136138853967  1.0000
  H   H281      1.0  0.0939555972860878  0.7750821851294133  0.33692951974123847  1.0000
  H   H282      1.0  0.18836085294942947  0.694314794566543  0.2815358594076272  1.0000
  H   H283      1.0  0.19599673758660757  0.7398459854275613  0.2776412870980381  1.0000
  H   H284      1.0  0.14122010812151786  0.7244669413723852  0.26852787200142597  1.0000
  N   N14       1.0  0.5106250907176239  0.1475059622759176  0.2974075056896241  1.0000
  C   C245      1.0  0.5096787998202367  0.13201577161309208  0.2691044431235236  1.0000
  C   C246      1.0  0.5444865287667938  0.12306332524854646  0.3116630809471978  1.0000
  C   C247      1.0  0.45929270228325125  0.15282371301871245  0.3139368764000929  1.0000
  C   C248      1.0  0.5290135862662855  0.1820060722094594  0.2949446305107447  1.0000
  H   H285      1.0  0.4817396558370029  0.14822209851818902  0.2583437221458691  1.0000
  H   H286      1.0  0.49922026707354894  0.10493882307995439  0.27019410377439357  1.0000
  H   H287      1.0  0.5471433115596748  0.12948821639246044  0.25548553126561857  1.0000
  H   H288      1.0  0.5462451950184517  0.13378116209391666  0.3330832479022836  1.0000
  H   H289      1.0  0.5313419938404692  0.09677955847133712  0.3139204083951727  1.0000
  H   H290      1.0  0.5835015251374388  0.11821156281023981  0.29970045404395973  1.0000
  H   H291      1.0  0.4578447198862124  0.16603375605537374  0.3349173317240043  1.0000
  H   H292      1.0  0.4455663537234037  0.12711860811607512  0.31763025317359106  1.0000
  H   H293      1.0  0.43185100243055924  0.16929915414172947  0.3030749544550375  1.0000
  H   H294      1.0  0.5298445375546081  0.19447572111616385  0.3159769982034687  1.0000
  H   H295      1.0  0.5043943673060217  0.20086026352854902  0.2840788457694586  1.0000
  H   H296      1.0  0.5679232360465238  0.17898973229290882  0.28288330473797807  1.0000
  N   N15       1.0  0.1205904003898569  0.5042857024141005  0.12829380248113606  1.0000
  C   C249      1.0  0.07194592954642094  0.5202492679745134  0.14527869879337033  1.0000
  C   C250      1.0  0.13702986439253495  0.46918664231561663  0.1386011692874802  1.0000
  C   C251      1.0  0.1588099462889827  0.5274335857969639  0.1308250851478265  1.0000
  C   C252      1.0  0.11467255109721433  0.5001317029413588  0.09852635504403619  1.0000
  H   H297      1.0  0.0747610217143922  0.5230364591234553  0.16797087834822688  1.0000
  H   H298      1.0  0.042220104354329456  0.5034439649362231  0.1438183940556887  1.0000
  H   H299      1.0  0.058324875490637675  0.5468895047236597  0.13831423053282982  1.0000
  H   H300      1.0  0.17345841080477648  0.4560607154318992  0.1262220820636928  1.0000
  H   H301      1.0  0.1410454715636585  0.4709962237866642  0.16115175252584235  1.0000
  H   H302      1.0  0.10919606748424729  0.4511865006665678  0.1367041906432639  1.0000
  H   H303      1.0  0.19597335433258306  0.5159891764950275  0.11830594205580766  1.0000
  H   H304      1.0  0.16419728021709962  0.530976444016309  0.1530471361964204  1.0000
  H   H305      1.0  0.14768635053741128  0.5541856858822719  0.12321409582973908  1.0000
  H   H306      1.0  0.15051568705426008  0.48762800068558565  0.08518018117559473  1.0000
  H   H307      1.0  0.10234343401348034  0.52601586192908  0.08990137071886373  1.0000
  H   H308      1.0  0.08628468333085419  0.4826089072981849  0.09582584706898058  1.0000
  N   N16       1.0  0.4188322169975611  0.8173789141519948  0.7169883731660821  1.0000
  C   C253      1.0  0.3747420444000728  0.8377272174457697  0.7074523784768969  1.0000
  C   C254      1.0  0.4646400557132416  0.8319738784511688  0.7052953538227497  1.0000
  C   C255      1.0  0.42412684848867316  0.7797684003467763  0.7071661123899452  1.0000
  C   C256      1.0  0.4116329665962857  0.8199573475496748  0.747993081689306  1.0000
  H   H309      1.0  0.3791218257354607  0.8370581752164453  0.6841853473661136  1.0000
  H   H310      1.0  0.36842376018408135  0.8660212235976432  0.7151227690591293  1.0000
  H   H311      1.0  0.33988962622064045  0.8266772620987654  0.7150677770856018  1.0000
  H   H312      1.0  0.4985684494986781  0.8178651258792203  0.7125607088544158  1.0000
  H   H313      1.0  0.4716342254043505  0.8292756867361988  0.6819264180862324  1.0000
  H   H314      1.0  0.4612728817717411  0.8606723082106343  0.7113629070980159  1.0000
  H   H315      1.0  0.4575841929918887  0.7637135111054599  0.7134927493015057  1.0000
  H   H316      1.0  0.4283957476844048  0.7768703902087531  0.6838389238479156  1.0000
  H   H317      1.0  0.39055384011211036  0.7677323711576942  0.7160710876987012  1.0000
  H   H318      1.0  0.40726055016695684  0.847928718939607  0.7562609133308128  1.0000
  H   H319      1.0  0.443848462038141  0.8045909258969799  0.7560472944858864  1.0000
  H   H320      1.0  0.37719618690487183  0.8091734020592054  0.7572555570224981  1.0000
  N   N17       1.0  0.4478246367892548  0.988583632840477  0.07601414708619303  1.0000
  C   C257      1.0  0.3990625449904952  0.010823300537048474  0.07486746313437909  1.0000
  C   C258      1.0  0.440884779708139  0.9509260127352488  0.07662529605150836  1.0000
  C   C259      1.0  0.46678443194736596  0.9989350480789383  0.10160440991500841  1.0000
  C   C260      1.0  0.48452187741771163  0.9937164473339529  0.050990981900724375  1.0000
  H   H321      1.0  0.38313687310428585  0.0034933713017023444  0.05608864556834159  1.0000
  H   H322      1.0  0.40313874490873  0.039292315405648204  0.07394402419840862  1.0000
  H   H323      1.0  0.37069698063087286  0.008276887602995548  0.09371952830574948  1.0000
  H   H324      1.0  0.47638460964579055  0.9333355288097132  0.07862724019369471  1.0000
  H   H325      1.0  0.4122139993352898  0.9465013617309579  0.09474584832137789  1.0000
  H   H326      1.0  0.42786935372525287  0.9419056382306273  0.05731397832265572  1.0000
  H   H327      1.0  0.4726216633320548  0.027198755330499227  0.1017831516625558  1.0000
  H   H328      1.0  0.5033603101800234  0.9825641177571344  0.10330877404296501  1.0000
  H   H329      1.0  0.4398550531127467  0.9958076492335861  0.12088057404861052  1.0000
  H   H330      1.0  0.521502856617857  0.9768727518966278  0.05091140768128266  1.0000
  H   H331      1.0  0.491431982544304  0.021741966339724403  0.050304157861470244  1.0000
  H   H332      1.0  0.4708861803122028  0.9872348059200591  0.031219783114183164  1.0000
  N   N18       1.0  0.27381826158438005  0.9272472930192284  0.9499272757316166  1.0000
  C   C261      1.0  0.3285123690356859  0.9143744482617346  0.9460301789653014  1.0000
  C   C262      1.0  0.25018083031551597  0.9200819194014733  0.9784942259280359  1.0000
  C   C263      1.0  0.2513557386650418  0.9087075926914814  0.9289253805284774  1.0000
  C   C264      1.0  0.26518632178402135  0.9658351252668294  0.9462585349839666  1.0000
  H   H333      1.0  0.3362855929654285  0.8852579214797143  0.9484401655947697  1.0000
  H   H334      1.0  0.34680762853329017  0.9275323797670834  0.9615886556102864  1.0000
  H   H335      1.0  0.34755805452204425  0.9195121717262187  0.9247488530491342  1.0000
  H   H336      1.0  0.20881969850076  0.929073121688529  0.9820550424439762  1.0000
  H   H337      1.0  0.25608026350125423  0.8912369889690779  0.982096828692801  1.0000
  H   H338      1.0  0.2662106325059148  0.9336510654098542  0.994876639001648  1.0000
  H   H339      1.0  0.2101835500660998  0.9178745518528844  0.9310124854386838  1.0000
  H   H340      1.0  0.2567094885987895  0.8795375426305494  0.9313177430490497  1.0000
  H   H341      1.0  0.26886776007445934  0.9131164837486523  0.9071369157123892  1.0000
  H   H342      1.0  0.22432318184170175  0.9765333762669676  0.9492999325734361  1.0000
  H   H343      1.0  0.28172116136452385  0.9722348392165263  0.9248370404028853  1.0000
  H   H344      1.0  0.28250028102887237  0.9806728082786904  0.961351255776637  1.0000
  N   N19       1.0  0.06466854409603542  0.5862585142104811  0.47429300246125855  1.0000
  C   C265      1.0  0.09719737520218517  0.5599740619367402  0.45365043720849685  1.0000
  C   C266      1.0  0.026674285146242687  0.5687398252207249  0.4916620586228502  1.0000
  C   C267      1.0  0.039096496561883985  0.6148360370048741  0.4593514634487011  1.0000
  C   C268      1.0  0.0958454637724136  0.601427140039092  0.49252947910545736  1.0000
  H   H345      1.0  0.12529803617189678  0.5724820674415182  0.4395043286482914  1.0000
  H   H346      1.0  0.07475097232377138  0.5473680843242335  0.43997032031629085  1.0000
  H   H347      1.0  0.11803605981495113  0.5384052559547591  0.4641292574580539  1.0000
  H   H348      1.0  0.9997389591575047  0.5879985833920945  0.5065207247348003  1.0000
  H   H349      1.0  0.004470915489894776  0.554957010819692  0.4784909485282588  1.0000
  H   H350      1.0  0.04484260287482211  0.5485717099176735  0.5044318325345121  1.0000
  H   H351      1.0  0.06673129013324562  0.6294946037998558  0.44698573775935607  1.0000
  H   H352      1.0  0.012615687707689333  0.6344769902139187  0.4741042351324566  1.0000
  H   H353      1.0  0.017282698910368714  0.604055198184321  0.4443131893316104  1.0000
  H   H354      1.0  0.1251049083850422  0.6146913524816092  0.4800149136030921  1.0000
  H   H355      1.0  0.11558385730269126  0.5804403181378048  0.5041460479168416  1.0000
  H   H356      1.0  0.0724702583248156  0.6213735665867607  0.5083591671453851  1.0000
  N   N20       1.0  0.4695070144126798  0.6929535022734763  0.256043734617713  1.0000
  C   C269      1.0  0.4840906737715878  0.6595706458174528  0.269434785869572  1.0000
  C   C270      1.0  0.4293622504613875  0.6883536719382578  0.23956495475513023  1.0000
  C   C271      1.0  0.5137078817012284  0.7019047291184393  0.23718875759733438  1.0000
  C   C272      1.0  0.45096564389424565  0.7219075572997846  0.2778871011701846  1.0000
  H   H357      1.0  0.5143083713555744  0.6620050315169534  0.2820889481364888  1.0000
  H   H358      1.0  0.49845260879549996  0.6372406769359472  0.253442881827776  1.0000
  H   H359      1.0  0.451521330935743  0.6519051237710716  0.2836854170188742  1.0000
  H   H360      1.0  0.41904090058532917  0.7124410042302264  0.22800394957339812  1.0000
  H   H361      1.0  0.44159348051030306  0.6658055678044164  0.22364912792031666  1.0000
  H   H362      1.0  0.39469824029344536  0.6828175745457578  0.25317839581973833  1.0000
  H   H363      1.0  0.5041366848079901  0.7271095867349258  0.22683842096904847  1.0000
  H   H364      1.0  0.528077451074458  0.6809731614671469  0.2200873968495478  1.0000
  H   H365      1.0  0.5451527509114192  0.7050850512551559  0.24871760966629614  1.0000
  H   H366      1.0  0.43929755664475495  0.7474252712111132  0.26844043335098317  1.0000
  H   H367      1.0  0.4804342242809621  0.7262814502612309  0.2905837041982182  1.0000
  H   H368      1.0  0.4177216158851555  0.7160730501585646  0.2926863790075679  1.0000
  N   N21       1.0  0.47225116401705713  0.3495851274261115  0.31929662004771553  1.0000
  C   C273      1.0  0.5251224342530808  0.3364009929540882  0.3216968704781475  1.0000
  C   C274      1.0  0.47086973560455553  0.3726907201165767  0.2953275854968515  1.0000
  C   C275      1.0  0.44698175504715265  0.370156442877154  0.34539205120953675  1.0000
  C   C276      1.0  0.4460601911116783  0.31913356295206124  0.3148362701425498  1.0000
  H   H369      1.0  0.5453941712276207  0.3585960448205434  0.32617152030626134  1.0000
  H   H370      1.0  0.5461230332329989  0.3220092301209036  0.3020121434128497  1.0000
  H   H371      1.0  0.5277584098278676  0.31796255046229976  0.3389957228448297  1.0000
  H   H372      1.0  0.43162124472252833  0.38202373281887797  0.29214849237823376  1.0000
  H   H373      1.0  0.48814372785092525  0.39678425401457335  0.2987945021254263  1.0000
  H   H374      1.0  0.49198161417997105  0.3588876994007045  0.27540627310273114  1.0000
  H   H375      1.0  0.40716880403817685  0.38089428103716083  0.3442230391194232  1.0000
  H   H376      1.0  0.46619847449534046  0.3932193623327285  0.3494874601923679  1.0000
  H   H377      1.0  0.4470253677109322  0.35360462743377563  0.36395868482175187  1.0000
  H   H378      1.0  0.40588169408494157  0.3280430917475169  0.313208568836101  1.0000
  H   H379      1.0  0.4468286155891973  0.30112320710317936  0.33255127426528824  1.0000
  H   H380      1.0  0.4640634879415151  0.30325318813058805  0.2952039559112188  1.0000
  N   N22       1.0  0.4617199841282235  0.5876209766284929  0.9112197172392081  1.0000
  C   C277      1.0  0.4563773019211641  0.5503461160293942  0.905048836272011  1.0000
  C   C278      1.0  0.4530934487938828  0.6086732233653013  0.886795505076299  1.0000
  C   C279      1.0  0.5130234641941012  0.5892025832014308  0.9169483325211819  1.0000
  C   C280      1.0  0.42468735931754376  0.6022762743282101  0.9360951581777746  1.0000
  H   H381      1.0  0.41749154776062597  0.5478654233628092  0.9018049628942721  1.0000
  H   H382      1.0  0.4654635942140191  0.5332845795859749  0.9224406370062911  1.0000
  H   H383      1.0  0.482315382058979  0.5391153265452039  0.8856475757121235  1.0000
  H   H384      1.0  0.4810930531951447  0.5985660041218904  0.8677727405413425  1.0000
  H   H385      1.0  0.4149417889779188  0.6078740824909594  0.8815589561969751  1.0000
  H   H386      1.0  0.4566444516770997  0.6369962895301892  0.8908247958650254  1.0000
  H   H387      1.0  0.5211331476283434  0.5736057228431343  0.9351976309237123  1.0000
  H   H388      1.0  0.518423477771798  0.616917843731587  0.9216964833604363  1.0000
  H   H389      1.0  0.541901445213958  0.5782970337511854  0.8985985571786871  1.0000
  H   H390      1.0  0.4280885983529586  0.6303412787324825  0.941368640161908  1.0000
  H   H391      1.0  0.43031064512662787  0.5867910425686627  0.9548129711491103  1.0000
  H   H392      1.0  0.385442661920368  0.6017625379857566  0.9324807839946306  1.0000
  N   N23       1.0  0.9100884544541727  0.42546344053331725  0.3103729021293842  1.0000
  C   C281      1.0  0.8589850075551949  0.41710343970219116  0.3198181277619838  1.0000
  C   C282      1.0  0.9171695789610663  0.43089366907138144  0.2799448361740908  1.0000
  C   C283      1.0  0.9477115655339817  0.3957850953867011  0.31621015705707345  1.0000
  C   C284      1.0  0.9165059674042051  0.4581097807395179  0.3256879375058459  1.0000
  H   H393      1.0  0.8294733607713529  0.43965593008220477  0.31722732650395424  1.0000
  H   H394      1.0  0.8534937194046617  0.41132846120635613  0.3424176411882021  1.0000
  H   H395      1.0  0.8519814322497543  0.3933610673428147  0.3080294490454286  1.0000
  H   H396      1.0  0.9551483058606468  0.4376937185716038  0.27235670537739576  1.0000
  H   H397      1.0  0.9135661673717244  0.4066246576550225  0.26758818710374316  1.0000
  H   H398      1.0  0.8892532088815357  0.45305275830982883  0.27486098639529416  1.0000
  H   H399      1.0  0.9867369925791875  0.40095260046271913  0.3090864530608148  1.0000
  H   H400      1.0  0.9436088062323135  0.3705150675218909  0.30539293351088415  1.0000
  H   H401      1.0  0.9441757048927899  0.39166893504108574  0.33912513110065107  1.0000
  H   H402      1.0  0.8889534597482074  0.48128830316571786  0.3218951793699454  1.0000
  H   H403      1.0  0.9549243175560597  0.46494647684706863  0.31954500597677765  1.0000
  H   H404      1.0  0.9109601950678299  0.4549510830033978  0.34865035940951977  1.0000
  N   N24       1.0  0.1927484579756253  0.7140105714611479  0.5700230970300703  1.0000
  C   C285      1.0  0.1522244413370759  0.6927333429002978  0.5785197313781327  1.0000
  C   C286      1.0  0.19165876530519343  0.7414541124861441  0.5923845882658363  1.0000
  C   C287      1.0  0.18525115849282958  0.7312658800878881  0.543731242214094  1.0000
  C   C288      1.0  0.24208019719300447  0.6907786485445677  0.5655277196252049  1.0000
  H   H405      1.0  0.15657172694079655  0.6799330749469872  0.5985901262855253  1.0000
  H   H406      1.0  0.1523464422772401  0.6712799970700057  0.562426725729505  1.0000
  H   H407      1.0  0.11452434750032696  0.709508850133742  0.5819128972366241  1.0000
  H   H408      1.0  0.22141742433329456  0.7581234842271759  0.5865397515656764  1.0000
  H   H409      1.0  0.15511347919267549  0.7596620628689285  0.5964946168594661  1.0000
  H   H410      1.0  0.19792204958047765  0.7295024150681633  0.6124620641734629  1.0000
  H   H411      1.0  0.1840968158606201  0.7115545363794511  0.5265256358089496  1.0000
  H   H412      1.0  0.21647286531518034  0.7463512499507865  0.5363713385316463  1.0000
  H   H413      1.0  0.14962702188375196  0.7504420916317266  0.5466513423763937  1.0000
  H   H414      1.0  0.2736387333302206  0.7063431174492927  0.5605228891178622  1.0000
  H   H415      1.0  0.2451518705296465  0.6705772571925082  0.5480349030908825  1.0000
  H   H416      1.0  0.24832910144170012  0.6763390053188373  0.5845968325480448  1.0000
  N   N25       1.0  0.7648251272224422  0.458010980471184  0.006734976739168896  1.0000
  C   C289      1.0  0.8183223916756235  0.4627278176011377  0.00356098179036457  1.0000
  C   C290      1.0  0.7483029193924211  0.45991450057478334  0.9790484987891839  1.0000
  C   C291      1.0  0.7338292066147833  0.48629107974272967  0.02624849045659894  1.0000
  C   C292      1.0  0.7588897698464494  0.42309001963910176  0.018098970789436786  1.0000
  H   H417      1.0  0.8427074832911542  0.4417974148162901  0.9889124020973028  1.0000
  H   H418      1.0  0.8321166684416705  0.46142043416119183  0.024069582965430047  1.0000
  H   H419      1.0  0.8241927435596034  0.48878700081404386  0.9949417832417969  1.0000
  H   H420      1.0  0.7080036585547616  0.45687714164550786  0.9806173167634245  1.0000
  H   H421      1.0  0.7526232450732235  0.4858427723039212  0.9697425487949939  1.0000
  H   H422      1.0  0.7705038914662122  0.4387344748842883  0.9638435750563783  1.0000
  H   H423      1.0  0.6932914137001289  0.48324878873182525  0.02931253290162328  1.0000
  H   H424      1.0  0.7369673232231926  0.5130307366465231  0.01827175120409974  1.0000
  H   H425      1.0  0.7453139500840454  0.48569757808263003  0.047349336855544655  1.0000
  H   H426      1.0  0.7817132318170829  0.40104497580458187  0.003972003774537658  1.0000
  H   H427      1.0  0.718963922066146  0.41866237395750694  0.02083917016352932  1.0000
  H   H428      1.0  0.7705850373189355  0.4208968535931591  0.03909787016832422  1.0000
  N   N26       1.0  0.6181304635006034  0.2870050942174456  0.5567852321607292  1.0000
  C   C293      1.0  0.671944744242733  0.28861182884743086  0.5468128412004112  1.0000
  C   C294      1.0  0.5889962531105328  0.29608171119564397  0.5339958025325992  1.0000
  C   C295      1.0  0.5993306540008468  0.31256476510550035  0.5810124572531998  1.0000
  C   C296      1.0  0.6123243006555424  0.25085110741657024  0.5655149414958531  1.0000
  H   H429      1.0  0.687077196987249  0.27060624025593905  0.5278969772491453  1.0000
  H   H430      1.0  0.6951746645409229  0.2808653163370063  0.5632574475284486  1.0000
  H   H431      1.0  0.6780553368515995  0.3159099888665322  0.5412874282680573  1.0000
  H   H432      1.0  0.5929219342842704  0.3231726050957566  0.5269594138450143  1.0000
  H   H433      1.0  0.6020071832689887  0.27735611137139826  0.515304864971471  1.0000
  H   H434      1.0  0.5481396259604779  0.2956178624330361  0.5409558742153228  1.0000
  H   H435      1.0  0.6211809322624282  0.30681396147320616  0.598240335964008  1.0000
  H   H436      1.0  0.5592027382769637  0.31162138712213805  0.5897361911108744  1.0000
  H   H437      1.0  0.6026502519396987  0.34020858525984665  0.5753992180415878  1.0000
  H   H438      1.0  0.6257974715691843  0.23071557501881634  0.5477889960426464  1.0000
  H   H439      1.0  0.5723333624528394  0.24881672540842747  0.573787390786121  1.0000
  H   H440      1.0  0.6341983007791657  0.24330870996977683  0.5826194715839368  1.0000
  N   N27       1.0  0.2642268320092885  0.36769171413420576  0.9263270933730131  1.0000
  C   C297      1.0  0.3082967797046214  0.35523539300469104  0.9397048078229023  1.0000
  C   C298      1.0  0.2692836041488331  0.3484587923370515  0.8987523535787537  1.0000
  C   C299      1.0  0.26136310200990504  0.4061285899955285  0.9223692279680968  1.0000
  C   C300      1.0  0.2179257383390023  0.3609740789702414  0.9445383958437387  1.0000
  H   H441      1.0  0.3113347816731276  0.32634154525400133  0.9431369212378233  1.0000
  H   H442      1.0  0.30568669433491924  0.3694118804013054  0.9605033413229075  1.0000
  H   H443      1.0  0.3439858185834038  0.3597041605754111  0.9264692035258199  1.0000
  H   H444      1.0  0.2731833334470106  0.31926067746000003  0.900794233112308  1.0000
  H   H445      1.0  0.23579085193105218  0.3563155797451021  0.8884791804447597  1.0000
  H   H446      1.0  0.3028818548527538  0.35383884891986883  0.8841046007491065  1.0000
  H   H447      1.0  0.2553664050431313  0.4216425254101341  0.9428437505384892  1.0000
  H   H448      1.0  0.22926175368196192  0.41620034122416905  0.9116467564049852  1.0000
  H   H449      1.0  0.29620084423202225  0.4124480765640764  0.9094225330423162  1.0000
  H   H450      1.0  0.18385783442205278  0.37085931274160694  0.9354023829860426  1.0000
  H   H451      1.0  0.2131541903496024  0.37479887028223535  0.9656397049059402  1.0000
  H   H452      1.0  0.21824079574564184  0.33220347869264866  0.9476342308583259  1.0000
  N   N28       1.0  0.47593044292254266  0.6582942153769086  0.07540123974829194  1.0000
  C   C301      1.0  0.4814323731473361  0.62479635360719  0.05825452533106423  1.0000
  C   C302      1.0  0.4256857319125906  0.6646821502507249  0.09314394352980959  1.0000
  C   C303      1.0  0.48136877330751127  0.688054891882209  0.056854129552267096  1.0000
  C   C304      1.0  0.5151024774248742  0.6556686231730932  0.0934852245873461  1.0000
  H   H453      1.0  0.5189287244675231  0.6191258878689924  0.044556014944505895  1.0000
  H   H454      1.0  0.45216359011233176  0.6257931208353669  0.04451718052419795  1.0000
  H   H455      1.0  0.4776870200716068  0.6018364262811994  0.07175302368195258  1.0000
  H   H456      1.0  0.42082133735208793  0.6893757240663281  0.10675414535889605  1.0000
  H   H457      1.0  0.39507031567815826  0.6679472408643439  0.08022542742635652  1.0000
  H   H458      1.0  0.419715645549265  0.6424611101834181  0.10704401992182477  1.0000
  H   H459      1.0  0.5190461454143759  0.6845502664135716  0.043385477548655293  1.0000
  H   H460      1.0  0.47623735735232203  0.7138084032255144  0.06925651537694089  1.0000
  H   H461      1.0  0.45244300795032294  0.690721148863291  0.0428285847276586  1.0000
  H   H462      1.0  0.5115503687629415  0.6802966910781982  0.10711299912024996  1.0000
  H   H463      1.0  0.5536038569445741  0.6512230148357484  0.08089416990283316  1.0000
  H   H464      1.0  0.5122883910112562  0.6331981388293962  0.10750012969308642  1.0000
  N   N29       1.0  0.909974288847495  0.4853781332403286  0.8343391356546151  1.0000
  C   C305      1.0  0.8548011172624767  0.4865916326598141  0.8377819508004445  1.0000
  C   C306      1.0  0.926539693939921  0.4797389966741866  0.8617081205590393  1.0000
  C   C307      1.0  0.9235094734479463  0.519265692647075  0.8239259985517057  1.0000
  C   C308      1.0  0.935159321713268  0.4558907780939027  0.8141345387838056  1.0000
  H   H465      1.0  0.8433034556679303  0.46152441058035687  0.8459157431491262  1.0000
  H   H466      1.0  0.8407165676968654  0.49083067993916235  0.8175975805498756  1.0000
  H   H467      1.0  0.8346708382318055  0.5084467658460721  0.8530653565712891  1.0000
  H   H468      1.0  0.9190655832045148  0.4536813419068078  0.8695572140116805  1.0000
  H   H469      1.0  0.9675884862879796  0.4800492590252374  0.860278680043038  1.0000
  H   H470      1.0  0.9069017422811263  0.5007466646715434  0.8778081737430065  1.0000
  H   H471      1.0  0.9049910753715259  0.5419938274184999  0.8387497757834912  1.0000
  H   H472      1.0  0.9121777077050512  0.5243306909667909  0.8031219809361588  1.0000
  H   H473      1.0  0.9648926411381497  0.5192469952632703  0.8215448349536414  1.0000
  H   H474      1.0  0.9243771797053154  0.4594949874325734  0.7930405358217141  1.0000
  H   H475      1.0  0.9254705068080462  0.42996454718455773  0.8213635567918739  1.0000
  H   H476      1.0  0.9768551955297196  0.4538850111337694  0.8115196440195745  1.0000
  N   N30       1.0  0.4686856687846904  0.9589579096474063  0.5499070647876231  1.0000
  C   C309      1.0  0.43341977481470817  0.9801417931881964  0.5728369754532504  1.0000
  C   C310      1.0  0.4508829248874622  0.9656935915022274  0.5229374956436241  1.0000
  C   C311      1.0  0.47122377579624636  0.9208631921303178  0.5552245616140468  1.0000
  C   C312      1.0  0.5192650768749093  0.9691732484600776  0.5487030058133796  1.0000
  H   H477      1.0  0.43093561160503896  0.009064336171736409  0.5696404326273847  1.0000
  H   H478      1.0  0.4456701844392727  0.9755682179795617  0.5934803620109889  1.0000
  H   H479      1.0  0.3947372244254284  0.9733900840231892  0.5744410794378055  1.0000
  H   H480      1.0  0.47717113372933845  0.9508209273059582  0.5050150592648333  1.0000
  H   H481      1.0  0.4130808194147461  0.9578814266592003  0.5230274738889342  1.0000
  H   H482      1.0  0.4476614482382261  0.9942817120429734  0.5185532605485048  1.0000
  H   H483      1.0  0.433406225586464  0.9124410047527307  0.5575187157161644  1.0000
  H   H484      1.0  0.4862975004645157  0.9147217997043595  0.5748891499826887  1.0000
  H   H485      1.0  0.4963577392097779  0.904000655339525  0.5379326627726297  1.0000
  H   H486      1.0  0.5335469211252422  0.9647487897979944  0.5688952923379686  1.0000
  H   H487      1.0  0.5187957291732538  0.9977236995109847  0.5446436219380134  1.0000
  H   H488      1.0  0.5470848488662664  0.9535994397131925  0.5317918584348027  1.0000
  N   N31       1.0  0.04179884353743965  0.2680302245301029  0.8709017664638388  1.0000
  C   C313      1.0  0.9949253645992074  0.25265796231492943  0.8780337619862255  1.0000
  C   C314      1.0  0.03660698885284456  0.29273861436830306  0.8482241436423036  1.0000
  C   C315      1.0  0.08466810508510271  0.23948365671367297  0.8614605711981109  1.0000
  C   C316      1.0  0.05106499462195155  0.2875008827024829  0.8959516727934617  1.0000
  H   H489      1.0  0.9975276762801836  0.23397217012184765  0.8951640283297779  1.0000
  H   H490      1.0  0.9865133271532733  0.2378593643803783  0.8595902461598242  1.0000
  H   H491      1.0  0.9620759165727939  0.27375221669597866  0.8853184684213457  1.0000
  H   H492      1.0  0.005419440360061941  0.31518149554354663  0.8549423479926375  1.0000
  H   H493      1.0  0.07182161908395406  0.3042685594377237  0.8419974353819576  1.0000
  H   H494      1.0  0.028654702036106493  0.27919013783721375  0.8290887371059161  1.0000
  H   H495      1.0  0.12045693367256004  0.2504772541511092  0.8556852132673302  1.0000
  H   H496      1.0  0.0789287393146032  0.22403346901402807  0.8426600219051013  1.0000
  H   H497      1.0  0.0904405726180938  0.22068597654831812  0.8782247558026737  1.0000
  H   H498      1.0  0.08571297909509948  0.299777563050533  0.8910540838651917  1.0000
  H   H499      1.0  0.056035707925222035  0.2697342028351168  0.9134471379843416  1.0000
  H   H500      1.0  0.01937086213693048  0.3091823511654549  0.9038119899203181  1.0000
  N   N32       1.0  0.29055822266355336  0.9073882494324209  0.22495232598727083  1.0000
  C   C317      1.0  0.2697135820673651  0.9428657414974386  0.21693256644708098  1.0000
  C   C318      1.0  0.3448548212489676  0.9058747587149102  0.22581225961348358  1.0000
  C   C319      1.0  0.28364616165088696  0.8802565537719339  0.2040832165423057  1.0000
  C   C320      1.0  0.26411780037820043  0.9003299091011598  0.2529239517370066  1.0000
  H   H501      1.0  0.28833472654010617  0.9486685777972784  0.19571751242733063  1.0000
  H   H502      1.0  0.27497683901162806  0.9641485448613976  0.2319544911408491  1.0000
  H   H503      1.0  0.2287172468495742  0.9449951323364381  0.21627777615605318  1.0000
  H   H504      1.0  0.36182820324157794  0.8793043202389186  0.23152658144053018  1.0000
  H   H505      1.0  0.3660076574713849  0.9109022994336845  0.20500900925380497  1.0000
  H   H506      1.0  0.35167420749274014  0.9259748978648161  0.24135583350842768  1.0000
  H   H507      1.0  0.298410696638304  0.8532680901770897  0.20979329558543036  1.0000
  H   H508      1.0  0.30381744876070493  0.8841850379399852  0.18278125355978897  1.0000
  H   H509      1.0  0.24321624348692406  0.8805062788702676  0.20259664415340597  1.0000
  H   H510      1.0  0.22315013336648895  0.9007560538325177  0.25292330566517174  1.0000
  H   H511      1.0  0.26822093601129293  0.9204110287744809  0.2692599473554285  1.0000
  H   H512      1.0  0.27917644752270593  0.8737474315098186  0.259587930243627  1.0000
