data_image0
_chemical_formula_structural       FeS2FeS2FeSFeS3FeS2FeS2FeSFeS3FeS2FeS2FeSFeS3FeS2FeS2FeSFeS3FeS2FeS2FeSFeS3FeS2FeS2FeSFeS3FeS2FeS2FeSFeS3FeS2FeS2FeSFeS3C6H4C6H4C6H4C6H4C6H4C6H4C6H4C6H4C6H4C6H4C6H4C6H4C6H4C6H4C6H4C6H4FeS2FeS2FeSFeS3FeS2FeS2FeSFeS3FeS2FeS2FeSFeS3FeS2FeS2FeSFeS3FeS2FeS2FeSFeS3FeS2FeS2FeSFeS3FeS2FeS2FeSFeS3FeS2FeS2FeSFeS3C6H4C6H4C6H4C6H4C6H4C6H4C6H4C6H4C6H4C6H4C6H4C6H4C6H4C6H4C6H4C6H4FeS2FeS2FeSFeS3FeS2FeS2FeSFeS3FeS2FeS2FeSFeS3FeS2FeS2FeSFeS3FeS2FeS2FeSFeS3FeS2FeS2FeSFeS3FeS2FeS2FeSFeS3FeS2FeS2FeSFeS3C6H4C6H4C6H4C6H4C6H4C6H4C6H4C6H4C6H4C6H4C6H4C6H4C6H4C6H4C6H4C6H4FeS2FeS2FeSFeS3FeS2FeS2FeSFeS3FeS2FeS2FeSFeS3FeS2FeS2FeSFeS3FeS2FeS2FeSFeS3FeS2FeS2FeSFeS3FeS2FeS2FeSFeS3FeS2FeS2FeSFeS3C6H4C6H4C6H4C6H4C6H4C6H4C6H4C6H4C6H4C6H4C6H4C6H4C6H4C6H4C6H4C6H4NC4H12NC4H12NC4H12NC4H12NC4H12NC4H12NC4H12NC4H12NC4H12NC4H12NC4H12NC4H12NC4H12NC4H12NC4H12NC4H12NC4H12NC4H12NC4H12NC4H12NC4H12NC4H12NC4H12NC4H12NC4H12NC4H12NC4H12NC4H12NC4H12NC4H12NC4H12NC4H12NC4H12NC4H12NC4H12NC4H12NC4H12NC4H12NC4H12NC4H12NC4H12NC4H12NC4H12NC4H12NC4H12NC4H12NC4H12NC4H12NC4H12NC4H12NC4H12NC4H12NC4H12NC4H12NC4H12NC4H12NC4H12NC4H12NC4H12NC4H12NC4H12NC4H12NC4H12NC4H12
_chemical_formula_sum              "Fe128 S256 C640 H1024 N64"
_cell_length_a       44.612114950668975
_cell_length_b       45.03749469607705
_cell_length_c       39.73176361355709
_cell_angle_alpha    84.34410435741374
_cell_angle_beta     84.13619056053861
_cell_angle_gamma    92.07982327718766

_space_group_name_H-M_alt    "P 1"
_space_group_IT_number       1

loop_
  _space_group_symop_operation_xyz
  'x, y, z'

loop_
  _atom_site_type_symbol
  _atom_site_label
  _atom_site_symmetry_multiplicity
  _atom_site_fract_x
  _atom_site_fract_y
  _atom_site_fract_z
  _atom_site_occupancy
  Fe  Fe1       1.0  0.4935737154687132  0.01833062544724995  0.7717171633053499  1.0000
  S   S1        1.0  0.477413207224996  0.9730931204293517  0.7967922227956356  1.0000
  S   S2        1.0  0.5197383739555856  0.04948990845216955  0.8000443568483432  1.0000
  Fe  Fe2       1.0  0.46581658255786684  0.008678482093552823  0.7067918708527828  1.0000
  S   S3        1.0  0.4089995555375418  0.43287090519256594  0.7199612481760048  1.0000
  S   S4        1.0  0.46006823564663485  0.027644739873672115  0.6535143615375929  1.0000
  Fe  Fe3       1.0  0.43424139761132213  0.9834446268337037  0.7751097332073389  1.0000
  S   S5        1.0  0.3709373307102516  0.4115559568694058  0.8099932246633963  1.0000
  Fe  Fe4       1.0  0.4550670141353374  0.4523179223477882  0.7243980962061353  1.0000
  S   S6        1.0  0.4987566016009607  0.4326934099828131  0.7072932865685102  1.0000
  S   S7        1.0  0.44913593901123794  0.030102482802524932  0.7535302726191115  1.0000
  S   S8        1.0  0.5119235915768181  0.0015738670573113257  0.7226106624450562  1.0000
  Fe  Fe5       1.0  0.48939630537542017  0.06818728347505004  0.9852322208496193  1.0000
  S   S9        1.0  0.5381482655609897  0.08060829847470027  0.9683510402633516  1.0000
  S   S10       1.0  0.4560615278558618  0.0617896353917981  0.9474211624400826  1.0000
  Fe  Fe6       1.0  0.49965208054697735  0.05802531316184797  0.06013650071616072  1.0000
  S   S11       1.0  0.5492732244534035  0.06878337951498109  0.04920440693780814  1.0000
  S   S12       1.0  0.47901243669946186  0.04402697894103773  0.11360732665465445  1.0000
  Fe  Fe7       1.0  0.5353415409709733  0.10651012470946329  0.01390589946056564  1.0000
  S   S13       1.0  0.5585526721110767  0.15133380036077104  0.014962875233350603  1.0000
  Fe  Fe8       1.0  0.5469099781080121  0.04192587964335027  0.005161226613557002  1.0000
  S   S14       1.0  0.5092600032095745  0.5083519549724843  0.04097809702878408  1.0000
  S   S15       1.0  0.4855370012892591  0.09768425386947087  0.027877729324371936  1.0000
  S   S16       1.0  0.49830806843495845  0.027504256861959026  0.019243217647655575  1.0000
  Fe  Fe9       1.0  0.20503169534266144  0.4259394918151941  0.8169567575480466  1.0000
  S   S17       1.0  0.20429070381360226  0.3856852082359256  0.787542081718572  1.0000
  S   S18       1.0  0.2359938057156506  0.44044491739566544  0.8538136219743845  1.0000
  Fe  Fe10      1.0  0.1535638390540386  0.45406413841138393  0.7848376103126615  1.0000
  S   S19       1.0  0.14788520665117885  0.41700470419416896  0.7518593586265298  1.0000
  S   S20       1.0  0.12451141091946168  0.4935892631765742  0.787023355295505  1.0000
  Fe  Fe11      1.0  0.1538622610788927  0.38655911804331644  0.7986216339600084  1.0000
  S   S21       1.0  0.12069150585534948  0.3472715369390006  0.8119688300359864  1.0000
  Fe  Fe12      1.0  0.1980516379743305  0.4192176873337511  0.7431783901093562  1.0000
  S   S22       1.0  0.2173836144158005  0.4166791748135087  0.6891138128882306  1.0000
  S   S23       1.0  0.15521990969115507  0.4234821483055748  0.8322593824419348  1.0000
  S   S24       1.0  0.20339011129435247  0.4593075006686789  0.7716358628062617  1.0000
  Fe  Fe13      1.0  0.5068109614087194  0.3024955187907064  0.9854158445964918  1.0000
  S   S25       1.0  0.06382594935330739  0.22946149871326718  0.02126315759824804  1.0000
  S   S26       1.0  0.47643817009347383  0.2613453256554121  0.0001523513444356972  1.0000
  Fe  Fe14      1.0  0.5100305772366783  0.368646720148981  0.9604725760506228  1.0000
  S   S27       1.0  0.05970525447703757  0.3008285785407657  0.03178870874740092  1.0000
  S   S28       1.0  0.48500661602282136  0.4089767712161201  0.9446193049875994  1.0000
  Fe  Fe15      1.0  0.07458931232825113  0.2733980167242102  0.9895990959630019  1.0000
  S   S29       1.0  0.12043013985622872  0.28704895656867474  0.9626614753211314  1.0000
  Fe  Fe16      1.0  0.04510847076373606  0.2571342344094827  0.061558146937898295  1.0000
  S   S30       1.0  0.05379637762263437  0.2474110522432547  0.11608770193559459  1.0000
  S   S31       1.0  0.50869992150248  0.3274445704204696  0.933496257734271  1.0000
  S   S32       1.0  0.502715661023992  0.34372596604546746  0.012446965115178843  1.0000
  Fe  Fe17      1.0  0.008177939143158234  0.04032946878399625  0.26123833620292913  1.0000
  S   S33       1.0  0.04712571243531201  0.05434471845152738  0.2221387913445697  1.0000
  S   S34       1.0  0.9639667863125114  0.5002541392526395  0.28079781193065717  1.0000
  Fe  Fe18      1.0  0.9989636588907751  0.1037609099370513  0.2790312434412749  1.0000
  S   S35       1.0  0.03721074991087137  0.12293500447117882  0.24126301878216788  1.0000
  S   S36       1.0  0.9710508627747416  0.13342219615532558  0.31034743413617244  1.0000
  Fe  Fe19      1.0  0.01825959352187012  0.09228079123854782  0.20709387680413924  1.0000
  S   S37       1.0  0.01107331348367069  0.10889585328475704  0.1537052732267557  1.0000
  Fe  Fe20      1.0  0.0616287707796136  0.0833149386276797  0.2606574783725008  1.0000
  S   S38       1.0  0.10962244363350275  0.08424886310280066  0.2724886851844404  1.0000
  S   S39       1.0  0.977915302451644  0.07592265006534256  0.2433688686890416  1.0000
  S   S40       1.0  0.02469690072244246  0.06643160357973886  0.30124969273916086  1.0000
  Fe  Fe21      1.0  0.11546629694829534  0.5431701874915622  0.4937509218628337  1.0000
  S   S41       1.0  0.10764407783448214  0.5004688461082548  0.47135003587183993  1.0000
  S   S42       1.0  0.09098032812922029  0.5811876961648188  0.4702956078410509  1.0000
  Fe  Fe22      1.0  0.15010730697954713  0.5131670840477426  0.5485852761443778  1.0000
  S   S43       1.0  0.14418185183778398  0.4676880716362438  0.5312068039792257  1.0000
  S   S44       1.0  0.1724030196883431  0.5231523438237652  0.5945846194518334  1.0000
  Fe  Fe23      1.0  0.1556428649608043  0.492146768237263  0.47914255761431535  1.0000
  S   S45       1.0  0.18504507390734548  0.4709367773343806  0.4397964608371239  1.0000
  Fe  Fe24      1.0  0.09679433361342732  0.4803277058837959  0.5250156494656756  1.0000
  S   S46       1.0  0.054416482710100834  0.4523864934583619  0.5433171760287944  1.0000
  S   S47       1.0  0.16483235179213984  0.5370676880287458  0.4968729499698477  1.0000
  S   S48       1.0  0.10158822321940708  0.5236887120542828  0.5472654490083607  1.0000
  Fe  Fe25      1.0  0.38008639979999476  0.4249883388857901  0.4925741890252496  1.0000
  S   S49       1.0  0.39269191609078896  0.47257725559857355  0.47321301364350343  1.0000
  S   S50       1.0  0.3844839658955189  0.4047239575899135  0.5456515374079223  1.0000
  Fe  Fe26      1.0  0.36127138190511143  0.409938591357826  0.4251021293193966  1.0000
  S   S51       1.0  0.3725062002991367  0.4561003585446591  0.39918399397814036  1.0000
  S   S52       1.0  0.33998300150338306  0.3724031215804186  0.4015672689426094  1.0000
  Fe  Fe27      1.0  0.41382958838493833  0.4538052469747495  0.4269242408884917  1.0000
  S   S53       1.0  0.45848359677388956  0.47560503950656846  0.4047279232402194  1.0000
  Fe  Fe28      1.0  0.35043691764583285  0.47099511583782977  0.44740171972421766  1.0000
  S   S54       1.0  0.3213791789421154  0.5105820307324777  0.4463891222517484  1.0000
  S   S55       1.0  0.40484517586835117  0.40588450061898207  0.44821188868453565  1.0000
  S   S56       1.0  0.3355664208714025  0.4250271566914191  0.47135559638934954  1.0000
  Fe  Fe29      1.0  0.012227154634230516  0.35484770137725546  0.32365971885359424  1.0000
  S   S57       1.0  0.47248072966913673  0.3506629602544419  0.20688584571374968  1.0000
  S   S58       1.0  0.027324803950791184  0.39295171875165896  0.3516182820571109  1.0000
  Fe  Fe30      1.0  0.022960809937627506  0.2916016579483002  0.307375721791869  1.0000
  S   S59       1.0  0.45416753001258553  0.29211476884783555  0.2627732634823234  1.0000
  S   S60       1.0  0.05069423933145055  0.25135374519217824  0.31538922039221656  1.0000
  Fe  Fe31      1.0  0.4896505305165984  0.30518780921029104  0.2191710111114591  1.0000
  S   S61       1.0  0.49983782580373315  0.2752509059152385  0.17788062340339003  1.0000
  Fe  Fe32      1.0  0.440229138002895  0.33930370328604154  0.25363533473451016  1.0000
  S   S62       1.0  0.3916891075328646  0.34968601156065005  0.25341336308164886  1.0000
  S   S63       1.0  0.0437579147641883  0.33610802619945607  0.28426510026200574  1.0000
  S   S64       1.0  0.9950229235407116  0.31024034830320174  0.34986591464974565  1.0000
  C   C1        1.0  0.3531860152277576  0.36946340705114394  0.3590215254747117  1.0000
  C   C2        1.0  0.38003427302182013  0.38440249011093086  0.3439183318332384  1.0000
  C   C3        1.0  0.39183110840416335  0.3788599674641796  0.3110613656674388  1.0000
  C   C4        1.0  0.3764009064196328  0.35890867340477867  0.2931939384780593  1.0000
  C   C5        1.0  0.34903484307993743  0.34496889462106295  0.30788718457714126  1.0000
  C   C6        1.0  0.3376517099978033  0.3499468023149016  0.3408892640757805  1.0000
  H   H1        1.0  0.39207566503494656  0.39956189124666613  0.35784627841581135  1.0000
  H   H2        1.0  0.4127512775987154  0.3900520290778777  0.2994963063905381  1.0000
  H   H3        1.0  0.33705288935388994  0.32963468595748696  0.2940804223562822  1.0000
  H   H4        1.0  0.31687176447605575  0.33844368314525036  0.3524972169082444  1.0000
  C   C7        1.0  0.0279861404751316  0.4553947186082781  0.5134351722273508  1.0000
  C   C8        1.0  0.0375969716273934  0.4604618855326758  0.4786607635100411  1.0000
  C   C9        1.0  0.01658831563921016  0.4655565901049671  0.4550839874784835  1.0000
  C   C10       1.0  0.48300215233870514  0.4721640705620738  0.436657079633405  1.0000
  C   C11       1.0  0.9759642854550367  0.4588923197606263  0.5007867696533967  1.0000
  C   C12       1.0  0.9970602648640192  0.4538423408226633  0.5244091130182477  1.0000
  H   H5        1.0  0.06117340647445664  0.4599126819066042  0.4698242030953417  1.0000
  H   H6        1.0  0.5134475103811531  0.5087162988333667  0.4140930313120514  1.0000
  H   H7        1.0  0.4569281577411753  0.43561267564180944  0.4661207775224447  1.0000
  H   H8        1.0  0.989437890720323  0.44962039131696985  0.5512825887289636  1.0000
  C   C13       1.0  0.2231101029115469  0.4828673035391196  0.4386565856443844  1.0000
  C   C14       1.0  0.24576571775609965  0.46276016537293535  0.4325685957759704  1.0000
  C   C15       1.0  0.27611881837388175  0.4714387880724628  0.43394771169426766  1.0000
  C   C16       1.0  0.2839123998131884  0.5003506442084172  0.441093878881243  1.0000
  C   C17       1.0  0.26138097731017834  0.5208261404362188  0.44583104845872806  1.0000
  C   C18       1.0  0.23101805751229892  0.5120644477688177  0.44472140121719383  1.0000
  H   H9        1.0  0.23982801381661603  0.44023956896274763  0.4274865277527021  1.0000
  H   H10       1.0  0.29341331826223854  0.4556694969797302  0.42950562213012283  1.0000
  H   H11       1.0  0.2673180438710891  0.5433513021207976  0.45088045042892794  1.0000
  H   H12       1.0  0.21380641355200686  0.5280254679895726  0.44822694907996746  1.0000
  C   C19       1.0  0.9799872379913195  0.4723156693867449  0.3058789117859418  1.0000
  C   C20       1.0  0.9636925726061291  0.44531986668359863  0.3162367692461747  1.0000
  C   C21       1.0  0.9777535982639891  0.42139785552073394  0.33235913394274874  1.0000
  C   C22       1.0  0.008129764611398249  0.42438781299772854  0.33788966583613855  1.0000
  C   C23       1.0  0.02385497278695725  0.45197375449240573  0.3293639616919358  1.0000
  C   C24       1.0  0.009758267415189927  0.4759999340837608  0.3134234495432886  1.0000
  H   H13       1.0  0.9405578274052866  0.44253211298865436  0.3107371628054438  1.0000
  H   H14       1.0  0.9652279172304215  0.4004224274986632  0.3397659034182915  1.0000
  H   H15       1.0  0.04729701789615687  0.4544094371859238  0.3334741822356456  1.0000
  H   H16       1.0  0.02235310235148269  0.4969588300241054  0.30582646146345505  1.0000
  C   C25       1.0  0.9929782696575383  0.16577326823640193  0.3143873195031801  1.0000
  C   C26       1.0  0.9791522210119186  0.19231170397285235  0.3209506200632612  1.0000
  C   C27       1.0  0.9968004052027768  0.21868987174524818  0.32157001985698913  1.0000
  C   C28       1.0  0.028268992834377775  0.21851021000055718  0.31558645696595605  1.0000
  C   C29       1.0  0.04202103379302981  0.19186505349137914  0.30944932455119123  1.0000
  C   C30       1.0  0.024435590882248677  0.1655139604628218  0.30922424490893896  1.0000
  H   H17       1.0  0.9548101519059788  0.19262125028748436  0.3250966205334437  1.0000
  H   H18       1.0  0.9860070725895828  0.23911453032956262  0.32677102768503075  1.0000
  H   H19       1.0  0.0662333550845179  0.1916511642940923  0.3041850066841975  1.0000
  H   H20       1.0  0.03528232974258617  0.1449562598626989  0.3051405842939745  1.0000
  C   C31       1.0  0.09234108599570214  0.5775243442277028  0.42657924583601503  1.0000
  C   C32       1.0  0.1359299948535442  0.07087137983281912  0.3668016944344684  1.0000
  C   C33       1.0  0.13580423407496336  0.07289762234576741  0.3313502889417506  1.0000
  C   C34       1.0  0.11091984265287952  0.08405044104635093  0.3163074591794959  1.0000
  C   C35       1.0  0.06869322354886946  0.5813710679877335  0.3738596725231671  1.0000
  C   C36       1.0  0.06833168599936561  0.586330695182092  0.40830476526071946  1.0000
  H   H21       1.0  0.15512477384943035  0.06213321793333515  0.37845991513360966  1.0000
  H   H22       1.0  0.15470890648082328  0.06531231605447976  0.31566675088456325  1.0000
  H   H23       1.0  0.05000582655132517  0.5878742152302301  0.3599509289812067  1.0000
  H   H24       1.0  0.04926570138205763  0.5965000644792251  0.42087277312375454  1.0000
  C   C37       1.0  0.042057831413830835  0.2774923623804939  0.1382819296928343  1.0000
  C   C38       1.0  0.536944609620466  0.3061877992841277  0.08351924701762149  1.0000
  C   C39       1.0  0.5201644242650166  0.2890641978859695  0.11078608273868416  1.0000
  C   C40       1.0  0.5226304911368544  0.2954472749964698  0.14413835665020763  1.0000
  C   C41       1.0  0.03878222497716106  0.3026040783194378  0.18982781776701427  1.0000
  C   C42       1.0  0.04926302689002126  0.2792759790583187  0.17152365434314173  1.0000
  H   H25       1.0  0.534268106924325  0.30158424582084925  0.057825798100261006  1.0000
  H   H26       1.0  0.5044776106748858  0.2717203021309301  0.10571921324586762  1.0000
  H   H27       1.0  0.044350258716464  0.3037934803390501  0.21554645568763187  1.0000
  H   H28       1.0  0.0630219162305858  0.2627181002677925  0.18315343413494503  1.0000
  C   C43       1.0  0.20423986832527624  0.4458762300123087  0.6629209772216835  1.0000
  C   C44       1.0  0.19754537194680663  0.4412810670012492  0.6301157510347398  1.0000
  C   C45       1.0  0.18706693133193306  0.4647103031880278  0.6091222722567546  1.0000
  C   C46       1.0  0.18408489854320123  0.4929496184845502  0.6205753182385851  1.0000
  C   C47       1.0  0.19099397885646388  0.49752503618018296  0.653275711815942  1.0000
  C   C48       1.0  0.20069082184220016  0.47394979496254114  0.6745634901274702  1.0000
  H   H29       1.0  0.20011425451966855  0.41949660282184836  0.6211313445210961  1.0000
  H   H30       1.0  0.18176794429515056  0.4609514172035628  0.5839964926230359  1.0000
  H   H31       1.0  0.18876625968964614  0.5193545565972338  0.6622520672566969  1.0000
  H   H32       1.0  0.2059990604743072  0.47775868142783007  0.6997339818857333  1.0000
  C   C49       1.0  0.12150633482995304  0.32994276759814745  0.8534768106523365  1.0000
  C   C50       1.0  0.14261178460098398  0.33949803159344205  0.8742785433811011  1.0000
  C   C51       1.0  0.14226284732600242  0.32609799983406645  0.9077703325132115  1.0000
  C   C52       1.0  0.12029692940581282  0.3037462045331872  0.9208420145852578  1.0000
  C   C53       1.0  0.09903419914227048  0.2943780579400268  0.9001271591888479  1.0000
  C   C54       1.0  0.09998403024854804  0.3070878200051218  0.8663227197311134  1.0000
  H   H33       1.0  0.15941461753257213  0.3569671854112102  0.8645058053040678  1.0000
  H   H34       1.0  0.1588908814017504  0.33320738980102177  0.923679695528724  1.0000
  H   H35       1.0  0.0825234014000189  0.276630825701965  0.9098388809543144  1.0000
  H   H36       1.0  0.08419927856065208  0.2989278030191114  0.8501148416312811  1.0000
  C   C55       1.0  0.4884583535632446  0.07124076250090035  0.13999722355719058  1.0000
  C   C56       1.0  0.4768183476077237  0.0683320316575867  0.1743026170101519  1.0000
  C   C57       1.0  0.9946989838427106  0.049794751871348936  0.15473530901797866  1.0000
  C   C58       1.0  0.998979928034898  0.07741347245628578  0.13507354246616043  1.0000
  C   C59       1.0  0.9944632307478274  0.07941044069522037  0.10058080254792964  1.0000
  C   C60       1.0  0.5084882239096337  0.09529572037450743  0.1272862963650523  1.0000
  H   H37       1.0  0.46066146325161555  0.05030202336661414  0.184011061560093  1.0000
  H   H38       1.0  0.9979674094282758  0.047947207563670956  0.18132074158933384  1.0000
  H   H39       1.0  0.9967503236693549  0.10069367366776795  0.08538753246368924  1.0000
  H   H40       1.0  0.517223777168597  0.09804912598602246  0.100770653225428  1.0000
  C   C61       1.0  0.4912563280563108  0.4360066253853873  0.9722882720729211  1.0000
  C   C62       1.0  0.4751017473272328  0.4620160288823381  0.9708380206775222  1.0000
  C   C63       1.0  0.48028521504211596  0.4838507424343856  0.9925227304951656  1.0000
  C   C64       1.0  0.5019771982708046  0.4800172212931731  0.015397439193627793  1.0000
  C   C65       1.0  0.5181197371778951  0.45398048432316856  0.01703809362942099  1.0000
  C   C66       1.0  0.5125540221756566  0.4318453516718205  0.9956919494623417  1.0000
  H   H41       1.0  0.45855042569328397  0.46551314167116453  0.9530761894054615  1.0000
  H   H42       1.0  0.4674239128988975  0.5037219127537557  0.9913554000420608  1.0000
  H   H43       1.0  0.535476095941675  0.45127330565038704  0.03404335871894193  1.0000
  H   H44       1.0  0.5251226151652352  0.41183307443850803  0.9970798729233376  1.0000
  C   C67       1.0  0.5339951445508785  0.18066968614041673  0.014006093609163717  1.0000
  C   C68       1.0  0.5431706535522598  0.20791244869604814  0.024658412001157703  1.0000
  C   C69       1.0  0.5248295986642932  0.23239301894042536  0.021781778053822975  1.0000
  C   C70       1.0  0.4975602617894662  0.22987399429686925  0.007632165826271242  1.0000
  C   C71       1.0  0.4879458305489241  0.20240632030944702  0.9977860450665372  1.0000
  C   C72       1.0  0.5062253441538878  0.17778807849264028  0.0008615141077579214  1.0000
  H   H45       1.0  0.5646199092609767  0.21015629231291216  0.034907813087297956  1.0000
  H   H46       1.0  0.531779051118729  0.253195811658794  0.030656495740622347  1.0000
  H   H47       1.0  0.46685755107994026  0.2004371016107301  0.9867248286961989  1.0000
  H   H48       1.0  0.4993238070806098  0.15697604597007403  0.9918875405338645  1.0000
  C   C73       1.0  0.3720021646352229  0.4672790431945364  0.6288229349583423  1.0000
  C   C74       1.0  0.3771136840157651  0.43711517819148227  0.6368879392233067  1.0000
  C   C75       1.0  0.37975990813259763  0.4178302778010774  0.6112793916440318  1.0000
  C   C76       1.0  0.3776744485622791  0.42869602430022624  0.5774435059546921  1.0000
  C   C77       1.0  0.3716208057055221  0.4586698133013402  0.5694418856247303  1.0000
  C   C78       1.0  0.3685212008964402  0.4778987959889893  0.5951850533615386  1.0000
  H   H49       1.0  0.37876981334640336  0.4284709385762975  0.6628371391759434  1.0000
  H   H50       1.0  0.38388160495436463  0.39450515977654654  0.6175995044555269  1.0000
  H   H51       1.0  0.3698244037470644  0.46717925651801795  0.5434262848290333  1.0000
  H   H52       1.0  0.36437566086061124  0.5012169893750054  0.5888784918871098  1.0000
  C   C79       1.0  0.5262654872561128  0.44975487209325404  0.7284375058121817  1.0000
  C   C80       1.0  0.5547047716464246  0.437814540213555  0.729737809612169  1.0000
  C   C81       1.0  0.08348926637440968  0.4486780674383661  0.7828424045399055  1.0000
  C   C82       1.0  0.08843780073052197  0.479478359769304  0.7823236047728286  1.0000
  C   C83       1.0  0.06555825173564807  0.49857403312714976  0.7746143451471242  1.0000
  C   C84       1.0  0.520011167520919  0.4759662133167895  0.7434619777863135  1.0000
  H   H53       1.0  0.5596472717338405  0.41752818894079125  0.7181665647578837  1.0000
  H   H54       1.0  0.10025549445044864  0.43379011975710996  0.7909000343890288  1.0000
  H   H55       1.0  0.07937692314306431  0.9647203711287642  0.77189683434917  1.0000
  H   H56       1.0  0.5418746962281479  0.9674050891414628  0.769339860540368  1.0000
  C   C85       1.0  0.3335102016556795  0.4200130096429879  0.821862639664386  1.0000
  C   C86       1.0  0.3256324068451329  0.4495208036339691  0.8246919830807703  1.0000
  C   C87       1.0  0.29567281116190813  0.45569727715366637  0.8350132076864398  1.0000
  C   C88       1.0  0.2734386761693316  0.43248920655922984  0.8415664921916697  1.0000
  C   C89       1.0  0.2812224960567015  0.40308049103747345  0.8380886738959009  1.0000
  C   C90       1.0  0.311335232789449  0.39680953718510925  0.8288137387529748  1.0000
  H   H57       1.0  0.3293455270874459  0.9489080899255944  0.8197231891115707  1.0000
  H   H58       1.0  0.2896682750500764  0.47847707998034766  0.8376892771607117  1.0000
  H   H59       1.0  0.26410081612286973  0.38509088414460446  0.8432790522312016  1.0000
  H   H60       1.0  0.3173888983468757  0.37394424952181315  0.8268047112661141  1.0000
  C   C91       1.0  0.50198244299559  0.05307127044238559  0.840930474010495  1.0000
  C   C92       1.0  0.5129426798321847  0.0746014761068857  0.860320383194603  1.0000
  C   C93       1.0  0.4991581126821422  0.07719658462467659  0.8932447387839746  1.0000
  C   C94       1.0  0.47444482073563155  0.058202260028812805  0.9068782057301499  1.0000
  C   C95       1.0  0.4637327555512639  0.036536474333841794  0.8875987048695393  1.0000
  C   C96       1.0  0.4774018848491223  0.03404939795987478  0.8547013666444132  1.0000
  H   H61       1.0  0.5318692489062762  0.08949497830649017  0.849741736911281  1.0000
  H   H62       1.0  0.507138884581274  0.0944122495257504  0.9077052262814597  1.0000
  H   H63       1.0  0.4451706708010365  0.02131201669343263  0.8983471802260903  1.0000
  H   H64       1.0  0.4689161176081566  0.017326113306757495  0.8401101454806514  1.0000
  Fe  Fe33      1.0  0.43196080449816143  0.5054013771748442  0.7572295570803472  1.0000
  S   S65       1.0  0.444652836892009  0.4604036821899839  0.7789173293470092  1.0000
  S   S66       1.0  0.4531455912438901  0.5452435290277015  0.7765903020774617  1.0000
  Fe  Fe34      1.0  0.39778515170504297  0.479894327049048  0.7035707160203614  1.0000
  S   S67       1.0  0.4466428028663599  0.9627872374643439  0.7270013503733708  1.0000
  S   S68       1.0  0.3699698251350395  0.4919692440926993  0.6603525007757984  1.0000
  Fe  Fe35      1.0  0.3973376298956497  0.44577551553609507  0.7726035548388591  1.0000
  S   S69       1.0  0.3909421171701642  0.9708510465466608  0.8078513767882559  1.0000
  Fe  Fe36      1.0  0.4916210164990642  0.9572111826635181  0.7463770994040491  1.0000
  S   S70       1.0  0.5165467974385738  0.9150565550728122  0.7451374804217018  1.0000
  S   S71       1.0  0.38315957865648437  0.491809682141394  0.7562195916056603  1.0000
  S   S72       1.0  0.44525542730633166  0.49817845323944393  0.7028313284922191  1.0000
  Fe  Fe37      1.0  0.45320659195038493  0.5716354249403229  0.9605015345481099  1.0000
  S   S73       1.0  0.5008330617335272  0.5569113063707012  0.9546221404904947  1.0000
  S   S74       1.0  0.4163126045728426  0.5532637915378426  0.9329208238173605  1.0000
  Fe  Fe38      1.0  0.46405806165223706  0.6079027396034515  0.019034818057854563  1.0000
  S   S75       1.0  0.5122334624167465  0.5956768988375347  0.018539825807011967  1.0000
  S   S76       1.0  0.4426598152809797  0.6349427771904809  0.0588732449797984  1.0000
  Fe  Fe39      1.0  0.5131427606177161  0.6044277241464692  0.9619785819335495  1.0000
  S   S77       1.0  0.5535477877503732  0.6314097511357477  0.9357673814916145  1.0000
  Fe  Fe40      1.0  0.49511139038980756  0.5497422225275971  0.01164662710919262  1.0000
  S   S78       1.0  0.5810958861376438  0.008469034465984793  0.9923415022193298  1.0000
  S   S79       1.0  0.4658650525831724  0.6201455078997479  0.962778812974061  1.0000
  S   S80       1.0  0.446688724884327  0.5610119404926504  0.017086081886750426  1.0000
  Fe  Fe41      1.0  0.24689484545731877  0.9556915561044401  0.7335897366909582  1.0000
  S   S81       1.0  0.26231778638881736  0.9123514956956027  0.716706721811432  1.0000
  S   S82       1.0  0.27983040259437525  0.9953014322742382  0.7247468795303874  1.0000
  Fe  Fe42      1.0  0.1838323170451972  0.9296035593764225  0.7583155583397958  1.0000
  S   S83       1.0  0.1942652962895799  0.8836495880877623  0.7446028376155308  1.0000
  S   S84       1.0  0.13800594437384792  0.9423962889517128  0.7789754820742419  1.0000
  Fe  Fe43      1.0  0.23789101123479944  0.8922871890544913  0.766249999157592  1.0000
  S   S85       1.0  0.2643944189793317  0.8623246715823144  0.7991041880955432  1.0000
  Fe  Fe44      1.0  0.217583693772918  0.9083417494322865  0.6965671725616648  1.0000
  S   S86       1.0  0.21143237276754376  0.8955118847775799  0.6444624538657627  1.0000
  S   S87       1.0  0.22531331178350356  0.9361245231279134  0.7846314839703894  1.0000
  S   S88       1.0  0.20403068063543012  0.9537075571839296  0.7089783060505517  1.0000
  Fe  Fe45      1.0  0.5355484322161447  0.7952652338924321  0.9448975301607443  1.0000
  S   S89       1.0  0.12380641343547355  0.7236460406685603  0.9476703184249683  1.0000
  S   S90       1.0  0.5231324981237305  0.7663491332998608  0.9051860944018547  1.0000
  Fe  Fe46      1.0  0.5306004074995306  0.8589573261937951  0.960375546585817  1.0000
  S   S91       1.0  0.13625624052927418  0.7948450333394658  0.9521790441958802  1.0000
  S   S92       1.0  0.511022503013676  0.901469938245245  0.9410264086462033  1.0000
  Fe  Fe47      1.0  0.15009159457068538  0.7616154672512462  0.9160568232020804  1.0000
  S   S93       1.0  0.19901511405667563  0.7569691923499429  0.8996775705261778  1.0000
  Fe  Fe48      1.0  0.10620229028837892  0.7578396637745679  0.9807058235171008  1.0000
  S   S94       1.0  0.10495601613324802  0.7488846313249737  0.03766022913966505  1.0000
  S   S95       1.0  0.5657215579051486  0.8360744305202373  0.9293799432910423  1.0000
  S   S96       1.0  0.49874940646743904  0.8190692073884185  0.9720064298642522  1.0000
  Fe  Fe49      1.0  0.9950735327659128  0.5409374466579587  0.2723569174925176  1.0000
  S   S97       1.0  0.04239015924026267  0.5441242577066595  0.24692044131088453  1.0000
  S   S98       1.0  0.993759307321856  0.9926085145336733  0.27832614067227995  1.0000
  Fe  Fe50      1.0  0.9957780593689196  0.6053340804552981  0.2862146283933741  1.0000
  S   S99       1.0  0.04339370296304393  0.6150373583145176  0.26228266123319305  1.0000
  S   S100      1.0  0.9624111577868251  0.6368796039540333  0.30648072250727965  1.0000
  Fe  Fe51      1.0  0.02949036471709765  0.5878003784535715  0.22158288680700422  1.0000
  S   S101      1.0  0.04181684037494617  0.6027733084271681  0.16601259452882583  1.0000
  Fe  Fe52      1.0  0.052382913764956636  0.5706740120523528  0.2897726019308644  1.0000
  S   S102      1.0  0.0938988167596724  0.5596856348076893  0.31525549564009503  1.0000
  S   S103      1.0  0.9811048951331385  0.5820469646694301  0.24308382250595356  1.0000
  S   S104      1.0  0.006003199301579444  0.5635434678313607  0.3174225531161354  1.0000
  Fe  Fe53      1.0  0.13242190899566977  0.03693166470533438  0.45065513719201966  1.0000
  S   S105      1.0  0.1346415912185113  0.9966708950448718  0.42148088805495215  1.0000
  S   S106      1.0  0.11152712451625345  0.0789161116127517  0.43105159556020756  1.0000
  Fe  Fe54      1.0  0.15725828678599513  0.0054437951485917235  0.5117734560431739  1.0000
  S   S107      1.0  0.16101720402530112  0.962257654911689  0.48858937047124046  1.0000
  S   S108      1.0  0.17274995117686112  0.012144788068097379  0.5625053375426552  1.0000
  Fe  Fe55      1.0  0.17970990381525598  0.9908730457307764  0.4413139495154853  1.0000
  S   S109      1.0  0.2203651429546663  0.9732040065972246  0.41284227931547973  1.0000
  Fe  Fe56      1.0  0.1158743070497272  0.971894191328693  0.47121408556978106  1.0000
  S   S110      1.0  0.07889544568702841  0.936496570099609  0.4730491490323272  1.0000
  S   S111      1.0  0.17933911821890142  0.03372718143073561  0.4657496242697762  1.0000
  S   S112      1.0  0.11012600261385322  0.012474040840479317  0.4991461915356923  1.0000
  Fe  Fe57      1.0  0.3944210305441724  0.9350639482237938  0.5301884407822377  1.0000
  S   S113      1.0  0.411986768355486  0.9784894470201496  0.5013500001473806  1.0000
  S   S114      1.0  0.40328029256459924  0.9228350387220288  0.584024432576344  1.0000
  Fe  Fe58      1.0  0.3699357739486558  0.9120563381109935  0.46887966300373407  1.0000
  S   S115      1.0  0.38638256339836613  0.9527882865372381  0.43419078320030685  1.0000
  S   S116      1.0  0.3416135142582757  0.8763616708193809  0.450595827534391  1.0000
  Fe  Fe59      1.0  0.4280176213672597  0.9497801245609844  0.46117082508677837  1.0000
  S   S117      1.0  0.47492886850106014  0.9580471598533654  0.43602134003118836  1.0000
  Fe  Fe60      1.0  0.3684644589083995  0.977167860663984  0.47787356880906157  1.0000
  S   S118      1.0  0.3403450247555993  0.01653506898576662  0.4683878610867728  1.0000
  S   S119      1.0  0.41350886398557235  0.9061352569745593  0.49133285924888465  1.0000
  S   S120      1.0  0.34902560671303884  0.936612193136507  0.5109940950902938  1.0000
  Fe  Fe61      1.0  0.010080473932007278  0.8534304113545025  0.19719977201595976  1.0000
  S   S121      1.0  0.46001129474068714  0.8895366903288351  0.26958851223284214  1.0000
  S   S122      1.0  0.03679069297371651  0.8966146500220603  0.18052903119123426  1.0000
  Fe  Fe62      1.0  0.9981645016660128  0.7960083457423743  0.243909445941409  1.0000
  S   S123      1.0  0.4598935783232373  0.8201271974107481  0.24894630506273244  1.0000
  S   S124      1.0  0.017871805198898645  0.7690520802739382  0.2860026325487264  1.0000
  Fe  Fe63      1.0  0.48552452358007575  0.863589252404524  0.23187312111013275  1.0000
  S   S125      1.0  0.4988461370915927  0.8831034920526828  0.17810464407858034  1.0000
  Fe  Fe64      1.0  0.4376744369175369  0.8452358515011834  0.2901703348948632  1.0000
  S   S126      1.0  0.38793277612511634  0.840986655736999  0.30537980775366275  1.0000
  S   S127      1.0  0.027527294214834797  0.8075662210123218  0.19471299271647352  1.0000
  S   S128      1.0  0.9845241586891359  0.8427913373610475  0.24863015224539997  1.0000
  C   C97       1.0  0.3564127151645818  0.864848101708168  0.4116699187507891  1.0000
  C   C98       1.0  0.3380681303860142  0.8470366512123292  0.3945306137604553  1.0000
  C   C99       1.0  0.34819828685755416  0.8395077761309253  0.3621124137163467  1.0000
  C   C100      1.0  0.37705458053291513  0.8490375324117189  0.3470200136156356  1.0000
  C   C101      1.0  0.395924746777271  0.8661858776322638  0.3645208929969082  1.0000
  C   C102      1.0  0.38545916941372615  0.8743654439753773  0.39679401848278023  1.0000
  H   H65       1.0  0.31567670856459634  0.8395466460625912  0.4060094111297655  1.0000
  H   H66       1.0  0.3336276574187603  0.8262016047644624  0.3486745219659882  1.0000
  H   H67       1.0  0.4181166938623413  0.8738448677442773  0.3527083378334088  1.0000
  H   H68       1.0  0.39961888106498533  0.8882789915516759  0.4099412785937308  1.0000
  C   C103      1.0  0.046698387298186476  0.951841141627482  0.45805753993113923  1.0000
  C   C104      1.0  0.04514274366301571  0.9827780726303266  0.451409601415066  1.0000
  C   C105      1.0  0.019001675419763275  0.994935485210361  0.44016854921558707  1.0000
  C   C106      1.0  0.5003970760172105  0.9454650701072083  0.4644329228653652  1.0000
  C   C107      1.0  0.9961550744752327  0.9452138321924467  0.44165459493459924  1.0000
  C   C108      1.0  0.022237850065588205  0.933054532693268  0.4530822742679651  1.0000
  H   H69       1.0  0.06401993367435564  0.9974372610042139  0.4549657640169524  1.0000
  H   H70       1.0  0.5381270507897147  0.9482252534546766  0.4257602813459355  1.0000
  H   H71       1.0  0.46723830651702425  0.9393745930791078  0.5083492061897247  1.0000
  H   H72       1.0  0.02349886518141875  0.9090873633620813  0.45792943680463083  1.0000
  C   C109      1.0  0.2535584720292811  0.9856530125706311  0.4281758403293736  1.0000
  C   C110      1.0  0.2572418402801613  0.015009798412020325  0.4362116706569364  1.0000
  C   C111      1.0  0.2839973062459012  0.02456313711686975  0.4484675082668645  1.0000
  C   C112      1.0  0.3069308528803878  0.004660549084924526  0.45304180421840945  1.0000
  C   C113      1.0  0.3031851042767657  0.9752615108432061  0.4450854628319556  1.0000
  C   C114      1.0  0.27662663193654047  0.9658661091744756  0.43243501766801384  1.0000
  H   H73       1.0  0.2397231776394275  0.03055618071519639  0.4324114019034191  1.0000
  H   H74       1.0  0.2867922058836221  0.04732244715746492  0.4545908974170872  1.0000
  H   H75       1.0  0.3207199804199478  0.9597281717130222  0.44861957529222024  1.0000
  H   H76       1.0  0.27360390739667795  0.9430931490829737  0.4266321019033028  1.0000
  C   C115      1.0  0.00848085716159553  0.9668187627892806  0.2514411691168532  1.0000
  C   C116      1.0  0.008424994054313075  0.9367265026921843  0.2641006839976408  1.0000
  C   C117      1.0  0.01865168234380921  0.9154112649883787  0.24275646372365028  1.0000
  C   C118      1.0  0.028272798172281458  0.9238690754753025  0.20844894392567193  1.0000
  C   C119      1.0  0.02945249736200317  0.9541602642346957  0.19606884555230256  1.0000
  C   C120      1.0  0.01941930743469067  0.9756180626884604  0.21751123139047354  1.0000
  H   H77       1.0  0.00019751389974986746  0.9298019306791843  0.2903731542613281  1.0000
  H   H78       1.0  0.019393362469537274  0.892476423665513  0.2530098489543038  1.0000
  H   H79       1.0  0.03714403468330385  0.9609605312373263  0.16960007627328588  1.0000
  H   H80       1.0  0.019263617456584115  0.9987453078017606  0.207389751587654  1.0000
  C   C121      1.0  0.9776996787661857  0.6736220256052311  0.30234863945445  1.0000
  C   C122      1.0  0.008596268900803901  0.6792034314212618  0.30348575653437915  1.0000
  C   C123      1.0  0.020730543931857255  0.708663648389595  0.2992563792053253  1.0000
  C   C124      1.0  0.0021251127318322486  0.7325059041809248  0.29298566665716796  1.0000
  C   C125      1.0  0.9712070291097875  0.726957695255492  0.2919255518792289  1.0000
  C   C126      1.0  0.9589603592521815  0.6975267343613379  0.2969334665719219  1.0000
  H   H81       1.0  0.02308884858885963  0.660857254409562  0.30823776131602254  1.0000
  H   H82       1.0  0.04463628789596346  0.7129228247549703  0.30031843252541374  1.0000
  H   H83       1.0  0.9566568787525671  0.7453324898787873  0.28760294553088833  1.0000
  H   H84       1.0  0.9350297264561286  0.6932648983751952  0.2961032198908236  1.0000
  C   C127      1.0  0.11132805613182628  0.08038430174462396  0.3870328175538444  1.0000
  C   C128      1.0  0.11706423124297297  0.5646404381699387  0.41014143966181105  1.0000
  C   C129      1.0  0.11778105067616398  0.5605081255439114  0.375591675826976  1.0000
  C   C130      1.0  0.09334756330896689  0.5681566168953729  0.35757138984667114  1.0000
  C   C131      1.0  0.08660065458298728  0.09398833002191664  0.33656799843876384  1.0000
  C   C132      1.0  0.08664001861836057  0.09184088360190978  0.3719272542360242  1.0000
  H   H85       1.0  0.1359368644479693  0.5583380511545493  0.42393795388979183  1.0000
  H   H86       1.0  0.13738700236575058  0.5514863992486617  0.36276535618200334  1.0000
  H   H87       1.0  0.06784039873970951  0.10357046927608526  0.32499406925025526  1.0000
  H   H88       1.0  0.06739996502961014  0.09880345017943215  0.3875818970679949  1.0000
  C   C133      1.0  0.07116112701621875  0.7559246260861562  0.06154677196176772  1.0000
  C   C134      1.0  0.4751259966848818  0.8135232383641292  0.12738201993418852  1.0000
  C   C135      1.0  0.4757101085270594  0.8337560365560674  0.15211361792392045  1.0000
  C   C136      1.0  0.4989377750881791  0.8558764219475  0.1493921674072067  1.0000
  C   C137      1.0  0.04496025447851047  0.7673911588483481  0.11511874357172502  1.0000
  C   C138      1.0  0.07172055177401519  0.761873639053999  0.09543153669927712  1.0000
  H   H89       1.0  0.4566652358292692  0.797017645297956  0.1289565719956054  1.0000
  H   H90       1.0  0.45764018144010077  0.8328961994019011  0.17257176432810858  1.0000
  H   H91       1.0  0.04568199676914979  0.771955857399812  0.14115956925494058  1.0000
  H   H92       1.0  0.09296870304853998  0.7624818269748319  0.10635913087875737  1.0000
  C   C139      1.0  0.2019438153229969  0.9275198998678781  0.6199132734195947  1.0000
  C   C140      1.0  0.1797446631238542  0.9256626755800508  0.5976298938919539  1.0000
  C   C141      1.0  0.17141345888273885  0.9515327509546085  0.5788986527607645  1.0000
  C   C142      1.0  0.18538007646988305  0.9792105761921959  0.5823842075124792  1.0000
  C   C143      1.0  0.20809091663215426  0.9808998778977167  0.6040144332161752  1.0000
  C   C144      1.0  0.2163890629362742  0.9550830472714414  0.6227341819108887  1.0000
  H   H93       1.0  0.1683337925669307  0.9043717565031958  0.5956863461950456  1.0000
  H   H94       1.0  0.15328369341300957  0.950210707159022  0.5629444745710228  1.0000
  H   H95       1.0  0.21922157706283987  0.0022250578427387424  0.6064277019027905  1.0000
  H   H96       1.0  0.23410756818268433  0.9564989184153837  0.639259039898875  1.0000
  C   C145      1.0  0.24550404608240095  0.8322370054513909  0.8251496723439449  1.0000
  C   C146      1.0  0.21513047699733892  0.8242972311301966  0.8231391715043188  1.0000
  C   C147      1.0  0.20043880984626822  0.8010981917048317  0.8459397741401136  1.0000
  C   C148      1.0  0.21636408579371036  0.785641304772149  0.8702639995463586  1.0000
  C   C149      1.0  0.2469008512831463  0.7930713589578435  0.8713844509467965  1.0000
  C   C150      1.0  0.2613446741149211  0.8164286229130043  0.849105600546432  1.0000
  H   H97       1.0  0.20315132503925232  0.8356973828086589  0.8037955300723159  1.0000
  H   H98       1.0  0.1770080137687984  0.7948985470926947  0.84444711892427  1.0000
  H   H99       1.0  0.2593323348013912  0.7809721884848381  0.8898897844031977  1.0000
  H   H100      1.0  0.2848781744127786  0.8223120012388335  0.8505464652436457  1.0000
  C   C151      1.0  0.4679465581106233  0.643423719545918  0.08784587934158904  1.0000
  C   C152      1.0  0.457223644947561  0.6441755642498069  0.12202195332901983  1.0000
  C   C153      1.0  0.019907042270592035  0.5471070155841252  0.15497123878706623  1.0000
  C   C154      1.0  0.03629586485975378  0.5732829169490921  0.14100814857364205  1.0000
  C   C155      1.0  0.048383988127168244  0.5759455216440651  0.10683699460742556  1.0000
  C   C156      1.0  0.49886478955000774  0.6478581972035519  0.07754013758248379  1.0000
  H   H101      1.0  0.43326783195029067  0.6412484201462774  0.1299930627904144  1.0000
  H   H102      1.0  0.010061903339382061  0.545109699200356  0.18115021302482573  1.0000
  H   H103      1.0  0.061254084227103704  0.5960309582723735  0.0961573643791831  1.0000
  H   H104      1.0  0.5073083528810379  0.6482398308477703  0.05106947698897657  1.0000
  C   C157      1.0  0.5321611964736521  0.9318360452504092  0.9515372267649486  1.0000
  C   C158      1.0  0.5197010622894908  0.9598721950648107  0.9507603467251257  1.0000
  C   C159      1.0  0.5353609921893479  0.9837942170222084  0.962083415010024  1.0000
  C   C160      1.0  0.5633312744907101  0.9796059725829929  0.9744114074447131  1.0000
  C   C161      1.0  0.576454054918027  0.9519341741942142  0.973628666600504  1.0000
  C   C162      1.0  0.5608719609747578  0.9280042712520383  0.9620745629704348  1.0000
  H   H105      1.0  0.49772250543670177  0.9630143441574613  0.9419985365474876  1.0000
  H   H106      1.0  0.5258017331220123  0.005515781912825535  0.9610056809026922  1.0000
  H   H107      1.0  0.5982807376972352  0.9487661557602084  0.9827679733930914  1.0000
  H   H108      1.0  0.5708712625625397  0.9064889322126286  0.961943529910747  1.0000
  C   C163      1.0  0.544939426540805  0.6687536065433911  0.9272266206324044  1.0000
  C   C164      1.0  0.5602477882861039  0.6909197259917434  0.9420085885912959  1.0000
  C   C165      1.0  0.5531647488971789  0.7208720406129153  0.9358213452229581  1.0000
  C   C166      1.0  0.5315010918701673  0.7288419527600879  0.9139551438527427  1.0000
  C   C167      1.0  0.5165911363313839  0.7067432885487646  0.8986292556245469  1.0000
  C   C168      1.0  0.5229688267875507  0.6766258300007539  0.9056834298809339  1.0000
  H   H109      1.0  0.5772519851418559  0.6847960924223143  0.9586769878193478  1.0000
  H   H110      1.0  0.5648779479515991  0.7377148088671478  0.9475890143563791  1.0000
  H   H111      1.0  0.4998669386100991  0.7127999893670689  0.8815787270455018  1.0000
  H   H112      1.0  0.5112291666946948  0.6594799680570134  0.8940818141103909  1.0000
  C   C169      1.0  0.44719995604241736  0.9990830560534241  0.6310556583790893  1.0000
  C   C170      1.0  0.4277777621538934  0.005358574492195789  0.6060408293470058  1.0000
  C   C171      1.0  0.41507411780593906  0.9820186379465873  0.5904385194024909  1.0000
  C   C172      1.0  0.42205224935751945  0.9524835475129221  0.5996803104077707  1.0000
  C   C173      1.0  0.4426013262691065  0.9464320546120875  0.6235067066975964  1.0000
  C   C174      1.0  0.45528527066595337  0.9697373159667831  0.6390441181627381  1.0000
  H   H113      1.0  0.42139956244014143  0.028066445715153376  0.5999551356828651  1.0000
  H   H114      1.0  0.3985861194247615  0.9867585762546309  0.5727513404546346  1.0000
  H   H115      1.0  0.4484067018136361  0.9236527037525553  0.6303129870251076  1.0000
  H   H116      1.0  0.47120095553784574  0.9649470351189466  0.6573868227940783  1.0000
  C   C175      1.0  0.5488428531908989  0.9207180867284986  0.7655168198195603  1.0000
  C   C176      1.0  0.5670827754679374  0.8969872270669931  0.7734410135713891  1.0000
  C   C177      1.0  0.11921985119713494  0.918503640897862  0.7233687051723198  1.0000
  C   C178      1.0  0.11224283071823492  0.9365007545604119  0.7495813919239324  1.0000
  C   C179      1.0  0.08460827860602044  0.950233052523318  0.7521154206971125  1.0000
  C   C180      1.0  0.5558987794705911  0.9490071542832091  0.7749297300989082  1.0000
  H   H117      1.0  0.5616017490129506  0.8749777134241546  0.7664210786216561  1.0000
  H   H118      1.0  0.14064491927013342  0.908109510709541  0.7209120759218562  1.0000
  H   H119      1.0  0.06920677575736664  0.5224166834585671  0.7744503611132163  1.0000
  H   H120      1.0  0.4985281106773104  0.4859552197809539  0.7417886990294685  1.0000
  C   C181      1.0  0.35970327759085957  0.9793552175705574  0.7860004979827451  1.0000
  C   C182      1.0  0.3316704745868259  0.9650113978299122  0.7974053265150106  1.0000
  C   C183      1.0  0.3068212994095298  0.9704689915150246  0.7791578598532906  1.0000
  C   C184      1.0  0.3097501460616279  0.9908556992401424  0.7499503424635005  1.0000
  C   C185      1.0  0.3375091801922462  0.0062024248952530225  0.7394319135782262  1.0000
  C   C186      1.0  0.362616593401399  0.00010418451421090325  0.757118723525455  1.0000
  H   H121      1.0  0.3426498245401288  0.46754770113105865  0.819586490016378  1.0000
  H   H122      1.0  0.28555615741890966  0.958495146341391  0.7874382743118711  1.0000
  H   H123      1.0  0.33985935084046626  0.022005174549965867  0.716848232911707  1.0000
  H   H124      1.0  0.3841992275862734  0.011343600877362192  0.7482148041127973  1.0000
  C   C187      1.0  0.4427669346343574  0.5475470504186233  0.8199552965796383  1.0000
  C   C188      1.0  0.4628044584004617  0.5612259320796251  0.8392867316454824  1.0000
  C   C189      1.0  0.45485181996919527  0.5631007128708566  0.8740797373046436  1.0000
  C   C190      1.0  0.42653094471666037  0.5519519308843349  0.889340703044332  1.0000
  C   C191      1.0  0.4062342429292869  0.5388954011077046  0.8698274741208963  1.0000
  C   C192      1.0  0.41454499749504947  0.5361322473365422  0.8352980956032873  1.0000
  H   H125      1.0  0.4846040435299055  0.5701605031067639  0.8274015154246548  1.0000
  H   H126      1.0  0.47051424821137666  0.5734361968098757  0.8889545793854842  1.0000
  H   H127      1.0  0.384013648563033  0.5311097340700232  0.8814633936864015  1.0000
  H   H128      1.0  0.39880833011530326  0.5260785552104212  0.8202901229319924  1.0000
  Fe  Fe65      1.0  0.9754889634007955  0.9842367464245826  0.7380257065949024  1.0000
  S   S129      1.0  0.9833540263532878  0.935690061618925  0.7499530064965437  1.0000
  S   S130      1.0  0.9941418646512362  0.01609349089513135  0.7714838152454931  1.0000
  Fe  Fe66      1.0  0.948118173735041  0.9741273220696061  0.6727083818978447  1.0000
  S   S131      1.0  0.9330751653266516  0.4712299810775332  0.7058497776009229  1.0000
  S   S132      1.0  0.9288487106493843  0.9971689653971498  0.6274421318350845  1.0000
  Fe  Fe67      1.0  0.9374999474494438  0.9281714345854327  0.7334535125704029  1.0000
  S   S133      1.0  0.8645306839964602  0.4735783948997013  0.7740150930155248  1.0000
  Fe  Fe68      1.0  0.9724634212667669  0.4779439467635637  0.7351740770868924  1.0000
  S   S134      1.0  0.0031932404757086807  0.4412570963326713  0.7468202780610341  1.0000
  S   S135      1.0  0.9277478491110391  0.9768362065755586  0.726280375078053  1.0000
  S   S136      1.0  0.9949676731273621  0.9868324252333507  0.6835509311023894  1.0000
  Fe  Fe69      1.0  0.0017205601770295953  0.9837085151832087  0.9622941389873796  1.0000
  S   S137      1.0  0.05050760933675358  0.9982436761852294  0.9505076523731801  1.0000
  S   S138      1.0  0.9736837930143863  0.9635235971473413  0.9256567982757589  1.0000
  Fe  Fe70      1.0  0.9999316051653132  0.9969672089580762  0.035744084855684255  1.0000
  S   S139      1.0  0.04862668015090721  0.012574048826003329  0.03058102268891516  1.0000
  S   S140      1.0  0.9733613988074303  0.9936952265625404  0.08697847376194767  1.0000
  Fe  Fe71      1.0  0.038628998243908974  0.03623191156010437  0.98098401867314  1.0000
  S   S141      1.0  0.06149138281661659  0.08077138401595661  0.9614972772476588  1.0000
  Fe  Fe72      1.0  0.0560198732820425  0.9733326202852277  0.0009621458050754761  1.0000
  S   S142      1.0  0.06645839448182378  0.4452825808926374  0.9273066265683269  1.0000
  S   S143      1.0  0.9888485200339332  0.024047418145553227  0.9885544520576185  1.0000
  S   S144      1.0  0.008182839413952037  0.9554640476773425  0.010460753165040249  1.0000
  Fe  Fe73      1.0  0.7107921826294793  0.5043632140424038  0.7672960587366306  1.0000
  S   S145      1.0  0.7271198084415441  0.45822504522747304  0.7635581197156907  1.0000
  S   S146      1.0  0.7455912622627502  0.5422388631940654  0.7608607234331567  1.0000
  Fe  Fe74      1.0  0.6450580241810995  0.48280510356272327  0.7726771393907069  1.0000
  S   S147      1.0  0.6560240885898196  0.43512041767521076  0.7686887601418442  1.0000
  S   S148      1.0  0.5977735185581341  0.49797553154574425  0.7798797197357897  1.0000
  Fe  Fe75      1.0  0.6899215401975453  0.4441662016396729  0.8047584644154738  1.0000
  S   S149      1.0  0.6960075699318111  0.4144359252543329  0.8518786286209561  1.0000
  Fe  Fe76      1.0  0.6920429775179944  0.454295304447499  0.727962624341159  1.0000
  S   S150      1.0  0.7033109217707543  0.4362026095136184  0.677879191921584  1.0000
  S   S151      1.0  0.6764566650583166  0.49078201145910094  0.8117662693663223  1.0000
  S   S152      1.0  0.6779722680387428  0.501404384653003  0.7286837615022949  1.0000
  Fe  Fe77      1.0  0.018075845803411372  0.23283168794337383  0.0026595813301684146  1.0000
  S   S153      1.0  0.5570398416670087  0.3007659013473152  0.984783711857326  1.0000
  S   S154      1.0  0.9889211200179182  0.19386230039745664  0.9923272067067856  1.0000
  Fe  Fe78      1.0  0.014778327024955074  0.29812943242809964  0.011571781278464144  1.0000
  S   S155      1.0  0.5603199286408677  0.3725849847163362  0.9586034570271867  1.0000
  S   S156      1.0  0.9865695133324531  0.33786587725525496  0.004736729699352793  1.0000
  Fe  Fe79      1.0  0.5586666552235754  0.3293847197839598  0.9352894087794014  1.0000
  S   S157      1.0  0.5861486410769954  0.3207683197969067  0.8872291381407829  1.0000
  Fe  Fe80      1.0  0.5531977034870655  0.34385821870422695  0.008425430173639947  1.0000
  S   S158      1.0  0.574757220003056  0.3530240485314092  0.05510473760976087  1.0000
  S   S159      1.0  0.030554364223735808  0.2741366441210291  0.9667795029793046  1.0000
  S   S160      1.0  0.9984788858799648  0.2570790354046185  0.04569512283567678  1.0000
  Fe  Fe81      1.0  0.47879374611218256  0.06498601605987436  0.30969105305984906  1.0000
  S   S161      1.0  0.5217326003104974  0.06766644036686666  0.27487330559514156  1.0000
  S   S162      1.0  0.45338914636940203  0.5226112800159335  0.23114659912042237  1.0000
  Fe  Fe82      1.0  0.4928452327750538  0.12323917583691286  0.33763979269411254  1.0000
  S   S163      1.0  0.5373122343497163  0.13147793962923224  0.30557355412159803  1.0000
  S   S164      1.0  0.47494600941115117  0.15099415865518145  0.3782802903121373  1.0000
  Fe  Fe83      1.0  0.5117507877110576  0.11587172135144075  0.2642081249851644  1.0000
  S   S165      1.0  0.5188492921888657  0.1376866231255234  0.21057694931731702  1.0000
  Fe  Fe84      1.0  0.5434066633931961  0.08266531019785482  0.3192225351388576  1.0000
  S   S166      1.0  0.5866820543284056  0.06261515802109918  0.3321991576461829  1.0000
  S   S167      1.0  0.4665576014910178  0.11196351279587069  0.29512471337390994  1.0000
  S   S168      1.0  0.5012357622709182  0.07570041892382401  0.3550222771113996  1.0000
  Fe  Fe85      1.0  0.6255451204772674  0.5336344738876672  0.4535022143226889  1.0000
  S   S169      1.0  0.6113897136645676  0.4876332546698148  0.4421170649227559  1.0000
  S   S170      1.0  0.6177880271865895  0.5768733685355965  0.42334455196219184  1.0000
  Fe  Fe86      1.0  0.6485649092044701  0.5121058902171135  0.5202112390054827  1.0000
  S   S171      1.0  0.6362769148742772  0.4641814371129549  0.5151980793137099  1.0000
  S   S172      1.0  0.6712044602746886  0.5317987114923207  0.5615537810262863  1.0000
  Fe  Fe87      1.0  0.6554039805316115  0.47466463548193766  0.4608009914413378  1.0000
  S   S173      1.0  0.6859551589939542  0.44109538552183064  0.43945011640270176  1.0000
  Fe  Fe88      1.0  0.5935038852655009  0.481349146786227  0.4973801439540883  1.0000
  S   S174      1.0  0.5483866197818493  0.459519450173677  0.5174595111912397  1.0000
  S   S175      1.0  0.671268320263249  0.521313314882231  0.46718161759577154  1.0000
  S   S176      1.0  0.6040282842226994  0.5283499077895703  0.507259944276563  1.0000
  Fe  Fe89      1.0  0.8604442448929576  0.45385950673824715  0.5102500296913911  1.0000
  S   S177      1.0  0.8774159893730566  0.4899006277763607  0.4689149834081447  1.0000
  S   S178      1.0  0.8418476763671258  0.46495869343813634  0.562020875194072  1.0000
  Fe  Fe90      1.0  0.8682586293842004  0.4047925886578981  0.4635343874271842  1.0000
  S   S179      1.0  0.885387733994153  0.4363637093690714  0.4180543910218104  1.0000
  S   S180      1.0  0.8594422021049254  0.3558182926277086  0.4622055272351963  1.0000
  Fe  Fe91      1.0  0.9123327759942201  0.4575058851592877  0.45481560860296943  1.0000
  S   S181      1.0  0.9601751737270704  0.4716645210650649  0.43598922080480845  1.0000
  Fe  Fe92      1.0  0.8489646253049071  0.46543356595654517  0.4364337983682888  1.0000
  S   S182      1.0  0.8203210859954029  0.49073089363399697  0.40149583838193403  1.0000
  S   S183      1.0  0.8981496418138695  0.4232895492868265  0.4990750811997249  1.0000
  S   S184      1.0  0.8291431939765049  0.43196927304390675  0.47886628861527997  1.0000
  Fe  Fe93      1.0  0.5038667979922805  0.36524092156941745  0.24313216220948236  1.0000
  S   S185      1.0  0.9745996762446482  0.3598272970549326  0.2904291368608999  1.0000
  S   S186      1.0  0.5315015923097389  0.4081817013284754  0.23121278087111435  1.0000
  Fe  Fe94      1.0  0.48749197652940063  0.3112973561210248  0.2941839729291551  1.0000
  S   S187      1.0  0.9863315223168446  0.2911739371828055  0.2727674753564912  1.0000
  S   S188      1.0  0.4960086666356035  0.29083966466651107  0.34590521796430856  1.0000
  Fe  Fe95      1.0  0.004584036876563724  0.33729771017421506  0.2531702638133029  1.0000
  S   S189      1.0  0.008277082114813261  0.35360494950390947  0.19753131399695295  1.0000
  Fe  Fe96      1.0  0.9599708584892807  0.3136592748960157  0.31325924639501596  1.0000
  S   S190      1.0  0.911665649092129  0.30028519997071507  0.33025688770244477  1.0000
  S   S191      1.0  0.5243911355565335  0.32068866897087195  0.25135005373581404  1.0000
  S   S192      1.0  0.4702546821391876  0.3575437586078561  0.2891909587566171  1.0000
  C   C193      1.0  0.8753708214638426  0.3405713797858377  0.42602067408531374  1.0000
  C   C194      1.0  0.8638241648466496  0.31294467584013336  0.4187341746063673  1.0000
  C   C195      1.0  0.8751517141160708  0.3007051580503367  0.389265565608552  1.0000
  C   C196      1.0  0.8988127327634176  0.3155319692593138  0.367583440354011  1.0000
  C   C197      1.0  0.9109344503649889  0.3429269709276471  0.37517002243831454  1.0000
  C   C198      1.0  0.8987672159160052  0.35573908397000414  0.4041034730944803  1.0000
  H   H129      1.0  0.8457687540656178  0.3011278121064725  0.43566630381830695  1.0000
  H   H130      1.0  0.8658046114200326  0.2795173367625551  0.3834390536125716  1.0000
  H   H131      1.0  0.9290807809886602  0.35451585013713466  0.35823607832627974  1.0000
  H   H132      1.0  0.9076479789679901  0.37711593383603953  0.40958115321946365  1.0000
  C   C199      1.0  0.5231469684000403  0.46483763289147184  0.48656662651802807  1.0000
  C   C200      1.0  0.5289809278695246  0.48735174460813024  0.45952466711069523  1.0000
  C   C201      1.0  0.5089645708813862  0.4909781217467217  0.4345428398821756  1.0000
  C   C202      1.0  0.9857867525661572  0.46499112152620714  0.4661237964450345  1.0000
  C   C203      1.0  0.47687884029743277  0.45016429924275625  0.4641449215970609  1.0000
  C   C204      1.0  0.4969902932776792  0.4463621887332089  0.48890825279406636  1.0000
  H   H133      1.0  0.5486893059781508  0.5022775243209899  0.4580870402202934  1.0000
  H   H134      1.0  0.024164412641444644  0.4698186507601411  0.4282303219300573  1.0000
  H   H135      1.0  0.9522235495818401  0.4586239858182767  0.5095345814188019  1.0000
  H   H136      1.0  0.4924789556077514  0.42869361801890743  0.5094616439636482  1.0000
  C   C205      1.0  0.7229427503218856  0.4550679224049438  0.4268849337092509  1.0000
  C   C206      1.0  0.7291394206220231  0.4851806508780626  0.4150335925273691  1.0000
  C   C207      1.0  0.7591029816957  0.49602671462640957  0.40619152728201197  1.0000
  C   C208      1.0  0.7828218011543104  0.47687922491262136  0.409909005445003  1.0000
  C   C209      1.0  0.7765310046787375  0.4467825075956254  0.42153626427978924  1.0000
  C   C210      1.0  0.7466531960632724  0.435802527667421  0.4296658143051019  1.0000
  H   H137      1.0  0.7108384499035619  0.49997303987787667  0.4120838077967961  1.0000
  H   H138      1.0  0.7638783562858863  0.519317937669752  0.3970303270122257  1.0000
  H   H139      1.0  0.7947002787834008  0.43187364951377966  0.4239183363012628  1.0000
  H   H140      1.0  0.7418601657086531  0.41248879093464813  0.4387554779383408  1.0000
  C   C211      1.0  0.4748256867965614  0.4905367758363825  0.2301716309872771  1.0000
  C   C212      1.0  0.4604714169503588  0.462036689762868  0.23345095145585187  1.0000
  C   C213      1.0  0.47765089812001843  0.4364416339863785  0.23350203172950315  1.0000
  C   C214      1.0  0.5092091307563006  0.439420451945892  0.22956676220807623  1.0000
  C   C215      1.0  0.5234424257404535  0.46784299971321225  0.22511480481016002  1.0000
  C   C216      1.0  0.506338032137509  0.4932252400037431  0.22594088807371607  1.0000
  H   H141      1.0  0.43607611758804443  0.45966441575950157  0.23672307765472592  1.0000
  H   H142      1.0  0.46642755068863806  0.4144841870963252  0.2368892247098869  1.0000
  H   H143      1.0  0.5478279092429158  0.4702240306115534  0.22172132778265766  1.0000
  H   H144      1.0  0.517785474413568  0.5147306759984694  0.22352017736918306  1.0000
  C   C217      1.0  0.48126674578431605  0.1896674841327878  0.3680769314475627  1.0000
  C   C218      1.0  0.48628776558843523  0.20746594106743246  0.3940427119357341  1.0000
  C   C219      1.0  0.4913518069661318  0.2383920727416793  0.38675334784389437  1.0000
  C   C220      1.0  0.4904106371501509  0.2518719862975982  0.35365930663650424  1.0000
  C   C221      1.0  0.4847744180134162  0.234221178238868  0.32767530405593204  1.0000
  C   C222      1.0  0.4806306130252783  0.20299596230056757  0.33478154351734957  1.0000
  H   H145      1.0  0.4868368775399696  0.19722880197430148  0.4197734049531221  1.0000
  H   H146      1.0  0.49595976639102196  0.2518738883957258  0.4068794461930102  1.0000
  H   H147      1.0  0.4837206255159279  0.24461420884165042  0.30218339022651725  1.0000
  H   H148      1.0  0.4762352442670571  0.18928943990655916  0.31479098780733183  1.0000
  C   C223      1.0  0.607256223943566  0.570432498483818  0.3833051525572286  1.0000
  C   C224      1.0  0.6211235268822246  0.0465339015583243  0.422055444354307  1.0000
  C   C225      1.0  0.617185762184755  0.048541578989225065  0.3873656382266719  1.0000
  C   C226      1.0  0.5925201652133156  0.06291762383985543  0.37529842319809575  1.0000
  C   C227      1.0  0.6096962127339872  0.5411828678243792  0.3350836482517759  1.0000
  C   C228      1.0  0.6177923495667855  0.5458994385369853  0.36738628313942584  1.0000
  H   H149      1.0  0.6401696877956565  0.03523804431582587  0.43115683263394206  1.0000
  H   H150      1.0  0.6333753993627863  0.03904065707776208  0.369880737097496  1.0000
  H   H151      1.0  0.6182234825775066  0.5224236874937963  0.3226323829530602  1.0000
  H   H152      1.0  0.6327006710133128  0.5309102566282663  0.3796575961124835  1.0000
  C   C229      1.0  0.5566286890619989  0.32949594458379916  0.08946382137801022  1.0000
  C   C230      1.0  0.02472856264301515  0.29935070658497265  0.12321462938049885  1.0000
  C   C231      1.0  0.014572987323726139  0.3228734413105318  0.14135795920915217  1.0000
  C   C232      1.0  0.021546143926234995  0.32449344550306425  0.17468278077845756  1.0000
  C   C233      1.0  0.5426786338772253  0.3184564393422273  0.1502417443190759  1.0000
  C   C234      1.0  0.5599396168401589  0.33528131948175405  0.12288757501395908  1.0000
  H   H153      1.0  0.018642575220817026  0.2978604820874832  0.09777917501715105  1.0000
  H   H154      1.0  0.0005081879925621369  0.33919132356376386  0.12992135572407512  1.0000
  H   H155      1.0  0.5447837349398182  0.32348040645108145  0.17596391607722692  1.0000
  H   H156      1.0  0.5751744920517121  0.35331809581639134  0.12754887116990682  1.0000
  C   C235      1.0  0.6949255898480269  0.4627451890560661  0.6454570545932572  1.0000
  C   C236      1.0  0.6773183087391615  0.4541620923929171  0.6206317128710918  1.0000
  C   C237      1.0  0.6695179377780073  0.4754472292718605  0.5952756655272697  1.0000
  C   C238      1.0  0.6800624757604702  0.5051729385724982  0.5939233671128683  1.0000
  C   C239      1.0  0.6978397542573397  0.5137751382751423  0.6186908518899134  1.0000
  C   C240      1.0  0.7052138631224376  0.49258409827434524  0.6445128129727935  1.0000
  H   H157      1.0  0.6690346608208586  0.43115935684712653  0.6215509568702283  1.0000
  H   H158      1.0  0.6550315431361895  0.4687411827607803  0.5771333130510062  1.0000
  H   H159      1.0  0.7059687761596468  0.5367937779940946  0.6179599471802365  1.0000
  H   H160      1.0  0.7189568277339444  0.499337034825802  0.6636093345377053  1.0000
  C   C241      1.0  0.6663828612887307  0.3874233860777777  0.8617448440863649  1.0000
  C   C242      1.0  0.6538812772293757  0.37385949060383594  0.8358897541008211  1.0000
  C   C243      1.0  0.6296019755818912  0.3528714350671709  0.8439381866369647  1.0000
  C   C244      1.0  0.6174823639557491  0.3458221718059072  0.8777876348981174  1.0000
  C   C245      1.0  0.6299191428222293  0.35938738856430585  0.9036774288617815  1.0000
  C   C246      1.0  0.6545967667379622  0.37994383310385854  0.8956724251229804  1.0000
  H   H161      1.0  0.6633369990031555  0.3790835629151677  0.8097496927667566  1.0000
  H   H162      1.0  0.6200413810455777  0.34235522611567737  0.8238782321223103  1.0000
  H   H163      1.0  0.6208941867991808  0.3537140672065163  0.9299232255013115  1.0000
  H   H164      1.0  0.6643306315840842  0.39034828824356094  0.9157131073005735  1.0000
  C   C247      1.0  0.9825436507281368  0.026055809120123508  0.10542725817643049  1.0000
  C   C248      1.0  0.9864256687521853  0.024205664397489505  0.13998472076906884  1.0000
  C   C249      1.0  0.4861195161453465  0.08871942434306697  0.19610649554393325  1.0000
  C   C250      1.0  0.5067610449426955  0.11231943398655836  0.18348596846625112  1.0000
  C   C251      1.0  0.5177103506932863  0.11574376497574575  0.14901717282122218  1.0000
  C   C252      1.0  0.9867206167303924  0.05364105335673398  0.08561587793643022  1.0000
  H   H165      1.0  0.9841707580954363  0.002889630506929697  0.1551347558286227  1.0000
  H   H166      1.0  0.4770908656745092  0.0863164260985303  0.22259561867190628  1.0000
  H   H167      1.0  0.5339053255121549  0.13374614455918227  0.13919038983010656  1.0000
  H   H168      1.0  0.983570417921408  0.0551668179605288  0.05887363598281681  1.0000
  C   C253      1.0  0.007894168198773643  0.3661388671027074  0.9788029462658044  1.0000
  C   C254      1.0  0.9946330477348575  0.3928357493407951  0.9689943437329324  1.0000
  C   C255      1.0  0.012456547285568664  0.4168520821714609  0.9515485585319794  1.0000
  C   C256      1.0  0.043481066863641615  0.4141327874932555  0.9441044950469512  1.0000
  C   C257      1.0  0.056409863196810406  0.3868559980397748  0.9519629358121703  1.0000
  C   C258      1.0  0.038569770087325095  0.36281208115815894  0.9692922903023552  1.0000
  H   H169      1.0  0.970784425807622  0.39523398772716395  0.9758012134883475  1.0000
  H   H170      1.0  0.0022520213512322584  0.43760273635150065  0.9443414666833667  1.0000
  H   H171      1.0  0.0803599541029627  0.38453832375203184  0.9456738560911446  1.0000
  H   H172      1.0  0.048784415509307344  0.34194834813467007  0.9757869991126897  1.0000
  C   C259      1.0  0.041309514568587336  0.11196393940698467  0.9709158241734795  1.0000
  C   C260      1.0  0.054741249182991725  0.1405432155838774  0.9614201306922047  1.0000
  C   C261      1.0  0.03888093304652407  0.1658881054266916  0.9684299689218884  1.0000
  C   C262      1.0  0.009180879601031089  0.16260534277673003  0.9837564821714354  1.0000
  C   C263      1.0  0.9955375022426592  0.13405298312046318  0.9926696084058297  1.0000
  C   C264      1.0  0.011828484656407401  0.10870575906555648  0.9869211684539291  1.0000
  H   H173      1.0  0.07753228403145429  0.14309895302359185  0.9488758748992158  1.0000
  H   H174      1.0  0.04937406955687473  0.18797988403572663  0.9613575686243342  1.0000
  H   H175      1.0  0.9726222273505494  0.13156663309560082  0.004874291137246356  1.0000
  H   H176      1.0  0.0015061761043948518  0.08675132582626112  0.9948613505631269  1.0000
  C   C265      1.0  0.9194065319096205  0.5092772913637368  0.6079734239167687  1.0000
  C   C266      1.0  0.8907015494051631  0.5059990288271804  0.6261791742590003  1.0000
  C   C267      1.0  0.8665972728881562  0.4928303347925122  0.6118802988152812  1.0000
  C   C268      1.0  0.871434620618636  0.48223567748163637  0.5798711023446153  1.0000
  C   C269      1.0  0.9001578030568504  0.48536243804419965  0.5619290774472324  1.0000
  C   C270      1.0  0.9240293950742879  0.49891610059746383  0.5758986515217344  1.0000
  H   H177      1.0  0.8869934128966421  0.5142335011835965  0.6508812343481282  1.0000
  H   H178      1.0  0.8442708277677328  0.4912623673665634  0.6253868613499636  1.0000
  H   H179      1.0  0.9040835056325707  0.4772559280416376  0.5372731559178714  1.0000
  H   H180      1.0  0.9461868600564026  0.5006640638615912  0.5621183497764454  1.0000
  C   C271      1.0  0.03465179171484034  0.45601235401536694  0.7631948295391874  1.0000
  C   C272      1.0  0.05717667022791151  0.43702724588199127  0.7719845389726563  1.0000
  C   C273      1.0  0.5767397868936216  0.45207518174268324  0.7461668325698615  1.0000
  C   C274      1.0  0.5704236733188212  0.47841461164614424  0.7609681302733576  1.0000
  C   C275      1.0  0.5419450498783298  0.49013764701352186  0.7598497249453663  1.0000
  C   C276      1.0  0.03827995218524349  0.48670053771503874  0.7658083811553941  1.0000
  H   H181      1.0  0.05451436339358051  0.4133799745190897  0.7698679065645585  1.0000
  H   H182      1.0  0.5986016522494335  0.44278996625503564  0.74697760955056  1.0000
  H   H183      1.0  0.5870672609353419  0.9758845871078257  0.7979898685475934  1.0000
  H   H184      1.0  0.04309585038002872  0.9572893465221634  0.7301156263428308  1.0000
  C   C277      1.0  0.8325945746832396  0.4947670818211525  0.7717712752171108  1.0000
  C   C278      1.0  0.8329371730782699  0.5210268617777354  0.749736952720681  1.0000
  C   C279      1.0  0.806501908143884  0.5368079413182062  0.7476722439600026  1.0000
  C   C280      1.0  0.7798396912839161  0.5261751069644143  0.7675611129262885  1.0000
  C   C281      1.0  0.7799728965184278  0.5006482787690486  0.7905502849153603  1.0000
  C   C282      1.0  0.8061905957333801  0.48476861645288943  0.792362844847232  1.0000
  H   H185      1.0  0.8842268228446747  0.9497679311745756  0.7800932731875607  1.0000
  H   H186      1.0  0.8063708447341168  0.5565055785214391  0.7297388303737591  1.0000
  H   H187      1.0  0.759600277462367  0.4928051735764976  0.806606242293975  1.0000
  H   H188      1.0  0.8058655540514154  0.46455169531559354  0.8096059202883411  1.0000
  C   C283      1.0  0.9893995725373649  0.0005115381959353002  0.8139446822684963  1.0000
  C   C284      1.0  0.008756283719179025  0.009810133186965109  0.8368607972134532  1.0000
  C   C285      1.0  0.004390880619551396  0.9982811975525738  0.8712311022467792  1.0000
  C   C286      1.0  0.98056122853945  0.9775213169123628  0.8826793352154553  1.0000
  C   C287      1.0  0.9616895435983062  0.9677017970597737  0.8595314811659078  1.0000
  C   C288      1.0  0.9661455502046415  0.9791030523926816  0.8251727841681697  1.0000
  H   H189      1.0  0.027195018916865044  0.025803153331167117  0.8278849228569904  1.0000
  H   H190      1.0  0.019407140304628978  0.005422519770245985  0.8888249833448547  1.0000
  H   H191      1.0  0.9433058594489101  0.951549500000253  0.8682919283108456  1.0000
  H   H192      1.0  0.9511181656671063  0.9718514195652228  0.8075559022182253  1.0000
  Fe  Fe97      1.0  0.9579155212860465  0.5408806423340796  0.7480182468282461  1.0000
  S   S193      1.0  0.9461241567368402  0.49681566196667865  0.7781667880055161  1.0000
  S   S194      1.0  0.970638791258361  0.5803410218234553  0.7748710499219674  1.0000
  Fe  Fe98      1.0  0.9458773991396041  0.5175594423822498  0.6813922748015423  1.0000
  S   S195      1.0  0.954775076566216  0.9249423326475618  0.6788894214108183  1.0000
  S   S196      1.0  0.9496179946880131  0.5267583009779095  0.624511620885699  1.0000
  Fe  Fe99      1.0  0.907684649768234  0.49428868198902187  0.7464407588628819  1.0000
  S   S197      1.0  0.9042174025535122  0.8930608284633024  0.7606427669404213  1.0000
  Fe  Fe100     1.0  0.9997887583729376  0.937833650298191  0.6945970178438691  1.0000
  S   S198      1.0  0.04340047015623827  0.9191466333225263  0.6757762743548628  1.0000
  S   S199      1.0  0.9168541299939944  0.5404672484619067  0.7196164441709341  1.0000
  S   S200      1.0  0.9879340412016255  0.5223615884088182  0.7071631292524602  1.0000
  Fe  Fe101     1.0  0.005591309355854834  0.5338027701157254  0.955358463054892  1.0000
  S   S201      1.0  0.04786381209669566  0.5287719002349277  0.9213616631061218  1.0000
  S   S202      1.0  0.9654398596116884  0.5546004560850886  0.934584653841465  1.0000
  Fe  Fe102     1.0  0.03213366197268841  0.5094445269237675  0.01962157482934157  1.0000
  S   S203      1.0  0.07680932081336467  0.5021029352409803  0.991045742253707  1.0000
  S   S204      1.0  0.02305324640875117  0.49614438311680154  0.07623520550842544  1.0000
  Fe  Fe103     1.0  0.07108099004229307  0.5466116631665188  0.9628216026695072  1.0000
  S   S205      1.0  0.1099534438958476  0.5793123027053287  0.9472943915847681  1.0000
  Fe  Fe104     1.0  0.049644879211629744  0.48479376013550946  0.9522100342960214  1.0000
  S   S206      1.0  0.09294711328910488  0.9418102245101745  0.008415904820559872  1.0000
  S   S207      1.0  0.02867855667461816  0.5559031034072381  0.994666379252348  1.0000
  S   S208      1.0  0.005058680060703535  0.4878884339296  0.9831296666638976  1.0000
  Fe  Fe105     1.0  0.7356556365898602  0.9150732233637888  0.7756434942059415  1.0000
  S   S209      1.0  0.7358833593554389  0.8681418711002663  0.7611714034257098  1.0000
  S   S210      1.0  0.7758246393033628  0.9472706465230685  0.7717932625545844  1.0000
  Fe  Fe106     1.0  0.6689116164252168  0.9102378608061428  0.8005804055532136  1.0000
  S   S211      1.0  0.6633797038455777  0.8629474649583527  0.7884675037821344  1.0000
  S   S212      1.0  0.6311139982315738  0.9366871078532855  0.8212734246877987  1.0000
  Fe  Fe107     1.0  0.7070167803620842  0.8570309560155092  0.810723334218821  1.0000
  S   S213      1.0  0.7146760451804267  0.8183697481479714  0.8482157215877284  1.0000
  Fe  Fe108     1.0  0.6923766911845237  0.8790389648512972  0.7402522076514148  1.0000
  S   S214      1.0  0.6794439066719312  0.865816986116694  0.6906252401863329  1.0000
  S   S215      1.0  0.7102986699621986  0.903081842321462  0.8270085966251535  1.0000
  S   S216      1.0  0.6943420251063774  0.9270376970245888  0.7505634567130579  1.0000
  Fe  Fe109     1.0  0.08667719604768287  0.7364241507336435  0.9158932153728325  1.0000
  S   S217      1.0  0.5567454608666866  0.7814908912210639  0.9923847134414074  1.0000
  S   S218      1.0  0.057322520892573614  0.70130068629259  0.8974930888770489  1.0000
  Fe  Fe110     1.0  0.09792197603022479  0.8020960323685608  0.9203272993392594  1.0000
  S   S219      1.0  0.551686316634546  0.8517001536907867  0.009167106368933142  1.0000
  S   S220      1.0  0.08067770301853416  0.8468788457869537  0.9038738545206132  1.0000
  Fe  Fe111     1.0  0.5840576194360152  0.8246543316170529  0.9793386616990474  1.0000
  S   S221      1.0  0.6331364227065619  0.8236210961404523  0.9865972194967908  1.0000
  Fe  Fe112     1.0  0.5227515422769031  0.8092632832312232  0.018467560853161258  1.0000
  S   S222      1.0  0.49591553919263653  0.7911988347553991  0.06800918810382628  1.0000
  S   S223      1.0  0.11434058796459468  0.7718178344855509  0.8815039416454467  1.0000
  S   S224      1.0  0.06660830001791673  0.767619670431261  0.9516934737500782  1.0000
  Fe  Fe113     1.0  0.4805924828336542  0.5632681992077502  0.24098192112138134  1.0000
  S   S225      1.0  0.5268896442153798  0.573575964493213  0.2144841486058714  1.0000
  S   S226      1.0  0.4454359589021072  0.02599526647758066  0.3140468942675154  1.0000
  Fe  Fe114     1.0  0.4851661713403322  0.6149756581626316  0.2839558097261606  1.0000
  S   S227      1.0  0.5328352831784411  0.6280333052315438  0.26239736077360315  1.0000
  S   S228      1.0  0.45851018835596663  0.6430082246486611  0.31875121086737424  1.0000
  Fe  Fe115     1.0  0.515768267796853  0.6214043815717972  0.21273373536962134  1.0000
  S   S229      1.0  0.5341241259013839  0.6515901319513595  0.16654912630295074  1.0000
  Fe  Fe116     1.0  0.5394775330550375  0.5788093935859961  0.2665664762600825  1.0000
  S   S230      1.0  0.5803580823823906  0.5542382883618355  0.27889597127101096  1.0000
  S   S231      1.0  0.4675247779979609  0.6109465039784391  0.23367649039009358  1.0000
  S   S232      1.0  0.49354134063807653  0.5661245392458643  0.2935384708164897  1.0000
  Fe  Fe117     1.0  0.6296715038092634  0.013732453070724127  0.4993193627348446  1.0000
  S   S233      1.0  0.614535777065229  0.976626015289397  0.4710689030731271  1.0000
  S   S234      1.0  0.6047388653098792  0.05531160355402198  0.48851579127940536  1.0000
  Fe  Fe118     1.0  0.6706250679988264  0.9743019460531543  0.5380550788028314  1.0000
  S   S235      1.0  0.6581865707108802  0.9335434735524172  0.5133404233952827  1.0000
  S   S236      1.0  0.704097783508348  0.9739517320769704  0.576706194877061  1.0000
  Fe  Fe119     1.0  0.6629073089016044  0.9649276961206152  0.4655643823301666  1.0000
  S   S237      1.0  0.6852019472074432  0.9481846203757354  0.41820564704574437  1.0000
  Fe  Fe120     1.0  0.6109773224997319  0.9488530342813168  0.5210383764704474  1.0000
  S   S238      1.0  0.5685913642080709  0.9209013303482025  0.5392264208407996  1.0000
  S   S239      1.0  0.678883134430471  0.00487717730345838  0.48941846875981504  1.0000
  S   S240      1.0  0.6228457163430371  0.9868630201714154  0.55026575546214  1.0000
  Fe  Fe121     1.0  0.8728012333369726  0.9297484477433344  0.47905269425197516  1.0000
  S   S241      1.0  0.8797524485937679  0.9766876014329057  0.45478864765421395  1.0000
  S   S242      1.0  0.8589451283522866  0.9183571648025148  0.5350104957513011  1.0000
  Fe  Fe122     1.0  0.8895427185995088  0.9038121501155005  0.4124467027306873  1.0000
  S   S243      1.0  0.8978399328565128  0.9488686271172341  0.38236590433612017  1.0000
  S   S244      1.0  0.8982873961566927  0.8593733218160099  0.39283643050560235  1.0000
  Fe  Fe123     1.0  0.9212175064772936  0.9609023435383859  0.4267930261058287  1.0000
  S   S245      1.0  0.9625613143968486  0.9918271352987078  0.41986187976752043  1.0000
  Fe  Fe124     1.0  0.8555417305040701  0.9605504485109176  0.4130009958048384  1.0000
  S   S246      1.0  0.8225041502839803  0.9930013971042737  0.3940294315868185  1.0000
  S   S247      1.0  0.9164015085507721  0.91502993152323  0.45468876173177303  1.0000
  S   S248      1.0  0.8450537790819498  0.9144503391429704  0.4394627503444598  1.0000
  Fe  Fe125     1.0  0.49520016914300663  0.8761450220381394  0.30381246032733383  1.0000
  S   S249      1.0  0.9705379600071046  0.8441540720090801  0.16886007424148203  1.0000
  S   S250      1.0  0.5173251019404004  0.9091768060409593  0.3334222415667341  1.0000
  Fe  Fe126     1.0  0.49543771290644395  0.8125471161634561  0.28449153755298817  1.0000
  S   S251      1.0  0.9568615474940861  0.7822986130372673  0.22037124288695045  1.0000
  S   S252      1.0  0.5226136663731737  0.7716747530957583  0.2897289881584334  1.0000
  Fe  Fe127     1.0  0.9853749009402001  0.7971275776559447  0.1712100770771152  1.0000
  S   S253      1.0  0.9833622939268221  0.7714843472912465  0.12565951132384257  1.0000
  Fe  Fe128     1.0  0.9459795862406661  0.8306206340974981  0.22022732981346513  1.0000
  S   S254      1.0  0.9029411126109923  0.852630417672893  0.23446112362560914  1.0000
  S   S255      1.0  0.5229137715320367  0.8542675998061989  0.26415996821547316  1.0000
  S   S256      1.0  0.4708843030635768  0.8336022937070509  0.3275109527340459  1.0000
  C   C289      1.0  0.8972663696455867  0.8575439673128865  0.3490080881206509  1.0000
  C   C290      1.0  0.9065263011053415  0.8316284631207822  0.3349751754061139  1.0000
  C   C291      1.0  0.9083830683089709  0.8302251022905774  0.29977924332876277  1.0000
  C   C292      1.0  0.8994767785061032  0.8541908090393997  0.2785974457482163  1.0000
  C   C293      1.0  0.8888503067058559  0.8796546995333776  0.2926799415059625  1.0000
  C   C294      1.0  0.888176045497501  0.8815225304630012  0.3278714193669244  1.0000
  H   H193      1.0  0.9125397714347232  0.8126730925628278  0.35129544308017513  1.0000
  H   H194      1.0  0.9162084162051245  0.810375300912982  0.2890337824153607  1.0000
  H   H195      1.0  0.881737491311327  0.8981512550242146  0.2763799718829854  1.0000
  H   H196      1.0  0.8804942783095265  0.9013885947239693  0.3386082328294255  1.0000
  C   C295      1.0  0.541937361393975  0.9272794028366639  0.5099921348839241  1.0000
  C   C296      1.0  0.5512676436148386  0.933266191219022  0.47519681265603286  1.0000
  C   C297      1.0  0.5306600412727076  0.942857813579625  0.452514499476231  1.0000
  C   C298      1.0  0.9944072368212843  0.9761760484008344  0.43545487072665895  1.0000
  C   C299      1.0  0.49061822318561  0.9376244276406173  0.49889541798391174  1.0000
  C   C300      1.0  0.5113894441382459  0.9286056697015357  0.5216747879906194  1.0000
  H   H197      1.0  0.5743961568377826  0.9303598005206221  0.46573803271991104  1.0000
  H   H198      1.0  0.017881535794583403  0.018909676865152658  0.43504243167897444  1.0000
  H   H199      1.0  0.9777245645246402  0.9305791795805106  0.43695462436797283  1.0000
  H   H200      1.0  0.5039292515022702  0.9236601941413797  0.5485122948955466  1.0000
  C   C301      1.0  0.7233074635800152  0.9606055105222774  0.4108170038317689  1.0000
  C   C302      1.0  0.7314895682059986  0.9907935949929678  0.41148530387128024  1.0000
  C   C303      1.0  0.7619815397242733  0.0005824267805545347  0.40576757131388363  1.0000
  C   C304      1.0  0.7844640831034809  0.9801373217672742  0.4003108165139035  1.0000
  C   C305      1.0  0.7763393462993319  0.9498414786785067  0.40023471746709405  1.0000
  C   C306      1.0  0.7457440901708506  0.9401615178383494  0.4049556396771714  1.0000
  H   H201      1.0  0.7142831447713612  0.0067164260613366  0.41585501587979723  1.0000
  H   H202      1.0  0.7681678267366941  0.024034703734469254  0.4058361229475306  1.0000
  H   H203      1.0  0.793573496090129  0.93399233090172  0.39568405352568453  1.0000
  H   H204      1.0  0.7394981883693331  0.9167860598707255  0.40441437307502603  1.0000
  C   C307      1.0  0.464305762148107  0.9934104622882656  0.32416267769343327  1.0000
  C   C308      1.0  0.4948152727987979  0.9952090296720383  0.3293820833423071  1.0000
  C   C309      1.0  0.5106680460509633  0.9691357380695313  0.33423401542095893  1.0000
  C   C310      1.0  0.496135245123168  0.9412155754485388  0.33355758014827724  1.0000
  C   C311      1.0  0.4652802929770093  0.939365242932024  0.3298624886618103  1.0000
  C   C312      1.0  0.4493510010293377  0.965461629287321  0.3251703165819731  1.0000
  H   H205      1.0  0.5064993958064992  0.01666740871577299  0.3290004884010243  1.0000
  H   H206      1.0  0.5344312298770676  0.9708104422500415  0.33703189382656723  1.0000
  H   H207      1.0  0.45370242818489287  0.917845182667506  0.3303622807723474  1.0000
  H   H208      1.0  0.425696430616553  0.9639977481275374  0.32148082207147455  1.0000
  C   C313      1.0  0.4754880072105065  0.679261284246541  0.3137850900442104  1.0000
  C   C314      1.0  0.5068693544172849  0.6829733656418312  0.31152045507075343  1.0000
  C   C315      1.0  0.5209021605087137  0.7115284298032817  0.304720806386043  1.0000
  C   C316      1.0  0.5036542397551025  0.73667963369995  0.30050136595586013  1.0000
  C   C317      1.0  0.4721342609756717  0.7332599857675813  0.3036581037147045  1.0000
  C   C318      1.0  0.45803623504384716  0.7044835685940277  0.3104257469652046  1.0000
  H   H209      1.0  0.5203795964541645  0.6638162978563956  0.3156871505296743  1.0000
  H   H210      1.0  0.5452465757696927  0.7141301312198118  0.3027927028643988  1.0000
  H   H211      1.0  0.45867370312008826  0.7526587448540917  0.3005603203110794  1.0000
  H   H212      1.0  0.4337037587345384  0.7017329766688194  0.312343543802693  1.0000
  C   C319      1.0  0.6008239475930549  0.05959449737635647  0.4447654050773632  1.0000
  C   C320      1.0  0.5883088898473748  0.5900139932692339  0.3670938015507877  1.0000
  C   C321      1.0  0.5795482715530488  0.5848405155774975  0.33518316683575466  1.0000
  C   C322      1.0  0.5904804180442006  0.5605737713526078  0.31907888083275365  1.0000
  C   C323      1.0  0.5726002873518734  0.07664337403360433  0.3978530379780087  1.0000
  C   C324      1.0  0.5768649461751142  0.07514775727132417  0.43254250016285145  1.0000
  H   H213      1.0  0.5800394525853995  0.6089346007765394  0.3794392825016951  1.0000
  H   H214      1.0  0.5646035168319944  0.5998248477287755  0.32299213876107696  1.0000
  H   H215      1.0  0.5540742749677288  0.08862946069425504  0.38859748935688093  1.0000
  H   H216      1.0  0.5614331082242371  0.08576057042921303  0.4498831391633664  1.0000
  C   C325      1.0  0.497776137487048  0.8153771375121549  0.09997906074562686  1.0000
  C   C326      1.0  0.04367404363108607  0.7549170665637609  0.047600379371308676  1.0000
  C   C327      1.0  0.01682505158775016  0.7596898813253964  0.06755772071935273  1.0000
  C   C328      1.0  0.017431032762865506  0.7661472873631145  0.10124926016871864  1.0000
  C   C329      1.0  0.5219854351073782  0.8571259584622642  0.12259779490090922  1.0000
  C   C330      1.0  0.5215499555283004  0.8367510848902973  0.09816129476700103  1.0000
  H   H217      1.0  0.042936567962432726  0.7499315818007399  0.0216671588762416  1.0000
  H   H218      1.0  0.9955333631029799  0.7585263999861946  0.05677686125468794  1.0000
  H   H219      1.0  0.5404722331201242  0.8735900234254277  0.12101102825203408  1.0000
  H   H220      1.0  0.5399377955550518  0.8372854431056964  0.07828864211595764  1.0000
  C   C331      1.0  0.688940476563189  0.8943508672621954  0.6576175264687982  1.0000
  C   C332      1.0  0.6746565055939021  0.8944420071319432  0.6278912120591742  1.0000
  C   C333      1.0  0.6795370529731979  0.9186930657159367  0.6027284323223512  1.0000
  C   C334      1.0  0.69918081171511  0.9426265745531834  0.6069194526831434  1.0000
  C   C335      1.0  0.7144968519422155  0.9419406765841007  0.6359941549065099  1.0000
  C   C336      1.0  0.7093115532000639  0.9178491746071296  0.6614000328592101  1.0000
  H   H221      1.0  0.6591414871016646  0.8761194130408181  0.6247689525788046  1.0000
  H   H222      1.0  0.6676284634912554  0.9189803641491227  0.5804929798442755  1.0000
  H   H223      1.0  0.7297427713611698  0.960400425392982  0.6392783631998749  1.0000
  H   H224      1.0  0.7210114074047704  0.9174892606266528  0.6839152842827382  1.0000
  C   C337      1.0  0.6926347706653099  0.8211486857364447  0.8867809614862114  1.0000
  C   C338      1.0  0.6691215375575323  0.8408970477556753  0.8885715146996005  1.0000
  C   C339      1.0  0.6507110327363124  0.8418428745365157  0.9192522290430192  1.0000
  C   C340      1.0  0.6563865550217105  0.8236558392818776  0.948342478134615  1.0000
  C   C341      1.0  0.680465980902973  0.8045996062618527  0.9467181845232268  1.0000
  C   C342      1.0  0.6982867946117377  0.8030163910231752  0.9158551753700576  1.0000
  H   H225      1.0  0.6647219419303242  0.8551314205028258  0.8662569677199168  1.0000
  H   H226      1.0  0.6324143821121121  0.8569469678503744  0.920550035138887  1.0000
  H   H227      1.0  0.6848661834862921  0.790538823023186  0.9692145908077441  1.0000
  H   H228      1.0  0.7164504391949935  0.7877482633748396  0.9145814485504078  1.0000
  C   C343      1.0  0.027989469627870633  0.5261992505683404  0.10069827432617676  1.0000
  C   C344      1.0  0.01568423838609534  0.5236936923175344  0.13480814054607626  1.0000
  C   C345      1.0  0.4775382759625988  0.6474405793765087  0.14616949343242613  1.0000
  C   C346      1.0  0.5085414148534632  0.6505523237712565  0.1360794184107626  1.0000
  C   C347      1.0  0.5191496845018272  0.6516575545964975  0.10163625697288267  1.0000
  C   C348      1.0  0.04436372712427161  0.5524075374614779  0.0867244847395161  1.0000
  H   H229      1.0  0.0023329978624746506  0.5039081709420365  0.14544637522387915  1.0000
  H   H230      1.0  0.46908902782772993  0.6476394289529517  0.17253221878063799  1.0000
  H   H231      1.0  0.5431053913860133  0.6544320586866541  0.09365407381668445  1.0000
  H   H232      1.0  0.05432255350459614  0.5543464144798886  0.06060751192072855  1.0000
  C   C349      1.0  0.08352546878868439  0.8722629224533903  0.9341995052254757  1.0000
  C   C350      1.0  0.06489382628449114  0.8965006074203069  0.9341113255642406  1.0000
  C   C351      1.0  0.0677617700869384  0.9177301473669978  0.9570549553947243  1.0000
  C   C352      1.0  0.08978584573854187  0.9153040326596721  0.9796320659027037  1.0000
  C   C353      1.0  0.10852077411336136  0.8911401310179005  0.9798309264052102  1.0000
  C   C354      1.0  0.10508140849137293  0.8694203340654528  0.9574279949798216  1.0000
  H   H233      1.0  0.04788050513338482  0.8988636089364762  0.9167301197190177  1.0000
  H   H234      1.0  0.0527554795725933  0.935916135147452  0.9571592325007607  1.0000
  H   H235      1.0  0.12550057579818774  0.8891105646489944  0.9974217456628709  1.0000
  H   H236      1.0  0.11964365368487995  0.851017492222266  0.957755874502366  1.0000
  C   C355      1.0  0.09573772292840954  0.6123432295255969  0.9299060029115992  1.0000
  C   C356      1.0  0.11521624570474298  0.6371174289417233  0.9187333707469096  1.0000
  C   C357      1.0  0.10349079223836077  0.6642450575570765  0.907190480036163  1.0000
  C   C358      1.0  0.07231301520263322  0.6666803811264278  0.9073721399049596  1.0000
  C   C359      1.0  0.052929042556226547  0.6416228354842898  0.9174189793944327  1.0000
  C   C360      1.0  0.06466217942831509  0.6143977247776791  0.9284138098669935  1.0000
  H   H237      1.0  0.13930735978011932  0.6355114803598195  0.9194255264594876  1.0000
  H   H238      1.0  0.11861889475455856  0.6833095914689042  0.898158001838931  1.0000
  H   H239      1.0  0.028776483247108686  0.643455144729185  0.9175870862158648  1.0000
  H   H240      1.0  0.049490840785705315  0.5952339278502173  0.9363115321135753  1.0000
  C   C361      1.0  0.911073728104705  0.9744193873844178  0.6012161054656074  1.0000
  C   C362      1.0  0.9029376289647715  0.9871994553440337  0.5701052942948804  1.0000
  C   C363      1.0  0.8875796852818245  0.9698651905630791  0.5493085042565667  1.0000
  C   C364      1.0  0.8798686292520238  0.9397668301724118  0.5597776769744008  1.0000
  C   C365      1.0  0.8879062121273719  0.9269784957770646  0.59094958594651  1.0000
  C   C366      1.0  0.9038863341285072  0.9441715408971116  0.6113907886671822  1.0000
  H   H241      1.0  0.9083623973560336  0.010626582830257636  0.5621252015387646  1.0000
  H   H242      1.0  0.8810422900669171  0.9800883737230904  0.5256283378257932  1.0000
  H   H243      1.0  0.8819413944128354  0.9036912974587417  0.599177349209383  1.0000
  H   H244      1.0  0.9098544772953333  0.9341128919355587  0.6353812028698208  1.0000
  C   C367      1.0  0.07028041082799308  0.9266601241279594  0.7033853142610426  1.0000
  C   C368      1.0  0.0981091390304587  0.9132991745067669  0.7005212917751891  1.0000
  C   C369      1.0  0.5923177960810554  0.9016828521716412  0.7909154295583427  1.0000
  C   C370      1.0  0.5995119986367774  0.9301424150092691  0.7999558021995395  1.0000
  C   C371      1.0  0.5813028334322559  0.9537576085616324  0.7918072854442175  1.0000
  C   C372      1.0  0.06394197493935905  0.9458373720839287  0.7285931126257992  1.0000
  H   H245      1.0  0.10330017261548163  0.8987537469393734  0.6807892179023579  1.0000
  H   H246      1.0  0.6057496136601339  0.8831573592179758  0.7980081112583025  1.0000
  H   H247      1.0  0.5369045237003185  0.5105756067074427  0.7711337494431405  1.0000
  H   H248      1.0  0.02054621512349919  0.5013947792783648  0.7601089047456422  1.0000
  C   C373      1.0  0.8683221677008163  0.9072832588929646  0.7665743178249175  1.0000
  C   C374      1.0  0.8648506039695508  0.9364510139324311  0.7750544277252797  1.0000
  C   C375      1.0  0.8362217036787518  0.9483883476208561  0.7772871281831699  1.0000
  C   C376      1.0  0.811012166599527  0.9311738024172275  0.7710613385453587  1.0000
  C   C377      1.0  0.8144078108099181  0.9017833783527713  0.7633560359544876  1.0000
  C   C378      1.0  0.8430069851934537  0.8897642823818401  0.7613609937767184  1.0000
  H   H249      1.0  0.8531688402625117  0.5287105009452288  0.7335441923179478  1.0000
  H   H250      1.0  0.8336894353834406  0.9710666639964857  0.7836052856999971  1.0000
  H   H251      1.0  0.795282099684618  0.8885152674725839  0.7579538094980199  1.0000
  H   H252      1.0  0.8457070785161904  0.8672448374060778  0.7545611797079801  1.0000
  C   C379      1.0  0.9693779792482614  0.5721803070728615  0.8190973546058504  1.0000
  C   C380      1.0  0.956142861964826  0.5922393470878629  0.8401816006195938  1.0000
  C   C381      1.0  0.9551892504694738  0.5866102961077081  0.875568359905414  1.0000
  C   C382      1.0  0.9682568161198704  0.5613569045782046  0.8901130249089613  1.0000
  C   C383      1.0  0.9821326542181965  0.541487213991485  0.8690633433052785  1.0000
  C   C384      1.0  0.9822450921790454  0.5466482968966236  0.8335129839353641  1.0000
  H   H253      1.0  0.946414830868834  0.6121177789479839  0.8291332818742981  1.0000
  H   H254      1.0  0.9445656087653651  0.6020555993779079  0.8917626776717397  1.0000
  H   H255      1.0  0.99196482151951  0.5217282425000317  0.8802175264926574  1.0000
  H   H256      1.0  0.9926848118177161  0.531134100229448  0.8172839441494757  1.0000
  N   N1        1.0  0.3572082986781763  0.9275229035116526  0.6877362452742091  1.0000
  C   C385      1.0  0.38322873774612587  0.9082020523379452  0.684976110125857  1.0000
  C   C386      1.0  0.3417881945519286  0.9227671055883666  0.7226829280953349  1.0000
  C   C387      1.0  0.33599652504716226  0.9199867162381684  0.6632570680455845  1.0000
  C   C388      1.0  0.3677533313313982  0.9591938790406309  0.6800203623775893  1.0000
  H   H257      1.0  0.39457822903444584  0.9102317061658202  0.6585549395761531  1.0000
  H   H258      1.0  0.37609390713163543  0.884251334672879  0.6918328712962011  1.0000
  H   H259      1.0  0.4003374810472672  0.914204284486527  0.7019925184799907  1.0000
  H   H260      1.0  0.35705652715149244  0.9285138063833275  0.7418112434916239  1.0000
  H   H261      1.0  0.3220224085785463  0.9369392919746362  0.7255008643852129  1.0000
  H   H262      1.0  0.333279101835383  0.899163777433185  0.7295392003455814  1.0000
  H   H263      1.0  0.3471637065247168  0.9229459552725333  0.6366458920440169  1.0000
  H   H264      1.0  0.3163220234883057  0.9345463273550098  0.6643269267781539  1.0000
  H   H265      1.0  0.32707132936814226  0.8964041962146698  0.6686395080871773  1.0000
  H   H266      1.0  0.3796135481339164  0.9635763450679679  0.653927076823243  1.0000
  H   H267      1.0  0.3836544123261181  0.9659004258476451  0.6980479261218331  1.0000
  H   H268      1.0  0.3485334619347444  0.9742883468429554  0.6816298839245623  1.0000
  N   N2        1.0  0.013154983787431851  0.5494409796270462  0.5317993018836364  1.0000
  C   C389      1.0  0.03278745964075158  0.575095899839789  0.537876201791669  1.0000
  C   C390      1.0  0.013953669431421067  0.5252484690350789  0.559642810299153  1.0000
  C   C391      1.0  0.023939987354876235  0.5384718825879159  0.49903251668060883  1.0000
  C   C392      1.0  0.9818847592723139  0.5590035869582394  0.5307123551514807  1.0000
  H   H269      1.0  0.0334000889016044  0.593493246698457  0.516871334105268  1.0000
  H   H270      1.0  0.05649360650607371  0.5686751095505359  0.5392184111890784  1.0000
  H   H271      1.0  0.024994809112783845  0.5842448388687257  0.56211971051524  1.0000
  H   H272      1.0  0.007141449372509268  0.5330422469639138  0.5849115773719846  1.0000
  H   H273      1.0  0.9984282404023972  0.5060797969196495  0.5567493538483003  1.0000
  H   H274      1.0  0.03680086520140402  0.5163771223659145  0.5602576511269195  1.0000
  H   H275      1.0  0.009198246954139844  0.5196146432366092  0.493241785671809  1.0000
  H   H276      1.0  0.04719845320949245  0.5303673961906231  0.49927906127423793  1.0000
  H   H277      1.0  0.024636714794398884  0.5564098089581766  0.47753514766173205  1.0000
  H   H278      1.0  0.9807491748603021  0.5784391366027801  0.5113780720862247  1.0000
  H   H279      1.0  0.9723015284478111  0.5654385993823865  0.5558714327114127  1.0000
  H   H280      1.0  0.9667946564227337  0.5407598882487513  0.5240702457484336  1.0000
  N   N3        1.0  0.5958844769244299  0.01042451389579546  0.8729137103637017  1.0000
  C   C393      1.0  0.598907437735123  0.02611962277838842  0.9034490274601087  1.0000
  C   C394      1.0  0.6250526937451153  0.012508239897101033  0.8513386414598195  1.0000
  C   C395      1.0  0.572494276977954  0.024401754232137748  0.8536985551362932  1.0000
  C   C396      1.0  0.5869453252134162  0.9786648591586744  0.8832935551407692  1.0000
  H   H281      1.0  0.5768963048238834  0.026367959474496553  0.9193382247092367  1.0000
  H   H282      1.0  0.6069785211811564  0.049807637022775915  0.8966054418861996  1.0000
  H   H283      1.0  0.6149996015393064  0.01518027270812318  0.9198671121202486  1.0000
  H   H284      1.0  0.6235167046332153  0.0010215773699502398  0.8279787020535965  1.0000
  H   H285      1.0  0.6326619062780404  0.03613977369240379  0.8431382714796213  1.0000
  H   H286      1.0  0.6429825317436877  0.001657593337729194  0.8650586697120131  1.0000
  H   H287      1.0  0.5693975212176272  0.013409959678835067  0.830368443596375  1.0000
  H   H288      1.0  0.5781707372898311  0.04847801857924774  0.84559066598301  1.0000
  H   H289      1.0  0.5501825894953488  0.022852479571450868  0.8692979632572236  1.0000
  H   H290      1.0  0.585065564641511  0.9660043166038481  0.8609412808963273  1.0000
  H   H291      1.0  0.5646652845927874  0.9762186400773432  0.8986472229363601  1.0000
  H   H292      1.0  0.6036272862888763  0.9674429798209749  0.8986371814829267  1.0000
  N   N4        1.0  0.47571865313153777  0.196188325862832  0.11840662426934294  1.0000
  C   C397      1.0  0.4618988837166037  0.18443253994454092  0.15276658591294034  1.0000
  C   C398      1.0  0.4739013391613719  0.1727892192629883  0.09499152403892312  1.0000
  C   C399      1.0  0.5076806001643177  0.20517615298596437  0.12006961987159204  1.0000
  C   C400      1.0  0.45946408783363124  0.22239470314098245  0.10583020398124346  1.0000
  H   H293      1.0  0.4630499082672325  0.2015612647236094  0.17107935177267536  1.0000
  H   H294      1.0  0.47365539994509326  0.16464056754963127  0.16300199888191244  1.0000
  H   H295      1.0  0.43775280697158997  0.17740337401163195  0.1525641537761383  1.0000
  H   H296      1.0  0.4861637199960382  0.15277291905763113  0.10338054639455392  1.0000
  H   H297      1.0  0.4501342190700187  0.1653084096908352  0.09314110311932527  1.0000
  H   H298      1.0  0.4840699305221092  0.1810418604716801  0.06890953968506074  1.0000
  H   H299      1.0  0.5188175484823633  0.21440391663109723  0.09465744890310164  1.0000
  H   H300      1.0  0.5206450035894311  0.18589344997069188  0.1292127477216639  1.0000
  H   H301      1.0  0.5097969093980643  0.2226785874252379  0.13769358484714844  1.0000
  H   H302      1.0  0.46972401460385405  0.23226102170416946  0.08019202325395597  1.0000
  H   H303      1.0  0.4598146797468824  0.240276479322167  0.12330883378431272  1.0000
  H   H304      1.0  0.4354207213440992  0.21631526681923044  0.10349221160253973  1.0000
  N   N5        1.0  0.5689937702395819  0.43568863524150075  0.8677708938826515  1.0000
  C   C401      1.0  0.5477240290127228  0.455809465707062  0.8519985310397071  1.0000
  C   C402      1.0  0.5570130698017494  0.40445380454224955  0.8697737600013128  1.0000
  C   C403      1.0  0.5726764604566918  0.44365490735512403  0.9023835809409844  1.0000
  C   C404      1.0  0.5985696588693518  0.4388182175166751  0.8469429495959581  1.0000
  H   H305      1.0  0.5437931849018358  0.44988652925217687  0.8262053562741797  1.0000
  H   H306      1.0  0.5566039818502126  0.47949356057731307  0.8488808798770241  1.0000
  H   H307      1.0  0.5254682477192234  0.45471588549755804  0.8676578744225002  1.0000
  H   H308      1.0  0.572566902904285  0.38869298977756267  0.8814552818198115  1.0000
  H   H309      1.0  0.5347417840993804  0.4012163467948378  0.8854522504370693  1.0000
  H   H310      1.0  0.5540743874790088  0.3976176673090316  0.8440959727520848  1.0000
  H   H311      1.0  0.5891346166561987  0.42931341298295217  0.9146971625235804  1.0000
  H   H312      1.0  0.5508870441014786  0.44089087187818327  0.919079222368552  1.0000
  H   H313      1.0  0.5810974573163837  0.467297283682395  0.9018369931568619  1.0000
  H   H314      1.0  0.6083628146838991  0.46210755866031716  0.8449729360400626  1.0000
  H   H315      1.0  0.596608618478901  0.43320123116342246  0.8205732949609115  1.0000
  H   H316      1.0  0.615170770094966  0.4238761792654456  0.8580045586195891  1.0000
  N   N6        1.0  0.4176458166341819  0.05343249317568577  0.410777058664217  1.0000
  C   C405      1.0  0.40788307633990617  0.060200348344356946  0.4457698501548339  1.0000
  C   C406      1.0  0.426441042729115  0.08159626137617937  0.3891411987543502  1.0000
  C   C407      1.0  0.39258862812342604  0.038018201134651264  0.3968595274306673  1.0000
  C   C408      1.0  0.44364370783284124  0.033976368247366606  0.41128929750242  1.0000
  H   H317      1.0  0.4258881104986417  0.07294091000777714  0.45644209144161063  1.0000
  H   H318      1.0  0.40201618093040553  0.03942483052605961  0.4631000464733349  1.0000
  H   H319      1.0  0.38741739176428436  0.0736799848598979  0.4466172055585567  1.0000
  H   H320      1.0  0.4456603695421628  0.0936445417699665  0.39849409752485476  1.0000
  H   H321      1.0  0.4333913853918592  0.0774074454463467  0.3623776242512213  1.0000
  H   H322      1.0  0.4075512645164246  0.09705738246993967  0.38874209923075  1.0000
  H   H323      1.0  0.38576754413815834  0.016438520832495085  0.4121370098481388  1.0000
  H   H324      1.0  0.39910740558702007  0.03316291738643229  0.3702247410211282  1.0000
  H   H325      1.0  0.3722611897027428  0.051661933014896855  0.39703391943544736  1.0000
  H   H326      1.0  0.4377852605270746  0.012525942790128308  0.4274228562808352  1.0000
  H   H327      1.0  0.46315634467292705  0.0449561101852598  0.42127583611391306  1.0000
  H   H328      1.0  0.4514989487577206  0.028152103042752286  0.38538488398385046  1.0000
  N   N7        1.0  0.5555703292437969  0.21906208774484734  0.23110134850891506  1.0000
  C   C409      1.0  0.573386763860744  0.19626608693776598  0.24832574334664817  1.0000
  C   C410      1.0  0.5661918822383472  0.24921168927129322  0.23769452879557648  1.0000
  C   C411      1.0  0.5234280958567079  0.21410037830942955  0.24438500833498597  1.0000
  C   C412      1.0  0.5591851710334584  0.21667631506726281  0.19408028919725015  1.0000
  H   H329      1.0  0.5659510318801859  0.17331080825803805  0.24346334963835223  1.0000
  H   H330      1.0  0.5708647480185963  0.19709983972578946  0.2764047623613777  1.0000
  H   H331      1.0  0.597832934901252  0.1994008628555554  0.2392516427763267  1.0000
  H   H332      1.0  0.5629770075486867  0.252119460068811  0.2653485992143617  1.0000
  H   H333      1.0  0.5905408049939767  0.25362925096140193  0.22871853262176928  1.0000
  H   H334      1.0  0.5535302690178024  0.26682009838763543  0.22427316685216933  1.0000
  H   H335      1.0  0.5092990117528081  0.2313815256178587  0.23283147310038824  1.0000
  H   H336      1.0  0.5202953578228977  0.2147577632162124  0.2723812808417936  1.0000
  H   H337      1.0  0.5142491792473194  0.19195433725904334  0.23916039435308867  1.0000
  H   H338      1.0  0.546276396364572  0.23373560127491022  0.18028780744644632  1.0000
  H   H339      1.0  0.5510200858469261  0.19431198835245497  0.18818626088740564  1.0000
  H   H340      1.0  0.5832340960856102  0.22007006882816404  0.18334760761943952  1.0000
  N   N8        1.0  0.7749705795011315  0.9482029796635588  0.5113423756085984  1.0000
  C   C413      1.0  0.7460715900527914  0.9597425996713557  0.5019400690745586  1.0000
  C   C414      1.0  0.7789249038913113  0.9185225936249751  0.4990617931456177  1.0000
  C   C415      1.0  0.7748367860240909  0.9455278880313848  0.5487371636383389  1.0000
  C   C416      1.0  0.8000104580120977  0.9690195527750828  0.4955861322360461  1.0000
  H   H341      1.0  0.7423852381164313  0.9822310910089432  0.5105754935567084  1.0000
  H   H342      1.0  0.7266282447908367  0.9447391186142968  0.5136037635176542  1.0000
  H   H343      1.0  0.7453722209560069  0.9618205841978329  0.4739688263644359  1.0000
  H   H344      1.0  0.8005793632640019  0.9091363385980633  0.5057310837000827  1.0000
  H   H345      1.0  0.760360581974102  0.9023040756127889  0.5104322211393382  1.0000
  H   H346      1.0  0.7790978528315866  0.9197504615076086  0.4709044206487415  1.0000
  H   H347      1.0  0.7963942172137546  0.9368575980164164  0.5566536872349345  1.0000
  H   H348      1.0  0.7561090409472616  0.9300325003129973  0.5614004709325092  1.0000
  H   H349      1.0  0.7715854180896846  0.9675085041093584  0.5588476481516124  1.0000
  H   H350      1.0  0.8221177988699306  0.9613125196823806  0.5027009520226781  1.0000
  H   H351      1.0  0.7973541664896431  0.991828627042438  0.5036324006450565  1.0000
  H   H352      1.0  0.8012059011910807  0.9710277798577421  0.467335485870722  1.0000
  N   N9        1.0  0.9150048546418822  0.5450105744149791  0.35522351584233625  1.0000
  C   C417      1.0  0.917590422695434  0.5530668710584827  0.31803812462333786  1.0000
  C   C418      1.0  0.9272045727879397  0.5701684633669942  0.37176400265880627  1.0000
  C   C419      1.0  0.9322123909982662  0.5181711112898743  0.36295943535642067  1.0000
  C   C420      1.0  0.8829321229095067  0.5386120163771659  0.36813358132450413  1.0000
  H   H353      1.0  0.9050349770434056  0.5733348478703219  0.3112550631667144  1.0000
  H   H354      1.0  0.9088831175163693  0.5345194282284728  0.3046073808183411  1.0000
  H   H355      1.0  0.9414762106050539  0.5579935873987383  0.3075042808097856  1.0000
  H   H356      1.0  0.9149366630421324  0.5908911085255237  0.36616760432009  1.0000
  H   H357      1.0  0.9256506000986227  0.5648976321883304  0.3998644149408098  1.0000
  H   H358      1.0  0.9513629156316395  0.5756373694776403  0.36249666886292886  1.0000
  H   H359      1.0  0.9305041749152959  0.511322656861745  0.3907817519427352  1.0000
  H   H360      1.0  0.9565956202834798  0.5220604269505794  0.3538733957762474  1.0000
  H   H361      1.0  0.923926825033608  0.49883131066018793  0.3504963783432627  1.0000
  H   H362      1.0  0.8800543821061952  0.5321966504373346  0.39610833867598816  1.0000
  H   H363      1.0  0.8730288828869133  0.5197749241644201  0.3560742030094575  1.0000
  H   H364      1.0  0.8691490681177504  0.5583134067626396  0.36291139416461676  1.0000
  N   N10       1.0  0.05979396394695202  0.6092169341278333  0.8211903714335254  1.0000
  C   C421      1.0  0.05329285079476298  0.5798996475001554  0.8090858992433551  1.0000
  C   C422      1.0  0.06815266550340326  0.631680207104354  0.7916981861197585  1.0000
  C   C423      1.0  0.08500545296735407  0.60680098693365  0.8425645604047645  1.0000
  C   C424      1.0  0.032709829300739734  0.6185485502588781  0.8413706974061734  1.0000
  H   H365      1.0  0.04649140470605939  0.5625168420117416  0.8307311254429744  1.0000
  H   H366      1.0  0.07336462131952715  0.5720663769958408  0.7940600166038468  1.0000
  H   H367      1.0  0.03456379074811289  0.580946029495483  0.7925300704202168  1.0000
  H   H368      1.0  0.07309874519169002  0.6541047860443122  0.8000386857267804  1.0000
  H   H369      1.0  0.08854832253246081  0.6254651474302113  0.7758489221956014  1.0000
  H   H370      1.0  0.04953383486320817  0.6339840987152806  0.7750580184327701  1.0000
  H   H371      1.0  0.09054702460454433  0.6285631329011464  0.8520880034817124  1.0000
  H   H372      1.0  0.10584113615026358  0.5998066926822323  0.8281835783828958  1.0000
  H   H373      1.0  0.07936335119022164  0.5900994876873364  0.865140797843245  1.0000
  H   H374      1.0  0.03678127929306574  0.6406991480396422  0.8507585953291178  1.0000
  H   H375      1.0  0.025610080035064264  0.6021840966024569  0.863939879067151  1.0000
  H   H376      1.0  0.013325147826254824  0.6206243833276517  0.8258940981398162  1.0000
  N   N11       1.0  0.49745688865876436  0.4065803138316957  0.11311717315481067  1.0000
  C   C425      1.0  0.4972516121828286  0.4393133906133021  0.10502764285411528  1.0000
  C   C426      1.0  0.5178960523209696  0.3996510876102531  0.13955511275050383  1.0000
  C   C427      1.0  0.5080461827502719  0.39261251334277314  0.08218118871532719  1.0000
  C   C428      1.0  0.4666074310149237  0.39468109230891274  0.1257775941716329  1.0000
  H   H377      1.0  0.5202577026276803  0.44903428221545466  0.09564609747811233  1.0000
  H   H378      1.0  0.48912942995468245  0.450433611582783  0.12781190597372558  1.0000
  H   H379      1.0  0.48238518475948194  0.4454257667450999  0.0847804454897616  1.0000
  H   H380      1.0  0.5178552613398941  0.37523094180437494  0.14707018434411462  1.0000
  H   H381      1.0  0.5416167102267199  0.4073418343191295  0.1305132562657159  1.0000
  H   H382      1.0  0.5110661972697182  0.41042480425079564  0.16301378733351887  1.0000
  H   H383      1.0  0.5081472385464564  0.3678746188037781  0.08734546779552176  1.0000
  H   H384      1.0  0.5315028701511627  0.4005561432383456  0.07212960446043559  1.0000
  H   H385      1.0  0.49337995243989335  0.3976253394518536  0.061495106679364524  1.0000
  H   H386      1.0  0.4581019516195282  0.40412612784241025  0.14964111293080937  1.0000
  H   H387      1.0  0.4659189756187673  0.3699176743134482  0.13148100581214223  1.0000
  H   H388      1.0  0.45048352388180396  0.39993842572880983  0.10665115369718804  1.0000
  N   N12       1.0  0.8278927692336796  0.968117170620981  0.669769491760491  1.0000
  C   C429      1.0  0.8529403786310642  0.9495578674666707  0.6793316056024595  1.0000
  C   C430      1.0  0.8246641687452347  0.9924408777681667  0.692109349891361  1.0000
  C   C431      1.0  0.7995717511049534  0.9494027802101856  0.6736365669120079  1.0000
  C   C432      1.0  0.8345109002582682  0.9811020530264449  0.6340148646111067  1.0000
  H   H389      1.0  0.855597544924727  0.9305171211017831  0.6636121172664645  1.0000
  H   H390      1.0  0.8490505186009645  0.939908907714073  0.7062731274245934  1.0000
  H   H391      1.0  0.8747938360110762  0.9628452922508072  0.6762196169836052  1.0000
  H   H392      1.0  0.8062986649539868  0.007238179490129282  0.6853093684079136  1.0000
  H   H393      1.0  0.8190256167682995  0.9834500288093244  0.7192124837091299  1.0000
  H   H394      1.0  0.8459392089575918  0.006505404193858147  0.6904503552714031  1.0000
  H   H395      1.0  0.7800300074486732  0.9627940122073338  0.6673926934224687  1.0000
  H   H396      1.0  0.7942245331700034  0.9388852631297603  0.7002402020879668  1.0000
  H   H397      1.0  0.8010854810942374  0.931037716390095  0.6568079438138046  1.0000
  H   H398      1.0  0.8159388061607128  0.9949628355691991  0.6257243819767827  1.0000
  H   H399      1.0  0.8377442905875759  0.9633841919736488  0.6164800695516166  1.0000
  H   H400      1.0  0.8555858439280338  0.9956537278244285  0.6304201844817017  1.0000
  N   N13       1.0  0.03400803534256647  0.8913323279326401  0.8274916935819743  1.0000
  C   C433      1.0  0.06623859860458525  0.8951796826498445  0.8325511228421061  1.0000
  C   C434      1.0  0.018979647557990864  0.8688342844531083  0.8540698016137191  1.0000
  C   C435      1.0  0.031372740588128334  0.8810176280867542  0.7936762957062049  1.0000
  C   C436      1.0  0.01944421796733553  0.9201710434959908  0.8296710927628984  1.0000
  H   H401      1.0  0.06911164937192815  0.9029693954144683  0.8577693258897279  1.0000
  H   H402      1.0  0.07833386408399057  0.9118875799551834  0.8129280885494882  1.0000
  H   H403      1.0  0.07790331551448881  0.8738112934368466  0.8313020643877744  1.0000
  H   H404      1.0  0.01984258212578016  0.8760851386553052  0.8799086358562503  1.0000
  H   H405      1.0  0.9947985132753635  0.8648017627628061  0.8505199212980231  1.0000
  H   H406      1.0  0.030098900163998632  0.8470726609445555  0.8539591714440388  1.0000
  H   H407      1.0  0.04264947455596402  0.8972390842853307  0.7729534962901081  1.0000
  H   H408      1.0  0.007351547708661421  0.8781182982346466  0.7888007301197113  1.0000
  H   H409      1.0  0.04204694232048811  0.8592567986011557  0.7912716063382993  1.0000
  H   H410      1.0  0.9950154457174374  0.9180627893435258  0.8262964982303315  1.0000
  H   H411      1.0  0.029976189341276216  0.9376472053971163  0.8097505240541535  1.0000
  H   H412      1.0  0.02117959482724796  0.9287065143925869  0.8548325358115142  1.0000
  N   N14       1.0  0.8755715425931505  0.5347512332080179  0.8487923559755384  1.0000
  C   C437      1.0  0.8831740510338504  0.5460146674581327  0.8125744831926267  1.0000
  C   C438      1.0  0.8998729894686477  0.5160448315488618  0.8602692512674227  1.0000
  C   C439      1.0  0.8468995514417754  0.5165986179984472  0.8529717408109243  1.0000
  C   C440      1.0  0.8724019046380442  0.5602955609470791  0.8693484651507472  1.0000
  H   H413      1.0  0.9046483816360947  0.5599329773645824  0.8084743181669467  1.0000
  H   H414      1.0  0.8651254474775318  0.5598013363302886  0.802746442991659  1.0000
  H   H415      1.0  0.8860989202497139  0.5273393082883426  0.7964402133090344  1.0000
  H   H416      1.0  0.9218390957888691  0.5289196157186087  0.8571883139720634  1.0000
  H   H417      1.0  0.8951779026892837  0.5074119330420637  0.8876037913261887  1.0000
  H   H418      1.0  0.9027625772389087  0.4964731293544782  0.845315998742991  1.0000
  H   H419      1.0  0.8396392377427488  0.5090834620926187  0.8801962808622189  1.0000
  H   H420      1.0  0.8491858018249709  0.49614136564408196  0.8395035045300774  1.0000
  H   H421      1.0  0.8283487559658343  0.5292497191761094  0.8424676524334649  1.0000
  H   H422      1.0  0.8539122906791173  0.574582545166631  0.8616477977724267  1.0000
  H   H423      1.0  0.8935339413858723  0.5746447101307827  0.8663439932654948  1.0000
  H   H424      1.0  0.8673773724164545  0.5526677494632001  0.8969378309114421  1.0000
  N   N15       1.0  0.9985781260889124  0.09190251585517574  0.8833529313263465  1.0000
  C   C441      1.0  0.9803119775879223  0.08687880401396329  0.8552268932464271  1.0000
  C   C442      1.0  0.03051757152873802  0.08635888890150772  0.873063363673814  1.0000
  C   C443      1.0  0.9873861234155697  0.07124385870082475  0.9135925161264458  1.0000
  C   C444      1.0  0.9961521178927326  0.12307645474822151  0.8917040217760699  1.0000
  H   H425      1.0  0.9560900171069858  0.09082008696655715  0.8622391333860823  1.0000
  H   H426      1.0  0.9815531623932255  0.06350687907239354  0.84842368770485  1.0000
  H   H427      1.0  0.9882139126003716  0.10192452791098364  0.8318374240866888  1.0000
  H   H428      1.0  0.04503607736235615  0.09083964140551176  0.893389443031521  1.0000
  H   H429      1.0  0.03340852584607101  0.06271850599543742  0.8680546749209034  1.0000
  H   H430      1.0  0.03954869779863346  0.10085247569374922  0.8496697058512405  1.0000
  H   H431      1.0  0.0016598818418700478  0.07348659337556422  0.9346048417354403  1.0000
  H   H432      1.0  0.9876990182517041  0.047510267715623736  0.9080090226962146  1.0000
  H   H433      1.0  0.9638262495387843  0.07560930850600915  0.9232593707586215  1.0000
  H   H434      1.0  0.009761762646568917  0.12756757601106028  0.9127990954944231  1.0000
  H   H435      1.0  0.9724357466444713  0.1280387335055191  0.9000591388169583  1.0000
  H   H436      1.0  0.004407454778809994  0.13935098529728987  0.8694970289612095  1.0000
  N   N16       1.0  0.5165248945660879  0.021058845285617078  0.5397956753195561  1.0000
  C   C445      1.0  0.48814216491098483  0.005452580103035176  0.5337494035331474  1.0000
  C   C446      1.0  0.5144973387799916  0.02817213506225258  0.5754892454717931  1.0000
  C   C447      1.0  0.5215359849073854  0.04898116221349058  0.516648749019785  1.0000
  C   C448      1.0  0.542041616536832  0.001644713519797003  0.5332555053699979  1.0000
  H   H437      1.0  0.4887649790114784  0.9999964758891094  0.5069566450152474  1.0000
  H   H438      1.0  0.46835291155054887  0.0192963013755465  0.5389321462346663  1.0000
  H   H439      1.0  0.48389579291743817  0.9841052394222195  0.5506037876100881  1.0000
  H   H440      1.0  0.5106122913960552  0.007609766919976835  0.5936715121772906  1.0000
  H   H441      1.0  0.5355308636144139  0.03996050859454403  0.5810151322732988  1.0000
  H   H442      1.0  0.4954287335723893  0.042785415735943966  0.58141345100891  1.0000
  H   H443      1.0  0.5427156609076552  0.061389539854031394  0.5207961190393797  1.0000
  H   H444      1.0  0.5026611323407401  0.064183349781467  0.5204893376860114  1.0000
  H   H445      1.0  0.5239096043740367  0.04434513514907379  0.4894918645685601  1.0000
  H   H446      1.0  0.5638462688794474  0.013078400511176147  0.5368511923932366  1.0000
  H   H447      1.0  0.5440403920516784  0.995515538429868  0.5066496037871853  1.0000
  H   H448      1.0  0.5394773715907026  0.9805166780775135  0.550572139519587  1.0000
  N   N17       1.0  0.5041718716878393  0.7367979301043538  0.1912567945479716  1.0000
  C   C449      1.0  0.5049276311164465  0.7368324046510623  0.15393994464674446  1.0000
  C   C450      1.0  0.48406329335155895  0.7117982731318225  0.20839541188772093  1.0000
  C   C451      1.0  0.4928242551646152  0.7653401289174183  0.20148851576441182  1.0000
  C   C452      1.0  0.5349163706306604  0.7332453809852866  0.20138759401210082  1.0000
  H   H449      1.0  0.5196307522251895  0.7556655826533542  0.14021449032571462  1.0000
  H   H450      1.0  0.48206102187469513  0.7393186792385009  0.1454131093235397  1.0000
  H   H451      1.0  0.5136732206634814  0.7156924345655268  0.1452956569432506  1.0000
  H   H452      1.0  0.4831054848026893  0.7111232170334412  0.23658993255668634  1.0000
  H   H453      1.0  0.46060796322609154  0.7137056774273719  0.2015007946693461  1.0000
  H   H454      1.0  0.4920664185609131  0.6898951584518737  0.2014157779020139  1.0000
  H   H455      1.0  0.46973003795313567  0.7689596809700147  0.19411432334413048  1.0000
  H   H456      1.0  0.5076798644038205  0.7847349807782997  0.18947748965675762  1.0000
  H   H457      1.0  0.4917884401990694  0.7658683921684251  0.2295276334307853  1.0000
  H   H458      1.0  0.5351013646908996  0.7334186617521923  0.22941032557895802  1.0000
  H   H459      1.0  0.5507210941231933  0.7517188116522926  0.18895232893962022  1.0000
  H   H460      1.0  0.5440799305686113  0.7117661813708109  0.19432944483311707  1.0000
  N   N18       1.0  0.17494289813946895  0.889791033012402  0.8788571054067272  1.0000
  C   C453      1.0  0.1582393393740833  0.912179894997222  0.8971244191205473  1.0000
  C   C454      1.0  0.16942543499705653  0.8600102626881225  0.898175238701778  1.0000
  C   C455      1.0  0.207614499442355  0.8979034491914412  0.8751444683439827  1.0000
  C   C456      1.0  0.16441969591884265  0.8890667786121542  0.8448676745859959  1.0000
  H   H461      1.0  0.1623414209786529  0.9349989144351804  0.8834803607257341  1.0000
  H   H462      1.0  0.16482285113894357  0.9129076836531028  0.9233240940895623  1.0000
  H   H463      1.0  0.13347548484449523  0.9070669611806169  0.8994519940484855  1.0000
  H   H464      1.0  0.1750285669868774  0.8601343935255132  0.9248120165913175  1.0000
  H   H465      1.0  0.14545420549715216  0.8520634980255924  0.8990730475376358  1.0000
  H   H466      1.0  0.18332703969222064  0.8430278980162401  0.8864213419443492  1.0000
  H   H467      1.0  0.21645066791724532  0.8978408624377447  0.9003402703226566  1.0000
  H   H468      1.0  0.21261983797791828  0.9205030801916819  0.8612694192989285  1.0000
  H   H469      1.0  0.2207676952111275  0.8818705535830998  0.8605665804598144  1.0000
  H   H470      1.0  0.16825013417007506  0.9111989843436743  0.8296914936514155  1.0000
  H   H471      1.0  0.1398440474774305  0.8829598013684691  0.8466709805207382  1.0000
  H   H472      1.0  0.176466752750168  0.8725489266011494  0.8302075614359851  1.0000
  N   N19       1.0  0.08163319906884126  0.6578562237528198  0.02581517659766197  1.0000
  C   C457      1.0  0.06398125668857313  0.6782032773144914  0.00489070854870155  1.0000
  C   C458      1.0  0.11406732008567477  0.6628412588727841  0.013806421985242734  1.0000
  C   C459      1.0  0.07212586919207276  0.6265347612060617  0.02271587506041106  1.0000
  C   C460      1.0  0.07642944507511062  0.6639108093789172  0.061802580600587964  1.0000
  H   H473      1.0  0.03936092969518801  0.6750060906792447  0.012943652460601474  1.0000
  H   H474      1.0  0.06762802966815595  0.6744910835531016  0.9775135857943739  1.0000
  H   H475      1.0  0.0705846409563855  0.7020239799510337  0.006729610557763666  1.0000
  H   H476      1.0  0.12206178244812338  0.6862302031893295  0.016132820872725384  1.0000
  H   H477      1.0  0.1281320023900021  0.6476891828798753  0.02871674259675072  1.0000
  H   H478      1.0  0.11874671205803566  0.6587924304773266  0.9865846012255214  1.0000
  H   H479      1.0  0.04786599897242039  0.621735139970475  0.03198513817908211  1.0000
  H   H480      1.0  0.0855413757173531  0.6105238790929168  0.03740559193740123  1.0000
  H   H481      1.0  0.0753286531143944  0.6214127069473072  0.9958462703946475  1.0000
  H   H482      1.0  0.08950373633927833  0.6490173904004074  0.07830899072256448  1.0000
  H   H483      1.0  0.05217954950960535  0.6603847904421767  0.07168863853307372  1.0000
  H   H484      1.0  0.08342526828296237  0.6874076296641655  0.06494363496943145  1.0000
  N   N20       1.0  0.9938618256072974  0.19897705632798693  0.19983651615191403  1.0000
  C   C461      1.0  0.9835042812147837  0.20644020873411545  0.16596916752080276  1.0000
  C   C462      1.0  0.9884754870223539  0.22402778215224237  0.22079579528698223  1.0000
  C   C463      1.0  0.026454121904780695  0.19360081032053458  0.1958049621609268  1.0000
  C   C464      1.0  0.9770992329196159  0.1717393728105808  0.21677464568247296  1.0000
  H   H485      1.0  0.9589214938813181  0.21025724757080705  0.16791054589453414  1.0000
  H   H486      1.0  0.9878355275136487  0.18818895191863477  0.14933203205571985  1.0000
  H   H487      1.0  0.995443000282913  0.22711462859202947  0.15262092321909337  1.0000
  H   H488      1.0  0.9964889892208809  0.21928546184318187  0.24635660193640704  1.0000
  H   H489      1.0  0.0005151215046637064  0.24503096409561823  0.20857226983786523  1.0000
  H   H490      1.0  0.9640720877640505  0.2285022140596715  0.22481116377123037  1.0000
  H   H491      1.0  0.031216228895197814  0.17424288435650392  0.18097225355589164  1.0000
  H   H492      1.0  0.0353039508191788  0.18900608021217405  0.22091255817260655  1.0000
  H   H493      1.0  0.039685230030741564  0.21329636774463526  0.18202244608740895  1.0000
  H   H494      1.0  0.9524090729188434  0.17491805788922096  0.22035464656115333  1.0000
  H   H495      1.0  0.9843798521456976  0.1655407756769035  0.24238362853178033  1.0000
  H   H496      1.0  0.9807594592072282  0.1523268462652601  0.20169856747399392  1.0000
  N   N21       1.0  0.9900258552789816  0.8105270112440212  0.37197469300043484  1.0000
  C   C465      1.0  0.9826266070490621  0.8208058359011907  0.3374394821946847  1.0000
  C   C466      1.0  0.9618998796518046  0.8023115859002404  0.39450600721843526  1.0000
  C   C467      1.0  0.006773801693295001  0.834861654487478  0.38547210011629657  1.0000
  C   C468      1.0  0.008773748391449399  0.7841888710643035  0.3704152703118433  1.0000
  H   H497      1.0  0.003406644951550186  0.826580693638789  0.3196331930496521  1.0000
  H   H498      1.0  0.9688573789164533  0.8409564775450378  0.33745382288252174  1.0000
  H   H499      1.0  0.9696600667765065  0.8031580177140557  0.32649440547621655  1.0000
  H   H500      1.0  0.9484485819103419  0.7842969067202603  0.38482569631661523  1.0000
  H   H501      1.0  0.9665941079345919  0.7943063144735039  0.4207510445151913  1.0000
  H   H502      1.0  0.9473305885209633  0.8217568013910846  0.3964593299790666  1.0000
  H   H503      1.0  0.012807334092728162  0.827936890207925  0.41150521047079264  1.0000
  H   H504      1.0  0.9930480361596349  0.8549908132922568  0.38701727843926653  1.0000
  H   H505      1.0  0.02805675646385053  0.841715988189137  0.3689321192572846  1.0000
  H   H506      1.0  0.015005829876726384  0.7758239490995799  0.3959291069571685  1.0000
  H   H507      1.0  0.030024340501451086  0.7894510406096507  0.3532000206829145  1.0000
  H   H508      1.0  0.9967044513012183  0.7654724534366084  0.36022968863802085  1.0000
  N   N22       1.0  0.6136392861510762  0.9598249846420397  0.35456141851808964  1.0000
  C   C469      1.0  0.5903677880021753  0.9354145888292363  0.35564385299305173  1.0000
  C   C470      1.0  0.6056717091242653  0.985924871674439  0.332205163253405  1.0000
  C   C471      1.0  0.6433006863933545  0.9495392015175163  0.3414835527197498  1.0000
  C   C472      1.0  0.6152810643346706  0.9684053174016097  0.38924139405609054  1.0000
  H   H509      1.0  0.5680237700342272  0.9419715758689788  0.3669489779472843  1.0000
  H   H510      1.0  0.596280192499969  0.9150453580509827  0.3713439843560353  1.0000
  H   H511      1.0  0.5874310954604007  0.9290393609624582  0.3297663529055026  1.0000
  H   H512      1.0  0.6232087095233054  0.004439892118852429  0.330062010100542  1.0000
  H   H513      1.0  0.6031723092577401  0.9801373454034685  0.3060515606302906  1.0000
  H   H514      1.0  0.5840997008027914  0.9951654836799453  0.3422505951286504  1.0000
  H   H515      1.0  0.6613879779876995  0.9674308667225  0.34065120610101285  1.0000
  H   H516      1.0  0.6430284127661304  0.9426439231569298  0.3153965070252652  1.0000
  H   H517      1.0  0.6502242639794608  0.9302201065522115  0.35824269484449967  1.0000
  H   H518      1.0  0.6337669089536694  0.9855766435072416  0.38986664397226234  1.0000
  H   H519      1.0  0.6200274207065716  0.9488800145866186  0.40703738785622423  1.0000
  H   H520      1.0  0.5938611091656849  0.9777912140414516  0.39949202748180174  1.0000
  N   N23       1.0  0.5050431328798025  0.9394475035774451  0.06696487717546229  1.0000
  C   C473      1.0  0.49165843098908996  0.9296677548610717  0.10202334690532291  1.0000
  C   C474      1.0  0.5215908252280392  0.9147911540560979  0.05296309031902613  1.0000
  C   C475      1.0  0.5260848710962547  0.9655091295999773  0.06739187174510786  1.0000
  C   C476      1.0  0.48086583003529654  0.9478192112207467  0.04552459910774442  1.0000
  H   H521      1.0  0.47815931755333335  0.9473663100730986  0.11301303105435816  1.0000
  H   H522      1.0  0.5094660794321528  0.92413859627545  0.11896794053306226  1.0000
  H   H523      1.0  0.47655073030443773  0.9092688205360724  0.1030499916397774  1.0000
  H   H524      1.0  0.5404956604560839  0.9082878686103809  0.06794103484221137  1.0000
  H   H525      1.0  0.5065534107739611  0.8945074779268211  0.052857350552337534  1.0000
  H   H526      1.0  0.5314473954222085  0.9212648119960742  0.026329747754711974  1.0000
  H   H527      1.0  0.5450303940916914  0.9598585495904586  0.08267537336089462  1.0000
  H   H528      1.0  0.5144566808609669  0.9844491102525232  0.07826427070081743  1.0000
  H   H529      1.0  0.5362981265772124  0.9737682929546307  0.0413059361190391  1.0000
  H   H530      1.0  0.4902737711712295  0.9553702448612834  0.018881510521507883  1.0000
  H   H531      1.0  0.4679128347210596  0.9664474071570905  0.05526265290525644  1.0000
  H   H532      1.0  0.46467231012441623  0.9286056006219855  0.04453906014142439  1.0000
  N   N24       1.0  0.4813909552100545  0.8599242804292536  0.4279612367013244  1.0000
  C   C477      1.0  0.45580505648078  0.8376978530020943  0.4306678220866949  1.0000
  C   C478      1.0  0.48858654721725037  0.8654804947611636  0.4623729124634981  1.0000
  C   C479      1.0  0.4730716124663284  0.8880415545925484  0.409614744347344  1.0000
  C   C480      1.0  0.5081839696713967  0.8486299160478951  0.40909051009062575  1.0000
  H   H533      1.0  0.46119676659520575  0.8160507115177091  0.4442156925009648  1.0000
  H   H534      1.0  0.4497056978482608  0.8331351319993504  0.4050981671169015  1.0000
  H   H535      1.0  0.43526133004262346  0.8457076414737279  0.444766270987366  1.0000
  H   H536      1.0  0.4692967943595088  0.8748855272412834  0.4771281762322557  1.0000
  H   H537      1.0  0.49438081322801036  0.844608308123079  0.4772127806260005  1.0000
  H   H538      1.0  0.5081351820678486  0.88175323658135  0.4611604659841992  1.0000
  H   H539      1.0  0.45359688780371304  0.8978934672186664  0.42352148376005844  1.0000
  H   H540      1.0  0.4668477248533498  0.8845306972592515  0.3838515394338335  1.0000
  H   H541      1.0  0.492126296054118  0.9051065244014964  0.4060877688183429  1.0000
  H   H542      1.0  0.5277674084786539  0.8650522146876259  0.40662288238331323  1.0000
  H   H543      1.0  0.5039018368257657  0.844718740324786  0.3827988375799092  1.0000
  H   H544      1.0  0.515023671967918  0.8272202189104841  0.4218869886727369  1.0000
  N   N25       1.0  0.11721748751131238  0.4664667583443695  0.3728904762947958  1.0000
  C   C481      1.0  0.09019966223437025  0.4841117501503625  0.3788228469051271  1.0000
  C   C482      1.0  0.11479243344517456  0.4502212533835635  0.34264791702999825  1.0000
  C   C483      1.0  0.1194889962601419  0.44475960136832643  0.40285023465623593  1.0000
  C   C484      1.0  0.14445859760528038  0.4867559018625795  0.36715929961327953  1.0000
  H   H545      1.0  0.09166172565217129  0.497422518969081  0.4008028497982899  1.0000
  H   H546      1.0  0.06925210778496706  0.4695333875752759  0.3840960418612129  1.0000
  H   H547      1.0  0.08753300596626133  0.5003084464784157  0.35635943179136936  1.0000
  H   H548      1.0  0.11230260570289638  0.46591600793446286  0.3197167870205612  1.0000
  H   H549      1.0  0.1352111968191861  0.43734289441220214  0.33693522509031676  1.0000
  H   H550      1.0  0.09492123778342944  0.43405818118336825  0.3464970802581491  1.0000
  H   H551      1.0  0.09929368506133919  0.429120263915832  0.40810130113985577  1.0000
  H   H552      1.0  0.12172338817462212  0.45621846436181274  0.42603674912904604  1.0000
  H   H553      1.0  0.13983296918343568  0.43130842978072126  0.39927488823461676  1.0000
  H   H554      1.0  0.1654392954086829  0.47422471760436946  0.36372449853617117  1.0000
  H   H555      1.0  0.1466409241602541  0.49980530799512457  0.3892849065227845  1.0000
  H   H556      1.0  0.14386941537317255  0.5029857166558483  0.344216171387039  1.0000
  N   N26       1.0  0.050396862938475895  0.8624194176411546  0.07208360700859083  1.0000
  C   C485      1.0  0.059540967725984606  0.8392580964330675  0.0496690430346951  1.0000
  C   C486      1.0  0.03081391366609343  0.8833657440579137  0.05468161247670266  1.0000
  C   C487      1.0  0.07747542201743207  0.8790320945930666  0.08023931027367744  1.0000
  C   C488      1.0  0.03371493366231748  0.8480764705797271  0.10390237225438298  1.0000
  H   H557      1.0  0.07499952293590129  0.8235303568045861  0.06162984603905585  1.0000
  H   H558      1.0  0.07148651838496023  0.8493368328295796  0.025026813775021584  1.0000
  H   H559      1.0  0.039678203770754816  0.8257562818981323  0.04380805569450885  1.0000
  H   H560      1.0  0.010022826594142664  0.8717067099060704  0.04833913816469359  1.0000
  H   H561      1.0  0.023854188766347484  0.9013949808313969  0.07071613186276293  1.0000
  H   H562      1.0  0.0426880360547397  0.8945252914840838  0.030491370337952347  1.0000
  H   H563      1.0  0.07129204423809421  0.896914292188718  0.09685432447041409  1.0000
  H   H564      1.0  0.09076579662487871  0.8900306121452579  0.05682445289567339  1.0000
  H   H565      1.0  0.09263430568038666  0.8640420160883121  0.09375959969195863  1.0000
  H   H566      1.0  0.04792081295072825  0.8323204315180945  0.11780917361577634  1.0000
  H   H567      1.0  0.013149754205093345  0.8351656985989504  0.09886573624739672  1.0000
  H   H568      1.0  0.02653287131533233  0.8649962976300043  0.12131842785323335  1.0000
  N   N27       1.0  0.5313214199606986  0.46711476546282443  0.3304239666022496  1.0000
  C   C489      1.0  0.556914949837196  0.4654967606190054  0.3040226172328538  1.0000
  C   C490      1.0  0.5299128515364009  0.4980223840361386  0.33981300256544406  1.0000
  C   C491      1.0  0.5355808479849034  0.4465362604953497  0.3607456901001126  1.0000
  C   C492      1.0  0.5028439945688274  0.45847957877640144  0.31710439489912046  1.0000
  H   H569      1.0  0.5549396671653734  0.4816597287315343  0.2813785699229569  1.0000
  H   H570      1.0  0.5580160074754309  0.4427999677375219  0.2951311032567547  1.0000
  H   H571      1.0  0.578795421101774  0.4710616930056474  0.31365074815475247  1.0000
  H   H572      1.0  0.5501076718201656  0.5046655221375486  0.3521443448223994  1.0000
  H   H573      1.0  0.528888123850106  0.5143114675113527  0.3170761808917422  1.0000
  H   H574      1.0  0.50956407185519  0.5006564483889053  0.35766056951133846  1.0000
  H   H575      1.0  0.5164759150667723  0.4470578089532336  0.3810137939683474  1.0000
  H   H576      1.0  0.5565816717777329  0.4526081472813946  0.37192969205776166  1.0000
  H   H577      1.0  0.5369793261570394  0.42305313086773677  0.35441952086929707  1.0000
  H   H578      1.0  0.5036902145191501  0.4359018492172715  0.30790405277215493  1.0000
  H   H579      1.0  0.49797751140186536  0.4745303518220634  0.29551105389979565  1.0000
  H   H580      1.0  0.4832602696147422  0.4579991456339334  0.33697146641917386  1.0000
  N   N28       1.0  0.6597347537343674  0.6188965271892003  0.49531295984920604  1.0000
  C   C493      1.0  0.6799047310395949  0.5976492786337606  0.4795360243377895  1.0000
  C   C494      1.0  0.6747999939539248  0.632484175633331  0.5219058216223179  1.0000
  C   C495      1.0  0.6314270889801911  0.6028597566350979  0.5108505549507961  1.0000
  C   C496      1.0  0.652777631604365  0.6424267062813352  0.46895922126556316  1.0000
  H   H581      1.0  0.6694000229951743  0.5873702069186405  0.4589544439064132  1.0000
  H   H582      1.0  0.6850969678784544  0.5791842515550562  0.49856020592769545  1.0000
  H   H583      1.0  0.7016728430429198  0.6088378261982834  0.4679082613144679  1.0000
  H   H584      1.0  0.6602227892380719  0.6486360768509366  0.534437680293041  1.0000
  H   H585      1.0  0.6802786751473757  0.6151120565984146  0.5420766510239099  1.0000
  H   H586      1.0  0.6963112274829477  0.64472675243623  0.5111114207534396  1.0000
  H   H587      1.0  0.6158504291120842  0.6180366351902513  0.5235934499266456  1.0000
  H   H588      1.0  0.6358812650319337  0.5842955506317866  0.5301272683099806  1.0000
  H   H589      1.0  0.6191359409907571  0.5929732534057561  0.4912945421348762  1.0000
  H   H590      1.0  0.6374277597731215  0.6587910093373301  0.479858660895417  1.0000
  H   H591      1.0  0.6413845979289444  0.632668012639205  0.44855484447698557  1.0000
  H   H592      1.0  0.6736050153577465  0.6549363314011636  0.4565127053088022  1.0000
  N   N29       1.0  0.25275389405869375  0.9087887966490219  0.5245252857942583  1.0000
  C   C497      1.0  0.264149742753371  0.9353663566777777  0.5392347662947017  1.0000
  C   C498      1.0  0.22682424092398748  0.9169380504982125  0.5056837595571674  1.0000
  C   C499      1.0  0.24305391175266272  0.8848337193881791  0.5520843210987245  1.0000
  C   C500      1.0  0.27695220031006  0.897987876536845  0.5011695522070325  1.0000
  H   H593      1.0  0.2835176832663378  0.9301156847315173  0.5540077539867994  1.0000
  H   H594      1.0  0.24630327027263998  0.9441604165516495  0.5567735311976533  1.0000
  H   H595      1.0  0.2718203952914804  0.9538478220546334  0.5190758454628669  1.0000
  H   H596      1.0  0.2176067504574367  0.8976085794579198  0.4939503815604494  1.0000
  H   H597      1.0  0.2081450666513277  0.9249617288428815  0.5227770031442734  1.0000
  H   H598      1.0  0.2331922993246996  0.9352341137367709  0.48492266804371237  1.0000
  H   H599      1.0  0.22432427063382882  0.8917454768367594  0.5697994132668646  1.0000
  H   H600      1.0  0.26175067245276057  0.8788215729716381  0.5676415737368713  1.0000
  H   H601      1.0  0.2349343269141266  0.8642192998830893  0.5418689154687476  1.0000
  H   H602      1.0  0.2857373985447935  0.9156658468806087  0.4807200350044597  1.0000
  H   H603      1.0  0.2689205681523585  0.8785764130087386  0.4886648540809812  1.0000
  H   H604      1.0  0.29643746524259607  0.8906686808779389  0.514809897257026  1.0000
  N   N30       1.0  0.014579919789791779  0.9534402577970147  0.5642401578860204  1.0000
  C   C501      1.0  0.03334930585436946  0.9776033651933252  0.5434120443919144  1.0000
  C   C502      1.0  0.9876902042032352  0.9660883302930782  0.5813237654842567  1.0000
  C   C503      1.0  0.03231982156336888  0.9388514179521598  0.5901191650025197  1.0000
  C   C504      1.0  0.0049495800773264875  0.9311923053499819  0.5420652824450989  1.0000
  H   H605      1.0  0.020756188512329302  0.9888710364309202  0.5233493297542905  1.0000
  H   H606      1.0  0.053927040722867386  0.9687743942450635  0.5303247307798155  1.0000
  H   H607      1.0  0.04089347790656551  0.9949338172638093  0.5592247900517614  1.0000
  H   H608      1.0  0.9730325858608232  0.948481107038869  0.5973500935304674  1.0000
  H   H609      1.0  0.9939726688953344  0.9830229666080801  0.5983099083373183  1.0000
  H   H610      1.0  0.9736499706820569  0.9772294908803647  0.5626167938451181  1.0000
  H   H611      1.0  0.018876066440518976  0.9204843314524479  0.6064025857253956  1.0000
  H   H612      1.0  0.03986067176268375  0.9549308904085736  0.6074575901543207  1.0000
  H   H613      1.0  0.05284417088190934  0.9290400482795632  0.5781827126482452  1.0000
  H   H614      1.0  0.9916404015695715  0.9415270470513107  0.5220963774231053  1.0000
  H   H615      1.0  0.9905936883032621  0.9126879886271343  0.5568891206311893  1.0000
  H   H616      1.0  0.024754220396953294  0.9211537575903695  0.5288282354063236  1.0000
  N   N31       1.0  0.13746676230584765  0.011930582085138312  0.6695327040047503  1.0000
  C   C505      1.0  0.16867471844883908  0.023748012166203928  0.658771609272337  1.0000
  C   C506      1.0  0.13295985732261206  0.9823792156128055  0.6571022139741032  1.0000
  C   C507      1.0  0.11605666539166726  0.03269017129178105  0.6551162359738488  1.0000
  C   C508      1.0  0.13209043183372726  0.008945752402830253  0.7070589108180992  1.0000
  H   H617      1.0  0.17309351032207343  0.027444090890296875  0.6305769959122062  1.0000
  H   H618      1.0  0.1854965085814202  0.00805040906319121  0.6679132365048099  1.0000
  H   H619      1.0  0.17319566507430073  0.04552238293880373  0.668717869552487  1.0000
  H   H620      1.0  0.13594447870639792  0.9839817628915579  0.6288496193836787  1.0000
  H   H621      1.0  0.14925190721738346  0.9661850590895767  0.6665510949527942  1.0000
  H   H622      1.0  0.10985310609818666  0.9725623729201276  0.6654913772393033  1.0000
  H   H623      1.0  0.09225477746834088  0.02433086856492816  0.6625581757276582  1.0000
  H   H624      1.0  0.1197389601458465  0.03545479563806306  0.6267574191241104  1.0000
  H   H625      1.0  0.11867216366937283  0.05521053608875799  0.6640247242642308  1.0000
  H   H626      1.0  0.1083661956162223  0.0013679409000502177  0.7159719380862894  1.0000
  H   H627      1.0  0.13642217776529164  0.030529340377359663  0.7175082839813902  1.0000
  H   H628      1.0  0.14695354977392183  0.9923592053956025  0.7187061886031817  1.0000
  N   N32       1.0  0.5973817944794099  0.9362849128119718  0.6638833502761395  1.0000
  C   C509      1.0  0.6030285272438372  0.9121667390413841  0.6902120538337259  1.0000
  C   C510      1.0  0.5934189816593438  0.9234583695962683  0.6316577929406311  1.0000
  C   C511      1.0  0.623317933935007  0.9582314499267668  0.6585961419915481  1.0000
  C   C512      1.0  0.5697426383718659  0.9512901633296441  0.6751812077365223  1.0000
  H   H629      1.0  0.6073662411963748  0.9212166211651854  0.7144433477407508  1.0000
  H   H630      1.0  0.623112932012133  0.8996016362904883  0.6820772631507063  1.0000
  H   H631      1.0  0.5834116405804386  0.8958121910231571  0.6959782437460086  1.0000
  H   H632      1.0  0.6138764567348706  0.9121141019099508  0.6222180811550657  1.0000
  H   H633      1.0  0.5741656708032081  0.9066298103190404  0.6348080322293933  1.0000
  H   H634      1.0  0.5889398280259949  0.9409403136247818  0.611183549874473  1.0000
  H   H635      1.0  0.6447398332886751  0.9473821141035565  0.6516240946985985  1.0000
  H   H636      1.0  0.6262413602032726  0.9690981529770633  0.6821118546650806  1.0000
  H   H637      1.0  0.6206202650322252  0.9760969266836175  0.6378240717243346  1.0000
  H   H638      1.0  0.5650739608030243  0.9700064274528263  0.6562802666343318  1.0000
  H   H639      1.0  0.5716110471016009  0.960588171234886  0.6998764776414552  1.0000
  H   H640      1.0  0.5496340348290679  0.9354502422829202  0.6789340713821211  1.0000
  N   N33       1.0  0.41044431900136685  0.3053598750319557  0.39714124211759655  1.0000
  C   C513      1.0  0.41766670480732465  0.30944989336580897  0.3597819385392364  1.0000
  C   C514      1.0  0.3786314556458872  0.29451947882325263  0.4055690908173825  1.0000
  C   C515      1.0  0.41511000958868033  0.33418491202323153  0.4111615336726332  1.0000
  C   C516      1.0  0.4304404679102678  0.28335352743296194  0.41202841225973147  1.0000
  H   H641      1.0  0.4166554157579086  0.2878369791136891  0.34846711188576807  1.0000
  H   H642      1.0  0.44071320791805013  0.3197542309273132  0.35246202081867406  1.0000
  H   H643      1.0  0.4016867245607023  0.3242478898365315  0.3474847501394361  1.0000
  H   H644      1.0  0.3723188156446754  0.2912376752567664  0.4335556415510699  1.0000
  H   H645      1.0  0.36299685963648026  0.31084277110263847  0.3949140861901699  1.0000
  H   H646      1.0  0.3742653130705016  0.272959835972784  0.3950586166006601  1.0000
  H   H647      1.0  0.4094087817004871  0.3320941861745074  0.43925251814694843  1.0000
  H   H648      1.0  0.4006410939821129  0.35139699187482204  0.4002324984001884  1.0000
  H   H649      1.0  0.43892341468925083  0.34297959164085906  0.4054099121169343  1.0000
  H   H650      1.0  0.42828674445714515  0.2615341165805567  0.40129720743334335  1.0000
  H   H651      1.0  0.42529049328364693  0.27924615118019097  0.4401266443079601  1.0000
  H   H652      1.0  0.4545487051371437  0.29129094816613377  0.4066108180754677  1.0000
  N   N34       1.0  0.46303926802469464  0.5459057519863657  0.12551467410625494  1.0000
  C   C517      1.0  0.44199781278344996  0.5316221169145099  0.1048696166248273  1.0000
  C   C518      1.0  0.48450136626339024  0.5666713024558989  0.10310159620102466  1.0000
  C   C519      1.0  0.4798835148656053  0.5226988634931998  0.14340641636221352  1.0000
  C   C520      1.0  0.44576397487891745  0.5626646287922513  0.15053655640931485  1.0000
  H   H653      1.0  0.42587087823801134  0.5153151811495776  0.12089464431560537  1.0000
  H   H654      1.0  0.4543356229334867  0.5194953600169904  0.08500927124023194  1.0000
  H   H655      1.0  0.42843366124994847  0.5485007243978117  0.09160557757396726  1.0000
  H   H656      1.0  0.47240618083852315  0.5830228381494684  0.08734705828760414  1.0000
  H   H657      1.0  0.499379422174169  0.5794994490249474  0.11790397914887185  1.0000
  H   H658      1.0  0.4992328976057931  0.5546040299714322  0.0852339395371926  1.0000
  H   H659      1.0  0.49366663033516867  0.5101898821968966  0.12506649704223682  1.0000
  H   H660      1.0  0.4643071071392291  0.5062968255356403  0.16007248151464792  1.0000
  H   H661      1.0  0.49540439954865273  0.5326483178514186  0.1599188192451213  1.0000
  H   H662      1.0  0.46086511188553464  0.5734970250853187  0.16684340650317275  1.0000
  H   H663      1.0  0.42918756879739667  0.5476990026930627  0.16780633214718965  1.0000
  H   H664      1.0  0.43309266700348786  0.5805646818634022  0.13768020677642645  1.0000
  N   N35       1.0  0.9237605959615351  0.048523166553195995  0.3502105772186336  1.0000
  C   C521      1.0  0.945569439449691  0.06511002191780269  0.3678642411494791  1.0000
  C   C522      1.0  0.911017064301974  0.06934624954739754  0.3248841076970537  1.0000
  C   C523      1.0  0.8992123364818951  0.03465463473474095  0.375257259500155  1.0000
  C   C524      1.0  0.9393095246659791  0.024980525280639432  0.3327847710869404  1.0000
  H   H665      1.0  0.9551917043062571  0.05024827475514004  0.3876793290448342  1.0000
  H   H666      1.0  0.9348502217850878  0.08361132064868615  0.3805203676003559  1.0000
  H   H667      1.0  0.964772977802787  0.07522047039301638  0.3498117184727982  1.0000
  H   H668      1.0  0.8944531880004878  0.057591968276224925  0.311073321068243  1.0000
  H   H669      1.0  0.8992979981345588  0.08753752642758617  0.3371428163107876  1.0000
  H   H670      1.0  0.929012750668203  0.08024592278538867  0.30567311415297643  1.0000
  H   H671      1.0  0.8824758010149771  0.021635905882526174  0.3629069121407009  1.0000
  H   H672      1.0  0.8867501447670563  0.05168915657493112  0.38878187374733497  1.0000
  H   H673      1.0  0.9081899309914985  0.019018993506321857  0.39483766551087207  1.0000
  H   H674      1.0  0.9495332480919934  0.008999916671146968  0.35101635933207537  1.0000
  H   H675      1.0  0.9578123679990775  0.034666985909183046  0.31354541446934286  1.0000
  H   H676      1.0  0.9235840448608569  0.01173801919078965  0.31940988628048417  1.0000
  N   N36       1.0  0.07331628795441256  0.14211072495777322  0.06768914981266039  1.0000
  C   C525      1.0  0.041568227842877246  0.14694720334810685  0.062020313646862446  1.0000
  C   C526      1.0  0.08311769571591932  0.16338056319343147  0.09091792517666275  1.0000
  C   C527      1.0  0.09248458875172903  0.14683407507877883  0.034827345431067025  1.0000
  C   C528      1.0  0.07597435217199744  0.11113622292015415  0.08296416858642375  1.0000
  H   H677      1.0  0.02664873649813182  0.1446654207997453  0.08644229534939685  1.0000
  H   H678      1.0  0.03307387391940409  0.1305619531005886  0.04568556512340183  1.0000
  H   H679      1.0  0.03870672714172718  0.16961355409559628  0.049229622709202614  1.0000
  H   H680      1.0  0.06902683424071547  0.16019592812906192  0.11594510603647246  1.0000
  H   H681      1.0  0.10701197327238884  0.16056112606443215  0.09578647400045437  1.0000
  H   H682      1.0  0.08109796540418303  0.18697695403706552  0.08027431713083977  1.0000
  H   H683      1.0  0.08644356966844859  0.13012687997882305  0.01746105468656789  1.0000
  H   H684      1.0  0.11676471577579067  0.14467007765422454  0.038283129250111125  1.0000
  H   H685      1.0  0.08995460311372101  0.1693962704147774  0.021547360117716963  1.0000
  H   H686      1.0  0.06769783775972064  0.09452204705808015  0.06659796356889602  1.0000
  H   H687      1.0  0.06242885180090199  0.10683413291071553  0.1081557898528267  1.0000
  H   H688      1.0  0.09974553798575367  0.10639107933614254  0.08680754987599171  1.0000
  N   N37       1.0  0.29909414091293496  0.433595322115692  0.7217369275756659  1.0000
  C   C529      1.0  0.3283712216713815  0.43926877159391287  0.7346748675050513  1.0000
  C   C530      1.0  0.3027377485990661  0.4124594200710635  0.6955756293536584  1.0000
  C   C531      1.0  0.2882855917415397  0.46205182781465853  0.7066524376425202  1.0000
  C   C532      1.0  0.27712176757747453  0.420660211955697  0.7501810261705674  1.0000
  H   H689      1.0  0.32638306883122314  0.4553422828934311  0.754202707890614  1.0000
  H   H690      1.0  0.3455058779574008  0.44893790059791855  0.7139154720638894  1.0000
  H   H691      1.0  0.33720227053726115  0.41838507507180706  0.7465855358317135  1.0000
  H   H692      1.0  0.28089108678216607  0.40729348651683644  0.6856536199633606  1.0000
  H   H693      1.0  0.3188517057355764  0.4218020142981863  0.6735301502639663  1.0000
  H   H694      1.0  0.31130302406323784  0.39093158533115  0.7060396450356283  1.0000
  H   H695      1.0  0.2662651704543794  0.45858881728138795  0.6964169213626206  1.0000
  H   H696      1.0  0.3046689468208691  0.4726084413352258  0.6854129865326691  1.0000
  H   H697      1.0  0.285103836135973  0.47840557994509675  0.7258364504752624  1.0000
  H   H698      1.0  0.28491275614489353  0.39954463559835995  0.7627111251498084  1.0000
  H   H699      1.0  0.2549831374472191  0.41539551451799545  0.7412655343045842  1.0000
  H   H700      1.0  0.273284478733757  0.4363597965149491  0.7699685934671285  1.0000
  N   N38       1.0  0.622494700034069  0.760750143583044  0.8637663740666832  1.0000
  C   C533      1.0  0.6222252134539136  0.7888664081320285  0.8412056818562869  1.0000
  C   C534      1.0  0.6525445017925215  0.748036718971438  0.8589744628505567  1.0000
  C   C535      1.0  0.5992366155833094  0.7392105251206158  0.8554380974339089  1.0000
  C   C536      1.0  0.6159674526057256  0.7669459799217351  0.8995444663570015  1.0000
  H   H701      1.0  0.6400131192175726  0.8053183273515321  0.8463030018405004  1.0000
  H   H702      1.0  0.6001423303799135  0.7995158084163547  0.8448716257575597  1.0000
  H   H703      1.0  0.6265200733351824  0.7849934431427367  0.8139282077888041  1.0000
  H   H704      1.0  0.6535208616964093  0.7267273689101362  0.8755262970390677  1.0000
  H   H705      1.0  0.6584109075781512  0.743390062825184  0.8321527416921467  1.0000
  H   H706      1.0  0.670569614093066  0.7637084907986252  0.865293503284571  1.0000
  H   H707      1.0  0.5981929192648396  0.7180006003845126  0.8726378377323377  1.0000
  H   H708      1.0  0.6037373907159433  0.7334268120864459  0.8288620373380644  1.0000
  H   H709      1.0  0.5763747404856213  0.7484317328819271  0.8581258532639513  1.0000
  H   H710      1.0  0.6328982201503432  0.7832290119149827  0.9066414482762495  1.0000
  H   H711      1.0  0.616364543262037  0.7463165402985961  0.9173572756259274  1.0000
  H   H712      1.0  0.5933885531462312  0.7764409853574286  0.9041593187211426  1.0000
  N   N39       1.0  0.9791051326326752  0.3711486873971067  0.44958879442004634  1.0000
  C   C537      1.0  0.9704188745108314  0.39466531948277633  0.42426898898852433  1.0000
  C   C538      1.0  0.9543803839971097  0.3479580573352471  0.4575242212635226  1.0000
  C   C539      1.0  0.9849780750845677  0.38447056598023693  0.48095420271015393  1.0000
  C   C540      1.0  0.006687684823970306  0.357543068556215  0.4354853180201303  1.0000
  H   H713      1.0  0.9658219465659241  0.385344530806215  0.40031762634022383  1.0000
  H   H714      1.0  0.9886548226204276  0.4124593199514976  0.41742496357796877  1.0000
  H   H715      1.0  0.949869166071987  0.4057282143643072  0.43401640894194765  1.0000
  H   H716      1.0  0.9598160706771723  0.3302216023202872  0.47719947556246245  1.0000
  H   H717      1.0  0.932895803519161  0.35759450677298826  0.46724798802466283  1.0000
  H   H718      1.0  0.9499829931405488  0.3368172694191511  0.43457736551334325  1.0000
  H   H719      1.0  0.9912606553158927  0.3673707938963681  0.5008553184937153  1.0000
  H   H720      1.0  0.9647694598116703  0.3954519676616268  0.4918767357601555  1.0000
  H   H721      1.0  0.0037957172354554625  0.4017560473201378  0.47591364881618453  1.0000
  H   H722      1.0  0.0140607279425633  0.3396992726900708  0.45381283119762333  1.0000
  H   H723      1.0  0.025681396688963302  0.3745438177899884  0.42883174654457007  1.0000
  H   H724      1.0  0.0030306507208695045  0.3474387801866033  0.41164922496005063  1.0000
  N   N40       1.0  0.4148753591653477  0.44502143300319513  0.8886479951267344  1.0000
  C   C541      1.0  0.4060131553668869  0.4375468787994854  0.9254711117615331  1.0000
  C   C542      1.0  0.42312411648175186  0.4175534145966307  0.8730786019310899  1.0000
  C   C543      1.0  0.4409841013597819  0.4667859381867695  0.8834000443364599  1.0000
  C   C544      1.0  0.38923861658234615  0.4581374225111116  0.8726986485073579  1.0000
  H   H725      1.0  0.4005872799210884  0.45792427884138953  0.9382621133158683  1.0000
  H   H726      1.0  0.42441976931215947  0.42660447932784284  0.9381952990502459  1.0000
  H   H727      1.0  0.38581875376949004  0.42186703457277314  0.9302150587527694  1.0000
  H   H728      1.0  0.40376981345788426  0.40082483760824683  0.8761276822834946  1.0000
  H   H729      1.0  0.4299059434061791  0.422333650633676  0.8452898252062684  1.0000
  H   H730      1.0  0.4422267563085  0.4068689730159339  0.8848133630311721  1.0000
  H   H731      1.0  0.4472491405811284  0.47415436223916196  0.8559088513175633  1.0000
  H   H732      1.0  0.46115548256369765  0.45707768334795584  0.893747862688917  1.0000
  H   H733      1.0  0.4360258818775749  0.48723342550172066  0.8962473839678203  1.0000
  H   H734      1.0  0.39523805358988173  0.46467875177919626  0.8450018198156377  1.0000
  H   H735      1.0  0.38186029472922733  0.47836733803734655  0.8845324696146597  1.0000
  H   H736      1.0  0.36942927029680883  0.4419963997356261  0.8754025530198996  1.0000
  N   N41       1.0  0.6012055525592978  0.519180578908099  0.6623335699078762  1.0000
  C   C545      1.0  0.6204626207883831  0.493840261372608  0.6697158003045606  1.0000
  C   C546      1.0  0.6118005388660162  0.5347708298648972  0.6285071528620108  1.0000
  C   C547      1.0  0.6029758702011111  0.5401356484142431  0.6885585086167264  1.0000
  C   C548      1.0  0.5696506708324833  0.5079306368644594  0.6625571694784634  1.0000
  H   H737      1.0  0.6445646220805396  0.5014122455189797  0.6682094504992139  1.0000
  H   H738      1.0  0.6186773978619223  0.4767648714238393  0.6515032733459634  1.0000
  H   H739      1.0  0.6142647736653021  0.482545199637534  0.6957647620309665  1.0000
  H   H740      1.0  0.6115395452987645  0.5193415133039543  0.6082522300929811  1.0000
  H   H741      1.0  0.5974299434373168  0.5536545416568508  0.6217260293452528  1.0000
  H   H742      1.0  0.6354023687149696  0.5439928648347631  0.6276839135733918  1.0000
  H   H743      1.0  0.5892433859019908  0.5599050104106151  0.6835363459303418  1.0000
  H   H744      1.0  0.6266533543470604  0.5482260251627468  0.6900075878891138  1.0000
  H   H745      1.0  0.5943741874744575  0.5292767014366623  0.7142893131861187  1.0000
  H   H746      1.0  0.5543030134843522  0.5264493172065213  0.6576888849882264  1.0000
  H   H747      1.0  0.5612051194474952  0.4958427801998235  0.6876134154769041  1.0000
  H   H748      1.0  0.5674299711442999  0.4920522509475298  0.6430916680192897  1.0000
  N   N42       1.0  0.11636473640401818  0.18029911637192023  0.3720226789732268  1.0000
  C   C549      1.0  0.08643060154162453  0.16853497738075118  0.38830158863911346  1.0000
  C   C550      1.0  0.11437544767367526  0.21189526185719315  0.3585650529180865  1.0000
  C   C551      1.0  0.12635265169033003  0.1626053283885844  0.343827684683245  1.0000
  C   C552      1.0  0.13834719962346517  0.1780937663946428  0.3975067737380066  1.0000
  H   H749      1.0  0.08759515240416464  0.14543882200668223  0.4007980176986093  1.0000
  H   H750      1.0  0.06959248697974817  0.16799064237460082  0.36948124572915325  1.0000
  H   H751      1.0  0.07741933892619006  0.18246829745333812  0.4083018507067862  1.0000
  H   H752      1.0  0.13654739705395397  0.22165245362838998  0.34625176112378664  1.0000
  H   H753      1.0  0.09809875912322172  0.21430055068060547  0.3391563851977868  1.0000
  H   H754      1.0  0.10651797599124438  0.22592319639939376  0.3789797295109026  1.0000
  H   H755      1.0  0.1481072996735958  0.171810110036083  0.3298373104375619  1.0000
  H   H756      1.0  0.10947385076538205  0.1621134075947646  0.3250501302830205  1.0000
  H   H757      1.0  0.129846762850842  0.1390600889247931  0.3533412360240249  1.0000
  H   H758      1.0  0.16127006671267935  0.18657907837243878  0.38614277613054254  1.0000
  H   H759      1.0  0.1402070415708864  0.15443717278881267  0.40823384141158675  1.0000
  H   H760      1.0  0.13155670063802277  0.19114988180267364  0.41918763309730367  1.0000
  N   N43       1.0  0.03235674218292006  0.3706197692809713  0.8534853709768958  1.0000
  C   C553      1.0  0.009422642690761535  0.39270430547678126  0.8466392877650624  1.0000
  C   C554      1.0  0.021780081998434626  0.3508508811189517  0.884695864818252  1.0000
  C   C555      1.0  0.06106053514229899  0.3863882339188739  0.8581534744446014  1.0000
  C   C556      1.0  0.03714440877814718  0.3524875226089219  0.824526977788453  1.0000
  H   H761      1.0  0.9874168547096118  0.38160347442530695  0.843190293651334  1.0000
  H   H762      1.0  0.01651181630186183  0.407885271864674  0.8231463935549928  1.0000
  H   H763      1.0  0.005506615603760648  0.4069473846667872  0.8679223585504504  1.0000
  H   H764      1.0  0.03919192169144422  0.3348952052293144  0.8917679251670201  1.0000
  H   H765      1.0  0.01648751482641963  0.3639840035637567  0.906578425997401  1.0000
  H   H766      1.0  0.0009208741906290235  0.3375230492912009  0.8816718890775126  1.0000
  H   H767      1.0  0.07802076072480552  0.37056785841019985  0.8665805021236873  1.0000
  H   H768      1.0  0.05785195288200111  0.402437267117876  0.8775411918762662  1.0000
  H   H769      1.0  0.0712966862523432  0.3991481937727336  0.8341606272569146  1.0000
  H   H770      1.0  0.01599996926385327  0.3402929135482394  0.8201518078338064  1.0000
  H   H771      1.0  0.05440624456592147  0.335779494732044  0.8288787117720005  1.0000
  H   H772      1.0  0.04548444332645185  0.3665221722202089  0.8005883382754017  1.0000
  N   N44       1.0  0.5693767656324844  0.23085421120062835  0.9131228561266745  1.0000
  C   C557      1.0  0.5406532606015003  0.24620033478974904  0.9168641773381788  1.0000
  C   C558      1.0  0.5633722669110706  0.19828214520179435  0.9209352562275295  1.0000
  C   C559      1.0  0.5897324970817084  0.241639454415244  0.9368961067143043  1.0000
  C   C560      1.0  0.5837612162649312  0.23727229318812712  0.8778186517493787  1.0000
  H   H773      1.0  0.5443412670255904  0.2708017044809223  0.9108010232189083  1.0000
  H   H774      1.0  0.5294201522384459  0.2422343876749092  0.943326966778046  1.0000
  H   H775      1.0  0.5244955834993152  0.23842583868806871  0.8996945693786141  1.0000
  H   H776      1.0  0.5525975235660657  0.1926813179542822  0.9473354583914293  1.0000
  H   H777      1.0  0.5479485293871204  0.18932489514661457  0.9036623756865773  1.0000
  H   H778      1.0  0.5845486637888953  0.18596169278861444  0.9187294886132991  1.0000
  H   H779      1.0  0.6115484784902553  0.23039702555999955  0.9350647686380443  1.0000
  H   H780      1.0  0.5794200158548045  0.23737800123797748  0.9637588285584164  1.0000
  H   H781      1.0  0.5949538709348976  0.2661383709919456  0.9314921921074042  1.0000
  H   H782      1.0  0.6055315349840272  0.22611713522807425  0.8741344296005713  1.0000
  H   H783      1.0  0.5887272131658955  0.26165853707782755  0.8710726388582992  1.0000
  H   H784      1.0  0.5689116405348815  0.22965196097680982  0.859194292907009  1.0000
  N   N45       1.0  0.3251748645810414  0.9387021428060185  0.3431890116303066  1.0000
  C   C561      1.0  0.32464099638085114  0.9684363649175792  0.35599263501542616  1.0000
  C   C562      1.0  0.3567409185116191  0.9299633759839323  0.3370875954212066  1.0000
  C   C563      1.0  0.3110579276361169  0.9398317165000059  0.31103209322382663  1.0000
  C   C564      1.0  0.30820442947841  0.9164986603437034  0.36863532655300796  1.0000
  H   H785      1.0  0.33533876888422126  0.9683741751831101  0.38011805658752684  1.0000
  H   H786      1.0  0.30109251230294287  0.9755884476514084  0.36126717648390894  1.0000
  H   H787      1.0  0.33700864004348485  0.9858294202244277  0.33732211594925504  1.0000
  H   H788      1.0  0.35796462235086546  0.9076847850133437  0.32716092336214286  1.0000
  H   H789      1.0  0.3703176635373831  0.9462821836510026  0.31816824566683555  1.0000
  H   H790      1.0  0.36796076936400524  0.9285279179450697  0.3609400548596107  1.0000
  H   H791      1.0  0.3110478973260098  0.9176641621275536  0.3007801622114614  1.0000
  H   H792      1.0  0.32330725291275225  0.9562968625035754  0.2911506818911116  1.0000
  H   H793      1.0  0.2871825706989812  0.94637297364666  0.314760037463526  1.0000
  H   H794      1.0  0.31796278747763473  0.9152629334369268  0.3934307588728959  1.0000
  H   H795      1.0  0.308560528974725  0.8937185024906189  0.3600080041272233  1.0000
  H   H796      1.0  0.2841279800736676  0.9220863261201326  0.373414432037794  1.0000
  N   N46       1.0  0.15163598784376658  0.4944443343489841  0.8935488663010688  1.0000
  C   C565      1.0  0.12425185612191302  0.49535917137792096  0.875504464297983  1.0000
  C   C566      1.0  0.1787413400716059  0.4970362014982923  0.8684957911347074  1.0000
  C   C567      1.0  0.1512768317107582  0.4658643169415866  0.9154139721269431  1.0000
  C   C568      1.0  0.15220118411368289  0.5195440348274029  0.9148504042381539  1.0000
  H   H797      1.0  0.12210783715661305  0.4757861934786057  0.8607106069684405  1.0000
  H   H798      1.0  0.12445804536299743  0.5158006109495034  0.8573041750000615  1.0000
  H   H799      1.0  0.10346206286793927  0.49495892869362085  0.8935552527261238  1.0000
  H   H800      1.0  0.19987484835665575  0.49556595446708784  0.8811559199340274  1.0000
  H   H801      1.0  0.1787864742671419  0.47882202053963474  0.8515587919375558  1.0000
  H   H802      1.0  0.17998734164503413  0.5185075201691816  0.8518598121048071  1.0000
  H   H803      1.0  0.15075982839222174  0.44642259995363437  0.9001944001780342  1.0000
  H   H804      1.0  0.13098858102044553  0.46312247443594046  0.934468193074163  1.0000
  H   H805      1.0  0.17167570528796372  0.4642786763450042  0.9293285365406453  1.0000
  H   H806      1.0  0.13226393759248953  0.5180853895064216  0.9343412818665864  1.0000
  H   H807      1.0  0.1518181697283967  0.5414896031798166  0.899343110356413  1.0000
  H   H808      1.0  0.17275084642033434  0.5198619302941769  0.9285220776492082  1.0000
  N   N47       1.0  0.4750308487827019  0.43656329022103335  0.6029683781999284  1.0000
  C   C569      1.0  0.49508716369700845  0.4600740057443217  0.6133474896599376  1.0000
  C   C570      1.0  0.45688768032332716  0.4497564736329124  0.5766413198863641  1.0000
  C   C571      1.0  0.4547502876148222  0.42333849407837987  0.6328269790564401  1.0000
  C   C572      1.0  0.4934395121668282  0.4130390206478695  0.589128636952468  1.0000
  H   H809      1.0  0.5108525835350906  0.4703528051602825  0.5913616536933464  1.0000
  H   H810      1.0  0.5089359211008413  0.45082697402858085  0.6333601100304506  1.0000
  H   H811      1.0  0.48187495805814423  0.47814118765240565  0.6240032635636857  1.0000
  H   H812      1.0  0.4426320529720778  0.43237043974664324  0.5668984629030163  1.0000
  H   H813      1.0  0.4414639050359181  0.4664411940085623  0.5867858276606713  1.0000
  H   H814      1.0  0.47151505620764605  0.4612488592366586  0.5544399830562512  1.0000
  H   H815      1.0  0.43918397227953054  0.4056539154648157  0.6258386195388657  1.0000
  H   H816      1.0  0.44081676914087115  0.44054330043794454  0.6442473291999934  1.0000
  H   H817      1.0  0.4676702779425536  0.4129353433989682  0.6530860930118633  1.0000
  H   H818      1.0  0.5071233712142791  0.4024017414046696  0.6085138068068162  1.0000
  H   H819      1.0  0.5093954946916048  0.4223039348059222  0.5669059137249051  1.0000
  H   H820      1.0  0.4790423254529926  0.39516200958140274  0.5805049076413935  1.0000
  N   N48       1.0  0.018935561078342378  0.44401468369158087  0.21043617013805352  1.0000
  C   C573      1.0  0.04803601787311784  0.42929116413266344  0.21017347571833275  1.0000
  C   C574      1.0  0.023463759048601762  0.47558176050452106  0.216705305237138  1.0000
  C   C575      1.0  0.9972119985831323  0.4285860743750831  0.23766210301193197  1.0000
  C   C576      1.0  0.006956423167936876  0.4424911741603661  0.1773038861177571  1.0000
  H   H821      1.0  0.06498656531398028  0.44027948536798117  0.18984680372534754  1.0000
  H   H822      1.0  0.04534732866073643  0.40533744139953776  0.20575547831630717  1.0000
  H   H823      1.0  0.057599150731886706  0.4299549929841362  0.234922224644113  1.0000
  H   H824      1.0  0.032147754456359534  0.4774167280719339  0.24172955365167773  1.0000
  H   H825      1.0  0.03982007216339367  0.48800699714188905  0.19671802867158045  1.0000
  H   H826      1.0  0.0019304140026297212  0.48740020089007974  0.2170784738859015  1.0000
  H   H827      1.0  0.9756057840504053  0.4402156189419411  0.24019555826723618  1.0000
  H   H828      1.0  0.006405282842247617  0.4274467963988167  0.26270814183957303  1.0000
  H   H829      1.0  0.9918120692633278  0.40524954597942503  0.23256429532135037  1.0000
  H   H830      1.0  0.02280638512340616  0.45385318603431135  0.15605516119869703  1.0000
  H   H831      1.0  0.9849878226307703  0.4534168048612967  0.17673886650170637  1.0000
  H   H832      1.0  0.003026905273139313  0.41887013730820116  0.17214594971152747  1.0000
  N   N49       1.0  0.37771441000548656  0.05057741926079976  0.8551053452484441  1.0000
  C   C577      1.0  0.36807126318977973  0.08021540568786689  0.842106428496033  1.0000
  C   C578      1.0  0.38567221468908325  0.051525098561691775  0.8902405418620982  1.0000
  C   C579      1.0  0.40427964868365357  0.04259545078119298  0.8330586347509508  1.0000
  C   C580      1.0  0.3528940216795088  0.027941845273569344  0.854844246992082  1.0000
  H   H833      1.0  0.3862859740432209  0.09779970738184314  0.8421643062788978  1.0000
  H   H834      1.0  0.3478505384226907  0.08688297955047959  0.8579111740690902  1.0000
  H   H835      1.0  0.3622363834713603  0.08030457222048851  0.8154846906256394  1.0000
  H   H836      1.0  0.4051678022777331  0.06753019172379492  0.8912417164099659  1.0000
  H   H837      1.0  0.366487262649201  0.058461648091344326  0.907412957324553  1.0000
  H   H838      1.0  0.39211517893636777  0.029255701584477878  0.9012127643782866  1.0000
  H   H839      1.0  0.41252918837986463  0.020591353947264402  0.8424910818603923  1.0000
  H   H840      1.0  0.42334350427583  0.05946928699660788  0.831856452085433  1.0000
  H   H841      1.0  0.39876838342013604  0.04078301628670964  0.806611775593575  1.0000
  H   H842      1.0  0.3598141117746667  0.0051212978078329875  0.8634172857963074  1.0000
  H   H843      1.0  0.34601763329156193  0.02701683626125727  0.8287653617693029  1.0000
  H   H844      1.0  0.3325970268894532  0.03275503839929512  0.8717603556631243  1.0000
  N   N50       1.0  0.9370586396456784  0.9318826906392682  0.17573880405750797  1.0000
  C   C581      1.0  0.9144031654144802  0.9102266697788759  0.16645560593567457  1.0000
  C   C582      1.0  0.924882917849378  0.9620311026655114  0.173556545509249  1.0000
  C   C583      1.0  0.9648650400100682  0.9320397577660506  0.15202425357211813  1.0000
  C   C584      1.0  0.9440422249678438  0.923269836625601  0.21086038319101036  1.0000
  H   H845      1.0  0.9081219522848317  0.9164044519767546  0.14036985509787067  1.0000
  H   H846      1.0  0.8934517926127366  0.9088005199170812  0.18449304970268043  1.0000
  H   H847      1.0  0.923000612657424  0.8873389397480629  0.1672789273929272  1.0000
  H   H848      1.0  0.940476989627144  0.9785595492416084  0.18268436322921786  1.0000
  H   H849      1.0  0.9216266148487778  0.970213247181363  0.14681219897339895  1.0000
  H   H850      1.0  0.9028504907050278  0.9622816391148121  0.1893805769818264  1.0000
  H   H851      1.0  0.9759290820939095  0.9103489205939779  0.15459369545933313  1.0000
  H   H852      1.0  0.9816761135148395  0.9495482243476555  0.15672934458000448  1.0000
  H   H853      1.0  0.9601527277139  0.9366491077286814  0.1250856626843513  1.0000
  H   H854      1.0  0.9606089472170439  0.9394723040575029  0.2188863627193768  1.0000
  H   H855      1.0  0.9538308860875471  0.9008671046393224  0.2132924128521927  1.0000
  H   H856      1.0  0.9234651192911655  0.9221616349196077  0.2293884493888566  1.0000
  N   N51       1.0  0.011054210967299083  0.6886212986153503  0.18854237291479395  1.0000
  C   C585      1.0  0.9998584963213459  0.7178233484825735  0.19674083111323257  1.0000
  C   C586      1.0  0.9886955107873298  0.6645924895790171  0.20325121956864817  1.0000
  C   C587      1.0  0.03994091659816479  0.6837596064535539  0.20299542765782588  1.0000
  C   C588      1.0  0.015732095258653267  0.688259570611442  0.1512048060334369  1.0000
  H   H857      1.0  0.9781505587070376  0.7223503514096858  0.18604754605097482  1.0000
  H   H858      1.0  0.01617949423557441  0.7364760928944072  0.1861271164960597  1.0000
  H   H859      1.0  0.9960106766300957  0.7188329943141663  0.22468834154716788  1.0000
  H   H860      1.0  0.9963774422194795  0.6422644416421109  0.1972760796789652  1.0000
  H   H861      1.0  0.9848547216976608  0.6639822023269129  0.23145844092610798  1.0000
  H   H862      1.0  0.9665207740281624  0.6676752807757013  0.19318283884545376  1.0000
  H   H863      1.0  0.05729864387442607  0.7016162199736933  0.19270975997095421  1.0000
  H   H864      1.0  0.04911337251476455  0.6619530372859499  0.19704238618252456  1.0000
  H   H865      1.0  0.03715048496766293  0.6836571680207665  0.23119142484548727  1.0000
  H   H866      1.0  0.023396809629732118  0.6661861951341606  0.14419582040305712  1.0000
  H   H867      1.0  0.03307238902104981  0.7055975488332089  0.1393992553155748  1.0000
  H   H868      1.0  0.9945742296841809  0.6928556169547582  0.13935268750355556  1.0000
  N   N52       1.0  0.7921509282316661  0.867966882626066  0.8667925168827266  1.0000
  C   C589      1.0  0.7977158376757043  0.9001741194339531  0.8556485633594026  1.0000
  C   C590      1.0  0.7643311587452379  0.8634175623920409  0.8907093275106541  1.0000
  C   C591      1.0  0.8179986704679705  0.8566241525621093  0.88386661812056  1.0000
  C   C592      1.0  0.7886234509338493  0.8515989598088138  0.8368672148795371  1.0000
  H   H869      1.0  0.818979607478972  0.904403635001379  0.8382615000188072  1.0000
  H   H870      1.0  0.7997352958350167  0.9134017432764473  0.8775920486108486  1.0000
  H   H871      1.0  0.7791010779764738  0.9093537095015429  0.8416739859315454  1.0000
  H   H872      1.0  0.7443655695720739  0.8715982520557385  0.8785760505611254  1.0000
  H   H873      1.0  0.7592881629801047  0.8393025587311157  0.8993410900383847  1.0000
  H   H874      1.0  0.7660577012573763  0.8753910160224787  0.913674531938772  1.0000
  H   H875      1.0  0.8213791934165232  0.8685137564593771  0.906562379696885  1.0000
  H   H876      1.0  0.839354643889652  0.8597219138598083  0.8664299003818984  1.0000
  H   H877      1.0  0.8145668817764196  0.8323433470208245  0.8925001543323443  1.0000
  H   H878      1.0  0.8094572489982591  0.8538059491193162  0.8186792249883821  1.0000
  H   H879      1.0  0.7698003602418501  0.8601202584997084  0.822897171148721  1.0000
  H   H880      1.0  0.7833553612054648  0.827338933186455  0.8443705500715087  1.0000
  N   N53       1.0  0.7990647612245924  0.4423155397554777  0.6916703011433155  1.0000
  C   C593      1.0  0.787050874236403  0.4720812019449344  0.6956390215924095  1.0000
  C   C594      1.0  0.7953443220748507  0.4342622536702773  0.6570978969750023  1.0000
  C   C595      1.0  0.7823468783536973  0.41990129481699584  0.7171015179448299  1.0000
  C   C596      1.0  0.8313932142187773  0.4429641308044992  0.6970186908900305  1.0000
  H   H881      1.0  0.7993997535996  0.48971459580184834  0.677289251876937  1.0000
  H   H882      1.0  0.7890985050087904  0.4786286696191977  0.7216160209094757  1.0000
  H   H883      1.0  0.7627016424245535  0.4724249521220569  0.6916607736282875  1.0000
  H   H884      1.0  0.7711052923252961  0.4335746214640276  0.6524781037524066  1.0000
  H   H885      1.0  0.8077057690548589  0.4506039820718584  0.6371854106773991  1.0000
  H   H886      1.0  0.8041290440040256  0.411899175915708  0.6532360152343274  1.0000
  H   H887      1.0  0.7909505089290313  0.3971974309599414  0.7151145441327444  1.0000
  H   H888      1.0  0.7578478420192464  0.41862569569075736  0.7137141037747617  1.0000
  H   H889      1.0  0.7843983360223535  0.4254754608152379  0.7435253170785211  1.0000
  H   H890      1.0  0.8347327047495594  0.4481670010503657  0.7232194408099382  1.0000
  H   H891      1.0  0.8447403174953662  0.4602484836501379  0.6791293237645462  1.0000
  H   H892      1.0  0.8414532385625303  0.4210936450644909  0.6935019023980954  1.0000
  N   N54       1.0  0.6231943256260118  0.6109930111054781  0.19513993623743078  1.0000
  C   C597      1.0  0.6364398429319535  0.6318411857425638  0.16588967119584452  1.0000
  C   C598      1.0  0.6055711937921587  0.6278220783681379  0.2197789431522981  1.0000
  C   C599      1.0  0.6474239496266295  0.5958915607123163  0.2119244658530882  1.0000
  C   C600      1.0  0.6031574672962318  0.5883941565563315  0.18304164077073362  1.0000
  H   H893      1.0  0.6185207696906015  0.6435075957396293  0.1528436709569721  1.0000
  H   H894      1.0  0.6498450980900334  0.6199182577544844  0.1466708851928651  1.0000
  H   H895      1.0  0.6516510768389113  0.6492909151019023  0.17404464075544554  1.0000
  H   H896      1.0  0.58668386549287  0.6390530642281514  0.20818669437855386  1.0000
  H   H897      1.0  0.5956694076935183  0.6127974790274888  0.242423328205887  1.0000
  H   H898      1.0  0.6198294096647018  0.6453539938343156  0.2291833087620209  1.0000
  H   H899      1.0  0.6629477217383208  0.6122387730770203  0.22151130984970596  1.0000
  H   H900      1.0  0.661112711705666  0.5827738795193312  0.194188282534512  1.0000
  H   H901      1.0  0.6379170566762274  0.580077223634599  0.23419542580878677  1.0000
  H   H902      1.0  0.5932842009361321  0.5719279839960347  0.2044252741290282  1.0000
  H   H903      1.0  0.6155448051733309  0.5755994569869614  0.16391777792436268  1.0000
  H   H904      1.0  0.5841518827728143  0.5989753466470149  0.17095658550824178  1.0000
  N   N55       1.0  0.8158829273834477  0.38335340495302767  0.3587875301276544  1.0000
  C   C601      1.0  0.8112405494423608  0.37521836565686034  0.3959777681865751  1.0000
  C   C602      1.0  0.8470625380206821  0.37719358126292984  0.34589020861478387  1.0000
  C   C603      1.0  0.8108550076904046  0.4154827791432186  0.35112220289670776  1.0000
  C   C604      1.0  0.79438682418923  0.3654138843155931  0.34218356646727305  1.0000
  H   H905      1.0  0.7879457755070934  0.3795119332240384  0.4066818855120933  1.0000
  H   H906      1.0  0.8272238208022566  0.38813675396162833  0.40939467857933465  1.0000
  H   H907      1.0  0.8149254387821949  0.3511271488513102  0.40272859438957653  1.0000
  H   H908      1.0  0.8515507311593623  0.38315369742560584  0.3179271756823544  1.0000
  H   H909      1.0  0.8639305245351503  0.39001630284911737  0.3582257379125282  1.0000
  H   H910      1.0  0.8514768899334884  0.3530689248020616  0.3509430097055684  1.0000
  H   H911      1.0  0.8261722703089656  0.4296661206165538  0.3640513983985569  1.0000
  H   H912      1.0  0.7872852534614638  0.4208061228974905  0.3597163130628507  1.0000
  H   H913      1.0  0.8148879151693187  0.4225824999779471  0.3233456976752851  1.0000
  H   H914      1.0  0.7972377844850681  0.37092196734574423  0.31406724020073157  1.0000
  H   H915      1.0  0.7705919658375435  0.3693930721720723  0.3514435051521669  1.0000
  H   H916      1.0  0.7977080515901493  0.34104572172825454  0.34745449411714896  1.0000
  N   N56       1.0  0.08950252955677573  0.4723005342258109  0.6610986057038638  1.0000
  C   C605      1.0  0.0974813782601971  0.45611195597046644  0.6310533714278325  1.0000
  C   C606      1.0  0.09661137791987362  0.5045988615981623  0.6521316728782064  1.0000
  C   C607      1.0  0.10706384439423111  0.4612537021437593  0.68900069258539  1.0000
  C   C608      1.0  0.056895085470715756  0.46733390764980387  0.6722381205153712  1.0000
  H   H917      1.0  0.09281346226722498  0.43161301813539626  0.6370838386392595  1.0000
  H   H918      1.0  0.12184008443043237  0.45981070907039046  0.6216613924349783  1.0000
  H   H919      1.0  0.08436767670046486  0.4635836231358161  0.6095917774814567  1.0000
  H   H920      1.0  0.09052229125317801  0.5175160929120772  0.6741411985031307  1.0000
  H   H921      1.0  0.12113880820049916  0.50920238017867  0.6442653780597576  1.0000
  H   H922      1.0  0.08427381431359415  0.5136441196500929  0.6306992370525503  1.0000
  H   H923      1.0  0.10230076021841916  0.4736517321173753  0.7116940442931308  1.0000
  H   H924      1.0  0.1317971514428775  0.46390562779022987  0.6811885591877  1.0000
  H   H925      1.0  0.10161728851775509  0.4371566769606932  0.6973110694101261  1.0000
  H   H926      1.0  0.049901475635881765  0.4800446491604068  0.6941319311166964  1.0000
  H   H927      1.0  0.050795883700051725  0.4433375202476024  0.6805977680788963  1.0000
  H   H928      1.0  0.042913263579125394  0.4744979323935468  0.6515012460121741  1.0000
  N   N57       1.0  0.5045417276640597  0.9837545325110877  0.2175869886756032  1.0000
  C   C609      1.0  0.5203804482481298  0.007972517140498738  0.19380365510827494  1.0000
  C   C610      1.0  0.4753865170278972  0.9941039330802938  0.23211904878180387  1.0000
  C   C611      1.0  0.5232719469654581  0.9754289265107203  0.24532802781150884  1.0000
  C   C612      1.0  0.4990735996996895  0.957461723248488  0.199134392239012  1.0000
  H   H929      1.0  0.5073121095662736  0.014035492527802116  0.17191064817553858  1.0000
  H   H930      1.0  0.5429025497560013  0.0013442268586114615  0.18315176926671486  1.0000
  H   H931      1.0  0.5238594286056573  0.0286241562053684  0.20652572576275585  1.0000
  H   H932      1.0  0.46312615104485516  0.9765946530900832  0.2507463999186386  1.0000
  H   H933      1.0  0.4785801971710116  0.01426454972153146  0.24578523053228069  1.0000
  H   H934      1.0  0.46040535473345107  3.373322703748086e-05  0.21198807427971858  1.0000
  H   H935      1.0  0.5121651756568469  0.9567714881695515  0.26329062465598274  1.0000
  H   H936      1.0  0.5272770950662289  0.9946057149692916  0.26026342935183217  1.0000
  H   H937      1.0  0.5456213605821056  0.9678739691670899  0.2353487766361677  1.0000
  H   H938      1.0  0.4869921081635542  0.9387852520810072  0.21624331807704958  1.0000
  H   H939      1.0  0.5205648611182003  0.9487260171947621  0.18815654364547257  1.0000
  H   H940      1.0  0.4850758535663137  0.9629140507256327  0.17792314410686383  1.0000
  N   N58       1.0  0.46456119994255324  0.7153616459511235  0.0008277183185314563  1.0000
  C   C613      1.0  0.485167447273376  0.692004042433682  0.9909996596179582  1.0000
  C   C614      1.0  0.4330890808536503  0.705087484407246  0.9983163945230483  1.0000
  C   C615      1.0  0.4720636713779123  0.7428990778282341  0.9776797720731019  1.0000
  C   C616      1.0  0.46802135387157323  0.7215159669263034  0.0361372490876013  1.0000
  H   H941      1.0  0.509081116669171  0.6986411724134799  0.9932658283162458  1.0000
  H   H942      1.0  0.48357548685892693  0.6872665583099954  0.9642794846843743  1.0000
  H   H943      1.0  0.4797120601048616  0.6706546001683471  0.0072674286875065155  1.0000
  H   H944      1.0  0.41691812297578457  0.7222659393181068  0.005281473485784005  1.0000
  H   H945      1.0  0.42989079849897577  0.6998485467856415  0.9720618085306953  1.0000
  H   H946      1.0  0.4265866296628466  0.6843847396443621  0.015616701086007545  1.0000
  H   H947      1.0  0.4573488675748709  0.7612578324402364  0.9846038948683624  1.0000
  H   H948      1.0  0.4694383916731973  0.7391803613220947  0.9508059589441693  1.0000
  H   H949      1.0  0.49585689886075224  0.7508267886817764  0.9784959310967823  1.0000
  H   H950      1.0  0.4533266532013664  0.7395710176820818  0.04416530533790275  1.0000
  H   H951      1.0  0.491657957172535  0.728883581393697  0.038999746368083565  1.0000
  H   H952      1.0  0.4620007742700441  0.7013148226684185  0.0543672404803639  1.0000
  N   N59       1.0  0.0675667228973007  0.9877220662872839  0.34053659173710715  1.0000
  C   C617      1.0  0.07489380073120344  0.013644172635873808  0.3587700684615393  1.0000
  C   C618      1.0  0.07484326352120174  0.9956747591039301  0.3035020298218679  1.0000
  C   C619      1.0  0.03508649425797561  0.9792181372760718  0.34804533238262764  1.0000
  C   C620      1.0  0.08548227458271462  0.9623745275860883  0.3519385086587597  1.0000
  H   H953      1.0  0.06192266776243893  0.03327163729833482  0.35083471973912356  1.0000
  H   H954      1.0  0.09925834533299538  0.020498858620522142  0.35379263993715937  1.0000
  H   H955      1.0  0.06967392649680959  0.008587815273431332  0.38674214348776736  1.0000
  H   H956      1.0  0.06121118279797555  0.014278367054566976  0.29400958216032125  1.0000
  H   H957      1.0  0.09900778802889043  0.0030840149358826174  0.2969147425396059  1.0000
  H   H958      1.0  0.06997119149008935  0.9765185896228578  0.2888666386240656  1.0000
  H   H959      1.0  0.02827709658100419  0.9610206951648895  0.3329709643435788  1.0000
  H   H960      1.0  0.020844932577734232  0.9984087646404175  0.34192843637562337  1.0000
  H   H961      1.0  0.02916657941095324  0.9712836729103695  0.37533505170013404  1.0000
  H   H962      1.0  0.08069964337410074  0.9560729428179772  0.37990329109076876  1.0000
  H   H963      1.0  0.11012928800209343  0.9680475568299304  0.3465716640263707  1.0000
  H   H964      1.0  0.08036908416478328  0.9423058081157317  0.3389111697284284  1.0000
  N   N60       1.0  0.03551213633875582  0.4023928140305597  0.06728222462768763  1.0000
  C   C621      1.0  0.06440736376492892  0.4188214196399657  0.06954415025987215  1.0000
  C   C622      1.0  0.020225465404455363  0.4173358182124097  0.03947329707318881  1.0000
  C   C623      1.0  0.015976781537619947  0.4022043663701865  0.09963953623247757  1.0000
  C   C624      1.0  0.041333950427452956  0.37134632473241586  0.06034971984489457  1.0000
  H   H965      1.0  0.07956211328208242  0.4193704707329825  0.045366872540539616  1.0000
  H   H966      1.0  0.07659352110514579  0.40821215337129046  0.09031981637026232  1.0000
  H   H967      1.0  0.060769038834052325  0.44244321021305444  0.07444932366238  1.0000
  H   H968      1.0  0.9987154681764776  0.40507238550202723  0.03634810229322194  1.0000
  H   H969      1.0  0.014740278584079107  0.44057047860077747  0.04424689564952189  1.0000
  H   H970      1.0  0.03472761948280635  0.41871766673981686  0.014861639995858322  1.0000
  H   H971      1.0  0.9940567921951164  0.38982230689035235  0.09862643896963541  1.0000
  H   H972      1.0  0.010814412080090156  0.4253602067248763  0.10511497235094036  1.0000
  H   H973      1.0  0.026795073191659982  0.39118807666018374  0.12135434725399552  1.0000
  H   H974      1.0  0.019976259908455432  0.35830317469980033  0.058411871039439456  1.0000
  H   H975      1.0  0.05287787073597104  0.3592803683227089  0.08080385787570799  1.0000
  H   H976      1.0  0.05577737812847223  0.37066257264421937  0.03589075120996266  1.0000
  N   N61       1.0  0.7521502141204583  0.4658431688746753  0.5330410208433829  1.0000
  C   C625      1.0  0.7533591936437711  0.47629588532010464  0.5670063406772274  1.0000
  C   C626      1.0  0.7617871701988532  0.4347538740281947  0.5338368259497118  1.0000
  C   C627      1.0  0.7725313990968973  0.4852755877464417  0.5077461192425854  1.0000
  C   C628      1.0  0.7209694432709116  0.4670118396626257  0.5236165339568395  1.0000
  H   H977      1.0  0.7457183463236738  0.49951353537324605  0.5675387542300375  1.0000
  H   H978      1.0  0.7767276970035217  0.47615547433667993  0.5745722403586533  1.0000
  H   H979      1.0  0.7387092426992891  0.4617957398412281  0.586838124985945  1.0000
  H   H980      1.0  0.7851107287175613  0.4330011929888852  0.5413431377335648  1.0000
  H   H981      1.0  0.7466775009648245  0.4194637345453679  0.5524516612642056  1.0000
  H   H982      1.0  0.7614564344393407  0.42624307114728466  0.5084767853820972  1.0000
  H   H983      1.0  0.7657848986416199  0.5088663998154455  0.5063947325287276  1.0000
  H   H984      1.0  0.7723272576119725  0.4779644406904402  0.48184641494985053  1.0000
  H   H985      1.0  0.7962790038944982  0.4849653459627966  0.5141363373454132  1.0000
  H   H986      1.0  0.7193673557024352  0.45971119154645396  0.4978718924576815  1.0000
  H   H987      1.0  0.7126503742413177  0.4900248825149227  0.5234119958156033  1.0000
  H   H988      1.0  0.7050906260300447  0.45208336483476796  0.5417295336999245  1.0000
  N   N62       1.0  0.2701404060792338  0.48435595614027416  0.5497107080059344  1.0000
  C   C629      1.0  0.289909755376332  0.4627530591850648  0.5339690173323555  1.0000
  C   C630      1.0  0.26755583356011514  0.47798571239131893  0.5871503141259815  1.0000
  C   C631      1.0  0.23992237289671842  0.48173161452299396  0.537787352986724  1.0000
  C   C632      1.0  0.2831952477574082  0.5149944712517691  0.5398373199109815  1.0000
  H   H989      1.0  0.31292535465302446  0.4640389176542411  0.5423374961193814  1.0000
  H   H990      1.0  0.29244666871079406  0.46712103773911384  0.5057302256441149  1.0000
  H   H991      1.0  0.2806997447497768  0.43936829849673975  0.5405797668613596  1.0000
  H   H992      1.0  0.2899553375753262  0.48007587116890893  0.5970055500747014  1.0000
  H   H993      1.0  0.25241036207913975  0.49366422619201317  0.599795182106111  1.0000
  H   H994      1.0  0.25804526751101753  0.4549229092181228  0.5954735079487262  1.0000
  H   H995      1.0  0.22448613168312362  0.4981040301324581  0.5486323203981529  1.0000
  H   H996      1.0  0.2292659252007544  0.45897454765867146  0.5450095196273016  1.0000
  H   H997      1.0  0.24115727367182768  0.4859337602542995  0.509623849151045  1.0000
  H   H998      1.0  0.2854877459362749  0.5205104944830841  0.5117215606776926  1.0000
  H   H999      1.0  0.30611155471806545  0.5177509484839178  0.548208590837379  1.0000
  H   H1000     1.0  0.2687729218560344  0.5319071617116262  0.5511625262523911  1.0000
  N   N63       1.0  0.4066315814165998  0.5472094582044355  0.36753961356998804  1.0000
  C   C633      1.0  0.41837750014572855  0.578011439400259  0.355793735195738  1.0000
  C   C634      1.0  0.37372179859134097  0.5449904326182354  0.36545776873680735  1.0000
  C   C635      1.0  0.4126803088765757  0.5396467380777282  0.40318630961555973  1.0000
  C   C636      1.0  0.4217799756456528  0.5261568340957912  0.345830329498329  1.0000
  H   H1001     1.0  0.40742991856635696  0.5946299524716799  0.37140550232377945  1.0000
  H   H1002     1.0  0.41449220308668805  0.5845283592380118  0.32886746683441687  1.0000
  H   H1003     1.0  0.44311844001237566  0.5805790996965287  0.3573023957354566  1.0000
  H   H1004     1.0  0.3640762576550834  0.5220548381630037  0.3743683297557379  1.0000
  H   H1005     1.0  0.36155709651638174  0.5604130949031083  0.38177065534647137  1.0000
  H   H1006     1.0  0.36822152874759695  0.5505022567287547  0.3389310908355085  1.0000
  H   H1007     1.0  0.4041228458553538  0.5165530109838997  0.41273255284025406  1.0000
  H   H1008     1.0  0.40150441963875194  0.5549569793401765  0.42038436924084627  1.0000
  H   H1009     1.0  0.4373061028350512  0.5407971844706877  0.40582228886366617  1.0000
  H   H1010     1.0  0.4133203454253593  0.5027049305478876  0.35381222607631585  1.0000
  H   H1011     1.0  0.44655306886126345  0.5268193418044856  0.34746830128496814  1.0000
  H   H1012     1.0  0.41811131438310695  0.5313805131729569  0.3186001040368027  1.0000
  N   N64       1.0  0.4861922158712559  0.8801385342985851  0.8496413433360622  1.0000
  C   C637      1.0  0.5077674931101965  0.904849494830835  0.8539100956783057  1.0000
  C   C638      1.0  0.5016652647017481  0.8583651229726535  0.8292630511454141  1.0000
  C   C639      1.0  0.46095390977439576  0.8922515336716377  0.8319967463752704  1.0000
  C   C640      1.0  0.47443016231669205  0.8650699752281561  0.8833901425152861  1.0000
  H   H1013     1.0  0.49705312872403556  0.9212908753027929  0.8699739766235797  1.0000
  H   H1014     1.0  0.5164803380952077  0.9171796429544261  0.8290550607774908  1.0000
  H   H1015     1.0  0.5275076625620069  0.8965292744180665  0.8664573035976242  1.0000
  H   H1016     1.0  0.5101106998312831  0.8687697433326319  0.8033130331833034  1.0000
  H   H1017     1.0  0.5213547293366619  0.8494049256295894  0.8414005508119017  1.0000
  H   H1018     1.0  0.48623246128411163  0.8390620791266737  0.8262200407555798  1.0000
  H   H1019     1.0  0.4439799588888852  0.8743340930855051  0.8287167618458471  1.0000
  H   H1020     1.0  0.46909492800592834  0.9033079308679755  0.8061742878278373  1.0000
  H   H1021     1.0  0.44911691989159513  0.9092106163891653  0.8463600146057859  1.0000
  H   H1022     1.0  0.4579146104870033  0.8464173247146467  0.8812569258640165  1.0000
  H   H1023     1.0  0.46301548241809015  0.8809385323320038  0.8997190505366458  1.0000
  H   H1024     1.0  0.49297423714126637  0.8555746325231367  0.8972226392352425  1.0000
