data_image0
_chemical_formula_structural       FeSHFeS2FeHFeS3H2FeS2FeS2FeSFeS3HCHCH5NH3C2H2CHC5H6CH2CHCHCH2CH4C2NCHC2H4CHC3H4C7H4C5HSHCH3CHCH6CNH4SH6CNSNC4H7SC2H2C2HC2HCH4CNH5SHCHC2HC2H5CHC2H2CHFeSHCHSC2HFeHSCSHFeS2FeCFeCFeS3CFeNFeS2FeSFeSHSC6H4C7H5SHFeHSHSH2CSC3HCH2CHC3H10SHCH3C3FeHSHCHFeHCHFeHC3Fe2H2SCH3C2NSHSHCSCHSC3HCH2CH2SH3C2HNSHCH3CH4SHNC4H12CHNCHC2H8S2H7C2H4CHCSC2FeS2FeS2FeSFeS3CSHFeS2FeSFeS3HC3H6SC5H3C6H4C6H4C6HCH2C2H5CH2C2H2CHCHCNHCH2FeH6NC4H13CHCH2C3HCH5SH4NCH4N2CH2CHCSHCH2CH2NHCH2CHCHNCH4CH4CH4NHCH7S2CHSFeHCHCFeS4H2CHCFeCSFeSC2NSC5H2CSFeH2SCHCHFe3H2CHC4HCHFeCHS2HSH2CH2CSCHC3NCHSH2C2NHS3HCNC4H15CH4CHFeC2SHCFeSHNCHCSCSHFeH3FeH2SH2SC2FeH5CH2C2HCHC3H4CSHFe2H13FeH2SCH3CH3CHFeS2FeS2FeSFeS3H2FeS2FeS2FeHFeS3CH2CH3CH2C4NH2C3HC2HCH2CH2SHC2H2CH3CH2CHC2HC4H5C3H2CH3C6H4C6H6NH2NH5CH2NH2CHSH7C2H2C2HNH3CH3CNC2H3CH2CH3SHNCH5CHCH3CH3CHCFeSFeHSCFeHFeC2HSCFe2HFeSNHSHFeS2FeSFeSH2S2H2CFeS4NHC8H4C3HC2H3CFeH4C2SH3SC3H5CHNSHCH3SCHC2H2SH2CH3S2HC2H3CH2CFeCH2SHCH2FeH2CH2C2H2C2HC3H2CNH2CHCSC2H3C2H5NHCHCH6CHFeS2FeS2FeSFeS3HSHFeS2FeSFeS3C5H3C2HC5H3C6H4C3H7C6H4CHSFeH5C4FeH2SH4CHSH2NCH9CHCHNC4H14C3SH3NC4H8SCH2C2FeH2NH2CHNCH4CSHCNCHCSNH4SHC3H2CHCHCHSC2H3FeH3C2HCHSH2FeHCFeS5HSHSFeC2FeSC7SH2FeH3SH3SC2H3CHC5H2CH2SCSFe2CSHNHSH3C4H2CH4CH6CH6CSHCH2C2HC2H4CSCHS2C2HFe2CFeCH2Fe2CHCH2C2HSHCHCS3NCH3NH2CHC2HC2H2S2H2S2CSHFeHCH2FeHFeCSH2SH3CNCHNCHCH2FeS2FeS2FeCFeSHSH2FeS2FeS2FeHFeS3H4CH2C2H2CS2HSNC6H4C2H2C2H2C2HNH3CH2C2H9SC4H3C8H4C8H2NHNH9CH2CHCHCH2C2SC3H4NH2C2H6C2H11CHCNH2CHCH4C2SCH3CHFeSCSH3SHCH4SFeS2H2FeSH2SC3HFeS2H2FeSNC7H4C4HSCHSHCNC2H2CHFeS2C4HNH2CHSC4H2CHFeSHCNFeHSHCFe2H5FeHCSC2HSCSCSCH2SH3C2H4CHCFeSCH5FeC2SH5CHFeHCH4CH3FeHCH3FeH3FeS2FeS2FeSFeS3HSHFeS2FeSFeS3C3H3NH3CHC5H2C6H4C3H4SNFeC6HCH7SCH3C2H4C3NHC2HNH2CHCHCHSH6NHCH2CHCH3CHC2HC2H6C3H9C3H3NH2CH2CHCH2NC3H3CH4CH3CHCHCH2CH2C2H7CHCH2CHFeSH2FeHSH2FeHCSHCHFeS4HNH3SH2FeS2FeCHC5H3C2NCS2FeH2FeHC3SHC5H3CSCHCH3CH2SH2C2HSCHFeHCHCHC3S2H2CHCH2NH2C2S2FeCHSFeSHC2HFeHS2FeHCSH2CHFeCH2SHFeC2HCHSH2CHCHSH3C2HCH3CH2SH2CH4C2HSHSCNFeS2FeS2FeSFeS3H2FeS2FeS2FeSFeS3H2CHCHC2HNH2CH2SC7H4CH7CH3CHCH3NC3H2C2H3CHC3HC2H2C6H4C6H4C2NC2H6CHNH15NHCHCH2CHCH2SH4C2H2NHC2H2NH2SHCHC2HCHC2H3CHNC2FeHCHCHCHSHCH4CFeSC2SHFeS2Fe3CFeS3H3FeS2FeSFeS3C6H4C6H5CH2CNHCH4C3FeSH3C2HCSCHCH4NH4C2H7CH3C3H3CHC2HNH2CH4C2HSH2CH2SC2HCFeHC2SHSCHC2FeCHNH2SCH2S2HCS2H4SC2H4SHCH2SH3C2H2FeCSHCH2NH7CNFeS2FeS2FeSFeS5CFeS2FeSFeS3C3HCH5C6H3C6H4C3HC2H4C6HCH3CH2C2HNH2C3HSH3CHCFeHNH4CHSH2CHNC2H7C2HCH4CHNH3CH2CH5C2SH2CHCSCHSH7CH4C2H2CH4C2HCNHCH2NH6CH7CHCH2FeNHCH3NCHCH4NHFeH3FeH2S3HFeS4H3S2CNHFeSH2CSC4H2Fe2C2HCHSCSC2HSH3SC6HCH3CFeHCHCH5Fe2HCHSC3H2SCHC2HC3NC3HCH10CFeHSCHC2H4CSFeS2FeH3CH3CHSHFe2H3FeCSHS2H3CNC2SHCNCSH2C4H8SHSFe2
_chemical_formula_sum              "Fe192 S384 H1536 C960 N96"
_cell_length_a       48.4605
_cell_length_b       48.9522
_cell_length_c       59.1131
_cell_angle_alpha    90.0624
_cell_angle_beta     89.9596
_cell_angle_gamma    120.002

_space_group_name_H-M_alt    "P 1"
_space_group_IT_number       1

loop_
  _space_group_symop_operation_xyz
  'x, y, z'

loop_
  _atom_site_type_symbol
  _atom_site_label
  _atom_site_symmetry_multiplicity
  _atom_site_fract_x
  _atom_site_fract_y
  _atom_site_fract_z
  _atom_site_occupancy
  Fe  Fe1       1.0  0.42362  0.45280  0.09817  1.0000
  S   S1        1.0  0.41811  0.41051  0.07965  1.0000
  H   H1        1.0  0.21411  0.34010  0.19515  1.0000
  Fe  Fe2       1.0  0.42624  0.42560  0.14354  1.0000
  S   S2        1.0  0.42174  0.38162  0.12821  1.0000
  S   S3        1.0  0.42856  0.42865  0.18138  1.0000
  Fe  Fe3       1.0  0.45699  0.41448  0.10246  1.0000
  H   H2        1.0  0.12655  0.03154  0.18388  1.0000
  Fe  Fe4       1.0  0.38356  0.38287  0.10722  1.0000
  S   S4        1.0  0.33550  0.33945  0.10117  1.0000
  S   S5        1.0  0.46431  0.45857  0.11962  1.0000
  S   S6        1.0  0.38647  0.42512  0.12398  1.0000
  H   H3        1.0  0.24042  0.47253  0.01293  1.0000
  H   H4        1.0  0.33555  0.27500  0.12011  1.0000
  Fe  Fe5       1.0  0.16020  0.41023  0.13025  1.0000
  S   S7        1.0  0.20159  0.45821  0.12177  1.0000
  S   S8        1.0  0.11652  0.40875  0.14590  1.0000
  Fe  Fe6       1.0  0.20081  0.37852  0.12326  1.0000
  S   S9        1.0  0.24409  0.42391  0.11436  1.0000
  S   S10       1.0  0.20493  0.33455  0.12471  1.0000
  Fe  Fe7       1.0  0.23038  0.44401  0.14329  1.0000
  S   S11       1.0  0.26671  0.47038  0.17033  1.0000
  Fe  Fe8       1.0  0.21089  0.43290  0.09354  1.0000
  S   S12       1.0  0.23074  0.45421  0.05929  1.0000
  S   S13       1.0  0.18885  0.39786  0.15369  1.0000
  S   S14       1.0  0.16760  0.38561  0.10047  1.0000
  H   H5        1.0  0.28236  0.44080  0.98739  1.0000
  C   C1        1.0  0.10009  0.41086  0.20556  1.0000
  H   H6        1.0  0.36988  0.27856  0.13465  1.0000
  C   C2        1.0  0.22885  0.49384  0.18484  1.0000
  H   H7        1.0  0.28548  0.40624  0.07998  1.0000
  H   H8        1.0  0.21870  0.48887  0.16803  1.0000
  H   H9        1.0  0.36718  0.31302  0.12823  1.0000
  H   H10       1.0  0.21159  0.02751  0.21240  1.0000
  H   H11       1.0  0.34436  0.40035  0.03465  1.0000
  N   N1        1.0  0.47807  0.46097  0.02271  1.0000
  H   H12       1.0  0.02192  0.45383  0.03086  1.0000
  H   H13       1.0  0.04391  0.35630  0.98331  1.0000
  H   H14       1.0  0.47014  0.49565  0.16920  1.0000
  C   C3        1.0  0.21105  0.00977  0.20033  1.0000
  C   C4        1.0  0.27252  0.37529  0.21284  1.0000
  H   H15       1.0  0.22503  0.38801  0.21756  1.0000
  H   H16       1.0  0.11128  0.45944  0.17914  1.0000
  C   C5        1.0  0.20814  0.43539  0.03508  1.0000
  H   H17       1.0  0.21124  0.44563  0.97786  1.0000
  C   C6        1.0  0.17488  0.40499  0.99545  1.0000
  C   C7        1.0  0.20264  0.43445  0.99412  1.0000
  C   C8        1.0  0.16379  0.39075  0.01658  1.0000
  C   C9        1.0  0.18031  0.40598  0.03638  1.0000
  C   C10       1.0  0.23299  0.35619  0.18319  1.0000
  H   H18       1.0  0.28512  0.48925  0.21627  1.0000
  H   H19       1.0  0.46683  0.47270  0.99032  1.0000
  H   H20       1.0  0.17143  0.39494  0.05258  1.0000
  H   H21       1.0  0.14399  0.48950  0.19504  1.0000
  H   H22       1.0  0.29412  0.39251  0.17031  1.0000
  H   H23       1.0  0.30154  0.23676  0.14987  1.0000
  C   C11       1.0  0.24355  0.40236  0.20481  1.0000
  H   H24       1.0  0.49520  0.46179  0.17102  1.0000
  H   H25       1.0  0.01579  0.40731  0.13376  1.0000
  C   C12       1.0  0.36210  0.42514  0.03399  1.0000
  H   H26       1.0  0.01648  0.43701  0.99018  1.0000
  C   C13       1.0  0.40902  0.48887  0.03242  1.0000
  H   H27       1.0  0.30413  0.41845  0.05281  1.0000
  C   C14       1.0  0.31495  0.29711  0.15341  1.0000
  H   H28       1.0  0.46879  0.49597  0.19943  1.0000
  H   H29       1.0  0.07690  0.44968  0.21337  1.0000
  C   C15       1.0  0.36168  0.30388  0.17292  1.0000
  H   H30       1.0  0.33591  0.24196  0.16520  1.0000
  H   H31       1.0  0.37936  0.29587  0.17492  1.0000
  H   H32       1.0  0.14227  0.36799  0.01767  1.0000
  H   H33       1.0  0.47072  0.48272  0.05199  1.0000
  C   C16       1.0  0.29905  0.49953  0.97497  1.0000
  C   C17       1.0  0.39296  0.39763  0.19213  1.0000
  N   N2        1.0  0.33739  0.28513  0.15569  1.0000
  C   C18       1.0  0.48767  0.47553  0.04537  1.0000
  H   H34       1.0  0.23202  0.40957  0.19170  1.0000
  C   C19       1.0  0.33616  0.36208  0.18816  1.0000
  C   C20       1.0  0.36445  0.38787  0.18049  1.0000
  H   H35       1.0  0.30684  0.24869  0.17898  1.0000
  H   H36       1.0  0.17400  0.03768  0.16345  1.0000
  H   H37       1.0  0.31441  0.35429  0.17868  1.0000
  H   H38       1.0  0.36401  0.40034  0.16567  1.0000
  C   C21       1.0  0.04432  0.37082  0.09991  1.0000
  H   H39       1.0  0.21397  0.11065  0.20278  1.0000
  C   C22       1.0  0.06071  0.40869  0.13844  1.0000
  C   C23       1.0  0.08171  0.39901  0.13028  1.0000
  C   C24       1.0  0.07358  0.38030  0.11082  1.0000
  H   H40       1.0  0.42829  0.43830  0.03090  1.0000
  H   H41       1.0  0.27519  0.42901  0.06174  1.0000
  H   H42       1.0  0.06681  0.42320  0.15344  1.0000
  H   H43       1.0  0.08947  0.37253  0.10448  1.0000
  C   C25       1.0  0.31968  0.25167  0.16271  1.0000
  C   C26       1.0  0.30007  0.33940  0.10855  1.0000
  C   C27       1.0  0.29987  0.36678  0.11528  1.0000
  C   C28       1.0  0.27094  0.36562  0.12059  1.0000
  C   C29       1.0  0.24201  0.33708  0.11917  1.0000
  C   C30       1.0  0.24235  0.30972  0.11276  1.0000
  C   C31       1.0  0.27112  0.31092  0.10731  1.0000
  H   H44       1.0  0.32183  0.38896  0.11607  1.0000
  H   H45       1.0  0.27117  0.38681  0.12585  1.0000
  H   H46       1.0  0.22016  0.28754  0.11164  1.0000
  H   H47       1.0  0.27087  0.28963  0.10199  1.0000
  C   C32       1.0  0.40092  0.47291  0.05311  1.0000
  C   C33       1.0  0.21922  0.44958  0.01392  1.0000
  C   C34       1.0  0.28254  0.40493  0.17814  1.0000
  C   C35       1.0  0.37188  0.44044  0.01312  1.0000
  C   C36       1.0  0.39486  0.47250  0.01235  1.0000
  H   H48       1.0  0.49272  0.46239  0.20130  1.0000
  S   S15       1.0  0.30081  0.31230  0.21569  1.0000
  H   H49       1.0  0.24488  0.40509  0.02647  1.0000
  C   C37       1.0  0.47723  0.48387  0.00686  1.0000
  H   H50       1.0  0.30189  0.29456  0.16946  1.0000
  H   H51       1.0  0.28202  0.36043  0.20612  1.0000
  H   H52       1.0  0.44624  0.41429  0.03512  1.0000
  C   C38       1.0  0.13086  0.46385  0.19106  1.0000
  H   H53       1.0  0.02859  0.41639  0.18833  1.0000
  C   C39       1.0  0.37675  0.44130  0.05397  1.0000
  H   H54       1.0  0.36996  0.42901  0.07000  1.0000
  H   H55       1.0  0.27290  0.39297  0.01786  1.0000
  H   H56       1.0  0.37497  0.32943  0.16847  1.0000
  H   H57       1.0  0.50152  0.50409  0.00349  1.0000
  H   H58       1.0  0.35054  0.30186  0.18973  1.0000
  H   H59       1.0  0.22121  0.36241  0.16960  1.0000
  C   C40       1.0  0.35321  0.28795  0.13374  1.0000
  N   N3        1.0  0.25791  0.38470  0.19475  1.0000
  H   H60       1.0  0.20271  0.01359  0.18374  1.0000
  H   H61       1.0  0.11519  0.40328  0.19634  1.0000
  H   H62       1.0  0.29691  0.28424  0.14002  1.0000
  H   H63       1.0  0.40203  0.48465  0.99634  1.0000
  S   S16       1.0  0.50165  0.42028  0.08547  1.0000
  H   H64       1.0  0.07973  0.40596  0.19428  1.0000
  H   H65       1.0  0.32763  0.32256  0.14878  1.0000
  H   H66       1.0  0.31618  0.45084  0.00519  1.0000
  H   H67       1.0  0.48822  0.36147  0.10712  1.0000
  H   H68       1.0  0.24309  0.34259  0.17500  1.0000
  H   H69       1.0  0.02429  0.34006  0.16121  1.0000
  C   C41       1.0  0.12476  0.01229  0.17375  1.0000
  N   N4        1.0  0.11846  0.44460  0.21178  1.0000
  S   S17       1.0  0.35537  0.41891  0.98827  1.0000
  N   N5        1.0  0.25551  0.38042  0.05189  1.0000
  C   C42       1.0  0.26414  0.35546  0.05317  1.0000
  C   C43       1.0  0.22557  0.37034  0.06446  1.0000
  C   C44       1.0  0.25100  0.38606  0.02798  1.0000
  C   C45       1.0  0.28123  0.40983  0.06199  1.0000
  H   H70       1.0  0.28672  0.36229  0.04396  1.0000
  H   H71       1.0  0.24519  0.33287  0.04581  1.0000
  H   H72       1.0  0.26764  0.35059  0.07098  1.0000
  H   H73       1.0  0.22807  0.36580  0.08252  1.0000
  H   H74       1.0  0.21857  0.38877  0.06406  1.0000
  H   H75       1.0  0.20546  0.34828  0.05737  1.0000
  H   H76       1.0  0.23118  0.36454  0.02004  1.0000
  S   S18       1.0  0.42387  0.49100  0.07720  1.0000
  C   C46       1.0  0.03175  0.39971  0.12730  1.0000
  C   C47       1.0  0.15157  0.01577  0.16213  1.0000
  H   H77       1.0  0.28603  0.50461  0.98831  1.0000
  H   H78       1.0  0.03788  0.35582  0.08513  1.0000
  C   C48       1.0  0.50788  0.47518  0.18647  1.0000
  C   C49       1.0  0.25295  0.48722  0.19033  1.0000
  H   H79       1.0  0.43750  0.42169  0.00705  1.0000
  C   C50       1.0  0.39304  0.38165  0.21174  1.0000
  C   C51       1.0  0.30097  0.45986  0.99807  1.0000
  H   H80       1.0  0.08184  0.01429  0.09741  1.0000
  C   C52       1.0  0.44612  0.43256  0.02401  1.0000
  H   H81       1.0  0.48820  0.45885  0.05786  1.0000
  H   H82       1.0  0.35304  0.47448  0.97311  1.0000
  H   H83       1.0  0.28869  0.46412  0.01244  1.0000
  H   H84       1.0  0.46255  0.49363  0.01354  1.0000
  C   C53       1.0  0.06648  0.37898  0.98072  1.0000
  N   N6        1.0  0.32017  0.48891  0.98478  1.0000
  H   H85       1.0  0.06586  0.39713  0.99173  1.0000
  H   H86       1.0  0.26186  0.42442  0.21319  1.0000
  H   H87       1.0  0.08639  0.37565  0.98688  1.0000
  H   H88       1.0  0.27212  0.41226  0.16423  1.0000
  H   H89       1.0  0.14742  0.45824  0.18174  1.0000
  S   S19       1.0  0.15367  0.38576  0.97092  1.0000
  H   H90       1.0  0.23599  0.01500  0.19790  1.0000
  C   C54       1.0  0.02330  0.38043  0.10813  1.0000
  H   H91       1.0  0.30152  0.42698  0.18611  1.0000
  C   C55       1.0  0.33624  0.34576  0.20749  1.0000
  C   C56       1.0  0.26638  0.49425  0.21200  1.0000
  H   H92       1.0  0.49401  0.43988  0.99786  1.0000
  C   C57       1.0  0.51378  0.37670  0.10600  1.0000
  C   C58       1.0  0.50119  0.45183  0.01462  1.0000
  H   H93       1.0  0.50315  0.43541  0.02669  1.0000
  H   H94       1.0  0.01698  0.34377  0.19069  1.0000
  H   H95       1.0  0.51177  0.49690  0.04503  1.0000
  H   H96       1.0  0.16218  0.44444  0.21774  1.0000
  H   H97       1.0  0.04282  0.00664  0.08938  1.0000
  C   C59       1.0  0.04029  0.40533  0.37044  1.0000
  H   H98       1.0  0.41481  0.45536  0.44937  1.0000
  C   C60       1.0  0.21779  0.10553  0.21992  1.0000
  C   C61       1.0  0.18097  0.17228  0.24950  1.0000
  H   H99       1.0  0.10304  0.39610  0.29747  1.0000
  H   H100      1.0  0.17970  0.11804  0.24742  1.0000
  C   C62       1.0  0.45864  0.50028  0.44829  1.0000
  H   H101      1.0  0.04794  0.04836  0.35460  1.0000
  Fe  Fe9       1.0  0.12569  0.01088  0.25673  1.0000
  S   S20       1.0  0.20894  0.44729  0.33522  1.0000
  H   H102      1.0  0.41513  0.38901  0.22073  1.0000
  C   C63       1.0  0.14536  0.45011  0.22657  1.0000
  H   H103      1.0  0.15725  0.44197  0.30545  1.0000
  S   S21       1.0  0.07702  0.07499  0.27945  1.0000
  C   C64       1.0  0.05478  0.36575  0.36244  1.0000
  C   C65       1.0  0.16688  0.12014  0.26227  1.0000
  H   H104      1.0  0.10287  0.39996  0.39102  1.0000
  Fe  Fe10      1.0  0.09661  0.15185  0.43237  1.0000
  H   H105      1.0  0.21382  0.15090  0.29182  1.0000
  S   S22       1.0  0.17838  0.03005  0.26232  1.0000
  C   C66       1.0  0.12018  0.07891  0.31132  1.0000
  S   S23       1.0  0.13595  0.14066  0.43534  1.0000
  H   H106      1.0  0.12820  0.06826  0.29894  1.0000
  Fe  Fe11      1.0  0.29184  0.24761  0.28351  1.0000
  S   S24       1.0  0.31596  0.21972  0.27598  1.0000
  S   S25       1.0  0.26160  0.24020  0.31422  1.0000
  Fe  Fe12      1.0  0.30951  0.28083  0.23844  1.0000
  C   C67       1.0  0.41388  0.48480  0.42275  1.0000
  Fe  Fe13      1.0  0.29324  0.21206  0.24176  1.0000
  C   C68       1.0  0.36467  0.35545  0.21932  1.0000
  Fe  Fe14      1.0  0.35536  0.26575  0.26167  1.0000
  S   S26       1.0  0.40636  0.27877  0.26914  1.0000
  S   S27       1.0  0.26655  0.23702  0.25033  1.0000
  S   S28       1.0  0.33290  0.29420  0.27254  1.0000
  C   C69       1.0  0.25560  0.40642  0.36513  1.0000
  Fe  Fe15      1.0  0.32431  0.35849  0.46453  1.0000
  N   N7        1.0  0.26984  0.43417  0.38030  1.0000
  Fe  Fe16      1.0  0.33394  0.34109  0.41732  1.0000
  S   S29       1.0  0.31642  0.37092  0.40110  1.0000
  S   S30       1.0  0.34831  0.31043  0.39821  1.0000
  Fe  Fe17      1.0  0.34684  0.40741  0.42699  1.0000
  S   S31       1.0  0.37468  0.45761  0.41343  1.0000
  Fe  Fe18      1.0  0.27816  0.35082  0.42759  1.0000
  S   S32       1.0  0.22688  0.33656  0.42084  1.0000
  H   H107      1.0  0.23177  0.08632  0.28095  1.0000
  S   S33       1.0  0.29322  0.31816  0.44169  1.0000
  C   C70       1.0  0.28540  0.25955  0.33762  1.0000
  C   C71       1.0  0.28884  0.28833  0.34473  1.0000
  C   C72       1.0  0.30756  0.30372  0.36370  1.0000
  C   C73       1.0  0.32292  0.29039  0.37553  1.0000
  C   C74       1.0  0.31922  0.26144  0.36849  1.0000
  C   C75       1.0  0.30033  0.24592  0.34960  1.0000
  H   H108      1.0  0.27720  0.29884  0.33550  1.0000
  H   H109      1.0  0.31071  0.32625  0.36877  1.0000
  H   H110      1.0  0.33107  0.25106  0.37763  1.0000
  H   H111      1.0  0.29752  0.22353  0.34418  1.0000
  C   C76       1.0  0.14027  0.23759  0.43199  1.0000
  C   C77       1.0  0.17102  0.24213  0.43530  1.0000
  C   C78       1.0  0.19816  0.27237  0.43207  1.0000
  C   C79       1.0  0.19449  0.29789  0.42520  1.0000
  C   C80       1.0  0.16379  0.29303  0.42197  1.0000
  C   C81       1.0  0.13699  0.26330  0.42555  1.0000
  C   C82       1.0  0.09027  0.42008  0.35209  1.0000
  H   H112      1.0  0.22176  0.27588  0.43482  1.0000
  H   H113      1.0  0.16058  0.31246  0.41678  1.0000
  H   H114      1.0  0.11342  0.26017  0.42319  1.0000
  H   H115      1.0  0.14089  0.48084  0.37898  1.0000
  H   H116      1.0  0.23017  0.41381  0.40329  1.0000
  S   S34       1.0  0.06098  0.11020  0.45309  1.0000
  H   H117      1.0  0.02177  0.38923  0.38265  1.0000
  Fe  Fe19      1.0  0.02883  0.33106  0.29941  1.0000
  H   H118      1.0  0.24184  0.38408  0.37487  1.0000
  S   S35       1.0  0.14442  0.11135  0.37520  1.0000
  H   H119      1.0  0.11183  0.41751  0.35173  1.0000
  S   S36       1.0  0.07112  0.33055  0.31494  1.0000
  H   H120      1.0  0.48423  0.49139  0.37035  1.0000
  H   H121      1.0  0.17915  0.05736  0.21867  1.0000
  C   C83       1.0  0.14960  0.41949  0.31351  1.0000
  S   S37       1.0  0.02321  0.38553  0.23062  1.0000
  C   C84       1.0  0.24213  0.12928  0.23302  1.0000
  C   C85       1.0  0.24708  0.12225  0.25510  1.0000
  C   C86       1.0  0.19789  0.07533  0.22897  1.0000
  H   H122      1.0  0.19087  0.19754  0.25411  1.0000
  C   C87       1.0  0.42790  0.47783  0.44082  1.0000
  H   H123      1.0  0.26611  0.14021  0.26522  1.0000
  H   H124      1.0  0.15387  0.08210  0.33644  1.0000
  C   C88       1.0  0.17029  0.41612  0.32845  1.0000
  H   H125      1.0  0.04868  0.43000  0.37607  1.0000
  C   C89       1.0  0.44957  0.34269  0.25913  1.0000
  C   C90       1.0  0.44445  0.31295  0.26594  1.0000
  C   C91       1.0  0.47067  0.30989  0.27193  1.0000
  H   H126      1.0  0.16049  0.14269  0.30269  1.0000
  H   H127      1.0  0.17580  0.38392  0.35019  1.0000
  H   H128      1.0  0.42953  0.34536  0.25428  1.0000
  H   H129      1.0  0.46711  0.28717  0.27718  1.0000
  H   H130      1.0  0.16876  0.10564  0.27598  1.0000
  H   H131      1.0  0.04747  0.01693  0.37030  1.0000
  H   H132      1.0  0.48981  0.46428  0.38762  1.0000
  H   H133      1.0  0.19618  0.17137  0.23567  1.0000
  H   H134      1.0  0.13692  0.43549  0.24218  1.0000
  H   H135      1.0  0.36488  0.34270  0.23419  1.0000
  S   S38       1.0  0.26517  0.16737  0.22117  1.0000
  H   H136      1.0  0.42771  0.36483  0.31093  1.0000
  C   C92       1.0  0.21304  0.16567  0.27781  1.0000
  H   H137      1.0  0.38485  0.34567  0.31002  1.0000
  H   H138      1.0  0.48493  0.39203  0.25362  1.0000
  H   H139      1.0  0.37536  0.27787  0.31011  1.0000
  C   C93       1.0  0.08275  0.40482  0.39140  1.0000
  C   C94       1.0  0.24420  0.43548  0.39294  1.0000
  C   C95       1.0  0.50156  0.33583  0.27132  1.0000
  Fe  Fe20      1.0  0.22842  0.49616  0.32042  1.0000
  H   H140      1.0  0.15663  0.16337  0.24248  1.0000
  S   S39       1.0  0.30642  0.39013  0.45207  1.0000
  H   H141      1.0  0.22316  0.19010  0.28437  1.0000
  C   C96       1.0  0.16040  0.15564  0.28728  1.0000
  H   H142      1.0  0.04031  0.01716  0.30768  1.0000
  Fe  Fe21      1.0  0.11433  0.11216  0.40382  1.0000
  H   H143      1.0  0.09484  0.12081  0.35530  1.0000
  C   C97       1.0  0.49441  0.48889  0.38658  1.0000
  H   H144      1.0  0.40532  0.33075  0.29345  1.0000
  Fe  Fe22      1.0  0.08007  0.03492  0.26323  1.0000
  H   H145      1.0  0.39923  0.31952  0.36523  1.0000
  C   C98       1.0  0.10179  0.10886  0.34323  1.0000
  C   C99       1.0  0.12989  0.36117  0.33410  1.0000
  C   C100      1.0  0.20271  0.06827  0.25104  1.0000
  Fe  Fe23      1.0  0.09951  0.09736  0.45373  1.0000
  Fe  Fe24      1.0  0.04565  0.08312  0.42032  1.0000
  H   H146      1.0  0.12258  0.33867  0.34209  1.0000
  H   H147      1.0  0.42271  0.35833  0.35342  1.0000
  S   S40       1.0  0.11353  0.04075  0.23506  1.0000
  C   C101      1.0  0.43177  0.31707  0.32898  1.0000
  H   H148      1.0  0.43341  0.30569  0.31313  1.0000
  H   H149      1.0  0.45413  0.34025  0.33035  1.0000
  H   H150      1.0  0.43114  0.30201  0.34329  1.0000
  C   C102      1.0  0.13512  0.08723  0.33250  1.0000
  C   C103      1.0  0.29172  0.43147  0.39638  1.0000
  N   N8        1.0  0.40328  0.32075  0.32892  1.0000
  S   S41       1.0  0.09443  0.48866  0.40450  1.0000
  H   H151      1.0  0.13514  0.14539  0.28174  1.0000
  S   S42       1.0  0.36705  0.37863  0.44154  1.0000
  H   H152      1.0  0.04277  0.36048  0.34565  1.0000
  C   C104      1.0  0.37445  0.28952  0.32604  1.0000
  S   S43       1.0  0.10491  0.20134  0.43713  1.0000
  C   C105      1.0  0.48094  0.36914  0.25876  1.0000
  H   H153      1.0  0.15924  0.47523  0.23199  1.0000
  S   S44       1.0  0.08208  0.06777  0.42246  1.0000
  C   C106      1.0  0.11889  0.39354  0.30901  1.0000
  C   C107      1.0  0.09591  0.08537  0.30600  1.0000
  C   C108      1.0  0.14665  0.50512  0.37763  1.0000
  H   H154      1.0  0.14129  0.10923  0.25751  1.0000
  C   C109      1.0  0.40132  0.33478  0.35059  1.0000
  H   H155      1.0  0.35264  0.29159  0.32528  1.0000
  H   H156      1.0  0.37163  0.27336  0.34019  1.0000
  C   C110      1.0  0.40544  0.34151  0.31005  1.0000
  H   H157      1.0  0.27423  0.40460  0.35533  1.0000
  H   H158      1.0  0.02003  0.45919  0.35704  1.0000
  S   S45       1.0  0.02849  0.37634  0.29643  1.0000
  H   H159      1.0  0.07988  0.41487  0.33476  1.0000
  H   H160      1.0  0.07437  0.36018  0.36108  1.0000
  H   H161      1.0  0.17372  0.22258  0.44091  1.0000
  C   C111      1.0  0.22763  0.09172  0.26397  1.0000
  C   C112      1.0  0.09757  0.45364  0.22397  1.0000
  H   H162      1.0  0.38002  0.33780  0.35116  1.0000
  N   N9        1.0  0.18030  0.15342  0.26922  1.0000
  S   S46       1.0  0.33464  0.25545  0.22665  1.0000
  H   H163      1.0  0.08769  0.43945  0.23967  1.0000
  C   C113      1.0  0.12559  0.10172  0.34867  1.0000
  H   H164      1.0  0.22729  0.43754  0.38123  1.0000
  H   H165      1.0  0.06576  0.38968  0.40474  1.0000
  H   H166      1.0  0.16925  0.18057  0.29232  1.0000
  C   C114      1.0  0.10904  0.36424  0.31936  1.0000
  H   H167      1.0  0.23899  0.40781  0.35274  1.0000
  H   H168      1.0  0.22923  0.16630  0.26425  1.0000
  H   H169      1.0  0.09267  0.42982  0.39677  1.0000
  H   H170      1.0  0.11068  0.47896  0.22896  1.0000
  S   S47       1.0  0.07728  0.12614  0.39945  1.0000
  H   H171      1.0  0.03716  0.34910  0.37488  1.0000
  N   N10       1.0  0.19810  0.20805  0.37712  1.0000
  C   C115      1.0  0.20538  0.19524  0.35676  1.0000
  C   C116      1.0  0.21822  0.24280  0.37725  1.0000
  C   C117      1.0  0.20481  0.19499  0.39757  1.0000
  C   C118      1.0  0.16408  0.19915  0.37690  1.0000
  H   H172      1.0  0.23076  0.20123  0.35653  1.0000
  H   H173      1.0  0.20104  0.20490  0.34098  1.0000
  H   H174      1.0  0.19055  0.16910  0.35596  1.0000
  H   H175      1.0  0.21228  0.25347  0.39170  1.0000
  H   H176      1.0  0.24394  0.25023  0.37867  1.0000
  H   H177      1.0  0.21518  0.25337  0.36145  1.0000
  H   H178      1.0  0.23027  0.20126  0.39827  1.0000
  H   H179      1.0  0.19015  0.16877  0.39793  1.0000
  H   H180      1.0  0.19946  0.20403  0.41326  1.0000
  H   H181      1.0  0.15756  0.20798  0.39221  1.0000
  H   H182      1.0  0.14828  0.17305  0.37656  1.0000
  H   H183      1.0  0.15824  0.20890  0.36184  1.0000
  C   C119      1.0  0.16013  0.38687  0.33869  1.0000
  H   H184      1.0  0.06869  0.10640  0.31777  1.0000
  N   N11       1.0  0.06701  0.39897  0.36910  1.0000
  C   C120      1.0  0.08711  0.10086  0.32188  1.0000
  H   H185      1.0  0.09831  0.44528  0.35570  1.0000
  C   C121      1.0  0.28772  0.46324  0.36672  1.0000
  C   C122      1.0  0.50705  0.36562  0.26494  1.0000
  H   H186      1.0  0.25401  0.45616  0.40454  1.0000
  H   H187      1.0  0.09001  0.39561  0.22077  1.0000
  H   H188      1.0  0.29261  0.39619  0.22115  1.0000
  H   H189      1.0  0.48074  0.49203  0.40053  1.0000
  H   H190      1.0  0.30729  0.46308  0.35696  1.0000
  H   H191      1.0  0.30304  0.45201  0.40812  1.0000
  H   H192      1.0  0.31149  0.43057  0.38743  1.0000
  H   H193      1.0  0.27903  0.40972  0.40687  1.0000
  S   S48       1.0  0.04323  0.49578  0.45392  1.0000
  S   S49       1.0  0.09398  0.00716  0.28564  1.0000
  H   H194      1.0  0.01500  0.03725  0.45409  1.0000
  H   H195      1.0  0.02875  0.47455  0.39759  1.0000
  H   H196      1.0  0.25487  0.36110  0.22615  1.0000
  H   H197      1.0  0.27190  0.46600  0.35437  1.0000
  H   H198      1.0  0.29868  0.48467  0.37763  1.0000
  H   H199      1.0  0.02850  0.40195  0.35369  1.0000
  H   H200      1.0  0.06926  0.02968  0.34411  1.0000
  C   C123      1.0  0.04704  0.02527  0.35287  1.0000
  C   C124      1.0  0.01913  0.01410  0.31722  1.0000
  H   H201      1.0  0.02036  0.03743  0.31745  1.0000
  H   H202      1.0  0.46898  0.49480  0.46258  1.0000
  H   H203      1.0  0.05989  0.01451  0.46421  1.0000
  H   H204      1.0  0.37430  0.08242  0.65633  1.0000
  C   C125      1.0  0.11578  0.46131  0.57644  1.0000
  H   H205      1.0  0.12361  0.06767  0.52971  1.0000
  C   C126      1.0  0.16937  0.11851  0.48843  1.0000
  S   S50       1.0  0.33320  0.04611  0.69229  1.0000
  C   C127      1.0  0.19880  0.13326  0.49980  1.0000
  C   C128      1.0  0.18421  0.18125  0.69477  1.0000
  Fe  Fe25      1.0  0.25753  0.39806  0.59179  1.0000
  S   S51       1.0  0.20904  0.36474  0.57826  1.0000
  S   S52       1.0  0.29395  0.43003  0.56658  1.0000
  Fe  Fe26      1.0  0.23769  0.37687  0.64016  1.0000
  S   S53       1.0  0.18771  0.34117  0.63022  1.0000
  S   S54       1.0  0.25556  0.38966  0.67586  1.0000
  Fe  Fe27      1.0  0.21097  0.32946  0.60164  1.0000
  S   S55       1.0  0.19700  0.28206  0.58554  1.0000
  Fe  Fe28      1.0  0.19146  0.38016  0.60802  1.0000
  S   S56       1.0  0.15179  0.39150  0.60742  1.0000
  S   S57       1.0  0.26092  0.36232  0.61358  1.0000
  S   S58       1.0  0.23993  0.41642  0.61962  1.0000
  C   C129      1.0  0.18238  0.43010  0.70945  1.0000
  S   S59       1.0  0.25468  0.09612  0.58429  1.0000
  H   H206      1.0  0.31654  0.40152  0.69144  1.0000
  Fe  Fe29      1.0  0.22578  0.14485  0.61907  1.0000
  S   S60       1.0  0.26888  0.16695  0.59685  1.0000
  S   S61       1.0  0.21748  0.18026  0.63827  1.0000
  Fe  Fe30      1.0  0.23814  0.12897  0.57222  1.0000
  S   S62       1.0  0.23841  0.14219  0.53559  1.0000
  Fe  Fe31      1.0  0.27994  0.13147  0.61184  1.0000
  S   S63       1.0  0.32861  0.14225  0.62319  1.0000
  S   S64       1.0  0.19419  0.10811  0.59381  1.0000
  S   S65       1.0  0.23902  0.11177  0.63602  1.0000
  H   H207      1.0  0.19044  0.31707  0.53177  1.0000
  C   C130      1.0  0.20108  0.12453  0.52199  1.0000
  C   C131      1.0  0.17381  0.10104  0.53273  1.0000
  C   C132      1.0  0.14455  0.08600  0.52130  1.0000
  H   H208      1.0  0.03892  0.04874  0.47908  1.0000
  H   H209      1.0  0.18421  0.18476  0.67616  1.0000
  H   H210      1.0  0.22297  0.05276  0.50756  1.0000
  H   H211      1.0  0.17528  0.09388  0.54966  1.0000
  H   H212      1.0  0.25379  0.36521  0.51004  1.0000
  H   H213      1.0  0.26513  0.48678  0.62104  1.0000
  S   S66       1.0  0.32097  0.34407  0.50093  1.0000
  C   C133      1.0  0.33046  0.07177  0.67290  1.0000
  C   C134      1.0  0.30487  0.07741  0.67328  1.0000
  C   C135      1.0  0.30360  0.09831  0.65760  1.0000
  C   C136      1.0  0.32806  0.11388  0.64170  1.0000
  C   C137      1.0  0.35359  0.10816  0.64142  1.0000
  H   H214      1.0  0.28599  0.06562  0.68554  1.0000
  H   H215      1.0  0.28418  0.10304  0.65833  1.0000
  H   H216      1.0  0.37261  0.12015  0.62924  1.0000
  C   C138      1.0  0.20322  0.25420  0.60032  1.0000
  C   C139      1.0  0.19275  0.22434  0.59070  1.0000
  C   C140      1.0  0.19800  0.20188  0.60179  1.0000
  C   C141      1.0  0.21323  0.20892  0.62284  1.0000
  C   C142      1.0  0.22387  0.23888  0.63236  1.0000
  C   C143      1.0  0.21903  0.26148  0.62113  1.0000
  H   H217      1.0  0.18004  0.21837  0.57479  1.0000
  H   H218      1.0  0.18928  0.17873  0.59445  1.0000
  H   H219      1.0  0.23623  0.24484  0.64835  1.0000
  H   H220      1.0  0.22742  0.28449  0.62861  1.0000
  C   C144      1.0  0.15814  0.42844  0.61666  1.0000
  C   C145      1.0  0.18671  0.45668  0.61261  1.0000
  C   C146      1.0  0.20477  0.30883  0.52226  1.0000
  C   C147      1.0  0.16404  0.48670  0.62944  1.0000
  C   C148      1.0  0.13597  0.45839  0.63385  1.0000
  C   C149      1.0  0.13288  0.42953  0.62722  1.0000
  H   H221      1.0  0.20612  0.45601  0.60412  1.0000
  H   H222      1.0  0.21810  0.28460  0.48539  1.0000
  H   H223      1.0  0.11620  0.45879  0.64208  1.0000
  H   H224      1.0  0.11069  0.40787  0.63026  1.0000
  C   C150      1.0  0.30198  0.40660  0.54818  1.0000
  C   C151      1.0  0.31924  0.41928  0.52818  1.0000
  C   C152      1.0  0.32521  0.40022  0.51348  1.0000
  C   C153      1.0  0.31458  0.36871  0.51907  1.0000
  C   C154      1.0  0.29754  0.35616  0.53909  1.0000
  C   C155      1.0  0.29076  0.37488  0.55336  1.0000
  H   H225      1.0  0.32796  0.44378  0.52404  1.0000
  C   C156      1.0  0.14068  0.49828  0.54585  1.0000
  H   H226      1.0  0.28921  0.33185  0.54350  1.0000
  H   H227      1.0  0.27705  0.36469  0.56847  1.0000
  C   C157      1.0  0.35456  0.08686  0.65677  1.0000
  C   C158      1.0  0.08987  0.48812  0.56055  1.0000
  H   H228      1.0  0.22673  0.25902  0.70863  1.0000
  H   H229      1.0  0.27869  0.01200  0.65605  1.0000
  H   H230      1.0  0.24639  0.03545  0.59717  1.0000
  H   H231      1.0  0.16049  0.17588  0.70129  1.0000
  H   H232      1.0  0.18433  0.23440  0.70747  1.0000
  C   C159      1.0  0.34782  0.46250  0.67980  1.0000
  H   H233      1.0  0.21246  0.46204  0.65799  1.0000
  H   H234      1.0  0.35817  0.41431  0.68981  1.0000
  C   C160      1.0  0.20939  0.33100  0.69120  1.0000
  C   C161      1.0  0.23791  0.35894  0.69575  1.0000
  H   H235      1.0  0.23262  0.03563  0.55462  1.0000
  H   H236      1.0  0.24886  0.44888  0.67871  1.0000
  C   C162      1.0  0.14220  0.09474  0.49916  1.0000
  H   H237      1.0  0.19749  0.32789  0.67521  1.0000
  C   C163      1.0  0.18953  0.48587  0.61881  1.0000
  H   H238      1.0  0.16179  0.39509  0.67136  1.0000
  C   C164      1.0  0.36241  0.16458  0.68804  1.0000
  N   N12       1.0  0.21254  0.32227  0.49917  1.0000
  H   H239      1.0  0.33867  0.41012  0.49811  1.0000
  C   C165      1.0  0.01559  0.03064  0.47199  1.0000
  H   H240      1.0  0.35293  0.48733  0.68111  1.0000
  H   H241      1.0  0.17380  0.45061  0.66932  1.0000
  Fe  Fe32      1.0  0.21303  0.07752  0.60785  1.0000
  H   H242      1.0  0.17426  0.28516  0.70385  1.0000
  H   H243      1.0  0.18668  0.16005  0.69743  1.0000
  H   H244      1.0  0.19082  0.04877  0.56501  1.0000
  H   H245      1.0  0.25399  0.31722  0.49655  1.0000
  H   H246      1.0  0.19149  0.06084  0.51348  1.0000
  H   H247      1.0  0.21985  0.15123  0.49128  1.0000
  N   N13       1.0  0.26844  0.23890  0.54680  1.0000
  C   C166      1.0  0.29028  0.22628  0.54388  1.0000
  C   C167      1.0  0.23520  0.21308  0.54382  1.0000
  C   C168      1.0  0.27590  0.26376  0.52976  1.0000
  C   C169      1.0  0.27235  0.25241  0.56976  1.0000
  H   H248      1.0  0.28757  0.21543  0.52685  1.0000
  H   H249      1.0  0.28528  0.20746  0.55645  1.0000
  H   H250      1.0  0.31563  0.24504  0.54589  1.0000
  H   H251      1.0  0.21802  0.22174  0.54553  1.0000
  H   H252      1.0  0.23153  0.20169  0.52692  1.0000
  H   H253      1.0  0.22870  0.19416  0.55667  1.0000
  H   H254      1.0  0.27347  0.25450  0.51223  1.0000
  H   H255      1.0  0.30080  0.28376  0.53158  1.0000
  H   H256      1.0  0.25980  0.27374  0.53142  1.0000
  H   H257      1.0  0.25659  0.26265  0.57240  1.0000
  H   H258      1.0  0.29728  0.27158  0.57280  1.0000
  H   H259      1.0  0.26624  0.23414  0.58307  1.0000
  H   H260      1.0  0.24477  0.19433  0.70166  1.0000
  C   C170      1.0  0.18713  0.40410  0.67614  1.0000
  H   H261      1.0  0.23838  0.32100  0.46999  1.0000
  C   C171      1.0  0.23429  0.44552  0.69413  1.0000
  H   H262      1.0  0.07412  0.48214  0.57562  1.0000
  H   H263      1.0  0.21764  0.36672  0.50959  1.0000
  C   C172      1.0  0.24132  0.21463  0.69756  1.0000
  C   C173      1.0  0.20845  0.05463  0.52141  1.0000
  C   C174      1.0  0.17429  0.02936  0.55359  1.0000
  H   H264      1.0  0.10131  0.45542  0.59220  1.0000
  C   C175      1.0  0.27571  0.49698  0.57710  1.0000
  H   H265      1.0  0.18828  0.38570  0.68652  1.0000
  H   H266      1.0  0.32424  0.44869  0.67128  1.0000
  H   H267      1.0  0.38554  0.49307  0.71538  1.0000
  H   H268      1.0  0.30654  0.47619  0.60379  1.0000
  H   H269      1.0  0.38046  0.18889  0.68278  1.0000
  S   S67       1.0  0.10526  0.07460  0.48519  1.0000
  H   H270      1.0  0.16755  0.32047  0.49499  1.0000
  H   H271      1.0  0.33936  0.15911  0.68007  1.0000
  H   H272      1.0  0.24334  0.21770  0.67891  1.0000
  H   H273      1.0  0.23757  0.36803  0.48351  1.0000
  N   N14       1.0  0.12094  0.49116  0.56643  1.0000
  C   C176      1.0  0.21485  0.01669  0.54344  1.0000
  H   H274      1.0  0.20887  0.48139  0.68269  1.0000
  H   H275      1.0  0.20766  0.24141  0.68229  1.0000
  H   H276      1.0  0.29939  0.43872  0.70834  1.0000
  H   H277      1.0  0.12860  0.47974  0.53270  1.0000
  N   N15       1.0  0.34752  0.44933  0.70235  1.0000
  N   N16       1.0  0.20065  0.43445  0.68841  1.0000
  C   C177      1.0  0.18280  0.31257  0.48641  1.0000
  H   H278      1.0  0.23657  0.42829  0.70513  1.0000
  H   H279      1.0  0.19079  0.28259  0.52192  1.0000
  C   C178      1.0  0.19887  0.45816  0.67398  1.0000
  H   H280      1.0  0.26153  0.23596  0.70538  1.0000
  C   C179      1.0  0.32323  0.45078  0.71658  1.0000
  S   S68       1.0  0.18407  0.02435  0.61301  1.0000
  H   H281      1.0  0.36607  0.46216  0.66857  1.0000
  C   C180      1.0  0.23113  0.35708  0.50062  1.0000
  H   H282      1.0  0.22487  0.07488  0.53233  1.0000
  H   H283      1.0  0.13877  0.46278  0.58101  1.0000
  C   C181      1.0  0.19618  0.30680  0.70746  1.0000
  H   H284      1.0  0.39814  0.46757  0.70284  1.0000
  H   H285      1.0  0.24526  0.46849  0.70321  1.0000
  N   N17       1.0  0.19153  0.02504  0.53454  1.0000
  H   H286      1.0  0.04015  0.00974  0.50354  1.0000
  C   C182      1.0  0.23011  0.01034  0.59797  1.0000
  H   H287      1.0  0.20044  0.40652  0.66026  1.0000
  H   H288      1.0  0.26135  0.47136  0.58117  1.0000
  C   C183      1.0  0.33987  0.41618  0.69999  1.0000
  H   H289      1.0  0.15614  0.03523  0.54757  1.0000
  C   C184      1.0  0.23157  0.31071  0.48729  1.0000
  H   H290      1.0  0.22669  0.31586  0.53241  1.0000
  N   N18       1.0  0.21027  0.20936  0.70593  1.0000
  C   C185      1.0  0.20712  0.23724  0.70082  1.0000
  H   H291      1.0  0.16787  0.12509  0.47124  1.0000
  H   H292      1.0  0.10315  0.44119  0.56451  1.0000
  H   H293      1.0  0.07707  0.46960  0.54749  1.0000
  H   H294      1.0  0.36951  0.14811  0.68059  1.0000
  C   C186      1.0  0.37911  0.46797  0.71313  1.0000
  H   H295      1.0  0.15679  0.42150  0.70586  1.0000
  H   H296      1.0  0.16846  0.28643  0.48452  1.0000
  H   H297      1.0  0.32655  0.17863  0.71523  1.0000
  H   H298      1.0  0.31155  0.12246  0.71192  1.0000
  C   C187      1.0  0.32016  0.50137  0.59848  1.0000
  H   H299      1.0  0.22825  0.01302  0.52962  1.0000
  H   H300      1.0  0.34184  0.11148  0.71231  1.0000
  H   H301      1.0  0.28796  0.49875  0.56075  1.0000
  H   H302      1.0  0.33277  0.50211  0.58251  1.0000
  N   N19       1.0  0.35961  0.16149  0.71292  1.0000
  H   H303      1.0  0.16416  0.50039  0.54964  1.0000
  C   C188      1.0  0.25290  0.36267  0.71665  1.0000
  H   H304      1.0  0.33853  0.40521  0.71677  1.0000
  H   H305      1.0  0.16190  0.00773  0.56424  1.0000
  H   H306      1.0  0.18794  0.32273  0.46902  1.0000
  H   H307      1.0  0.39835  0.15227  0.71622  1.0000
  H   H308      1.0  0.36765  0.20856  0.71770  1.0000
  H   H309      1.0  0.18359  0.41270  0.72095  1.0000
  H   H310      1.0  0.36334  0.43775  0.87771  1.0000
  S   S69       1.0  0.18295  0.46534  0.93728  1.0000
  S   S70       1.0  0.28489  0.21711  0.74639  1.0000
  C   C189      1.0  0.22004  0.40983  0.81992  1.0000
  H   H311      1.0  0.32858  0.04374  0.81196  1.0000
  S   S71       1.0  0.28213  0.29286  0.74281  1.0000
  Fe  Fe33      1.0  0.31268  0.32972  0.76810  1.0000
  H   H312      1.0  0.30664  0.38780  0.82049  1.0000
  C   C190      1.0  0.33395  0.47953  0.90604  1.0000
  H   H313      1.0  0.29973  0.37333  0.87061  1.0000
  C   C191      1.0  0.09413  0.47403  0.92709  1.0000
  Fe  Fe34      1.0  0.27740  0.28827  0.80788  1.0000
  S   S72       1.0  0.32092  0.29580  0.78872  1.0000
  S   S73       1.0  0.27091  0.29187  0.84523  1.0000
  S   S74       1.0  0.24262  0.24782  0.78627  1.0000
  S   S75       1.0  0.27177  0.32444  0.78867  1.0000
  H   H314      1.0  0.05226  0.43844  0.87947  1.0000
  H   H315      1.0  0.47356  0.33555  0.89038  1.0000
  C   C192      1.0  0.35985  0.42162  0.86337  1.0000
  H   H316      1.0  0.28434  0.05616  0.85856  1.0000
  C   C193      1.0  0.36594  0.34715  0.88193  1.0000
  Fe  Fe35      1.0  0.30429  0.50342  0.77797  1.0000
  C   C194      1.0  0.05735  0.44888  0.89619  1.0000
  S   S76       1.0  0.27258  0.05258  0.73484  1.0000
  Fe  Fe36      1.0  0.30034  0.06887  0.76731  1.0000
  S   S77       1.0  0.31558  0.11470  0.78602  1.0000
  C   C195      1.0  0.33674  0.48237  0.96638  1.0000
  C   C196      1.0  0.20845  0.20432  0.73065  1.0000
  N   N20       1.0  0.07102  0.38864  0.95670  1.0000
  S   S78       1.0  0.21865  0.42504  0.92311  1.0000
  C   C197      1.0  0.27778  0.15808  0.74886  1.0000
  C   C198      1.0  0.28421  0.13503  0.75743  1.0000
  C   C199      1.0  0.30371  0.14155  0.77644  1.0000
  C   C200      1.0  0.31555  0.17082  0.78736  1.0000
  C   C201      1.0  0.30867  0.19372  0.77900  1.0000
  H   H317      1.0  0.31847  0.21642  0.78728  1.0000
  H   H318      1.0  0.33052  0.17602  0.80214  1.0000
  C   C202      1.0  0.37291  0.43848  0.77573  1.0000
  S   S79       1.0  0.27132  0.02257  0.78493  1.0000
  Fe  Fe37      1.0  0.40975  0.47263  0.91738  1.0000
  H   H319      1.0  0.50880  0.43378  0.87935  1.0000
  H   H320      1.0  0.31955  0.46341  0.95493  1.0000
  S   S80       1.0  0.20248  0.38937  0.86324  1.0000
  C   C203      1.0  0.34589  0.40992  0.76988  1.0000
  H   H321      1.0  0.31126  0.43844  0.83240  1.0000
  C   C204      1.0  0.07014  0.47620  0.93909  1.0000
  H   H322      1.0  0.38152  0.43376  0.85257  1.0000
  Fe  Fe38      1.0  0.17313  0.41542  0.93963  1.0000
  Fe  Fe39      1.0  0.40647  0.40934  0.91670  1.0000
  Fe  Fe40      1.0  0.22651  0.47358  0.91765  1.0000
  H   H323      1.0  0.37929  0.01201  0.91917  1.0000
  H   H324      1.0  0.46719  0.40607  0.87602  1.0000
  C   C205      1.0  0.08778  0.46010  0.90563  1.0000
  H   H325      1.0  0.39634  0.44107  0.77397  1.0000
  C   C206      1.0  0.33796  0.34267  0.89222  1.0000
  C   C207      1.0  0.30850  0.32440  0.88134  1.0000
  C   C208      1.0  0.30719  0.31143  0.85995  1.0000
  C   C209      1.0  0.33480  0.04973  0.86916  1.0000
  H   H326      1.0  0.28330  0.46103  0.90937  1.0000
  C   C210      1.0  0.33514  0.31547  0.85002  1.0000
  H   H327      1.0  0.28682  0.32079  0.88930  1.0000
  Fe  Fe41      1.0  0.23659  0.47982  0.76220  1.0000
  C   C211      1.0  0.30231  0.39615  0.86502  1.0000
  H   H328      1.0  0.38595  0.33621  0.85314  1.0000
  S   S81       1.0  0.37012  0.42367  0.92421  1.0000
  S   S82       1.0  0.35092  0.37916  0.75905  1.0000
  H   H329      1.0  0.18553  0.20059  0.73772  1.0000
  S   S83       1.0  0.19798  0.27937  0.74766  1.0000
  H   H330      1.0  0.04719  0.39999  0.93083  1.0000
  H   H331      1.0  0.05031  0.34094  0.94451  1.0000
  C   C212      1.0  0.36981  0.46356  0.78422  1.0000
  H   H332      1.0  0.25264  0.34109  0.74821  1.0000
  H   H333      1.0  0.37947  0.45844  0.73015  1.0000
  C   C213      1.0  0.17110  0.40657  0.83301  1.0000
  S   S84       1.0  0.40325  0.37090  0.89438  1.0000
  C   C214      1.0  0.18999  0.42458  0.79486  1.0000
  H   H334      1.0  0.30369  0.40971  0.88048  1.0000
  C   C215      1.0  0.03964  0.46476  0.92972  1.0000
  C   C216      1.0  0.32827  0.39410  0.83073  1.0000
  C   C217      1.0  0.30656  0.48184  0.91031  1.0000
  N   N21       1.0  0.31766  0.04210  0.84734  1.0000
  C   C218      1.0  0.03331  0.45097  0.90822  1.0000
  H   H335      1.0  0.35133  0.50370  0.95589  1.0000
  S   S85       1.0  0.44479  0.45764  0.90649  1.0000
  H   H336      1.0  0.33632  0.02349  0.92888  1.0000
  H   H337      1.0  0.14238  0.49229  0.83495  1.0000
  C   C219      1.0  0.47148  0.35372  0.88043  1.0000
  C   C220      1.0  0.10115  0.41885  0.95426  1.0000
  N   N22       1.0  0.49515  0.38596  0.88781  1.0000
  H   H338      1.0  0.32095  0.43948  0.73325  1.0000
  S   S86       1.0  0.11736  0.45713  0.88977  1.0000
  S   S87       1.0  0.42833  0.48306  0.95303  1.0000
  S   S88       1.0  0.27556  0.47214  0.74965  1.0000
  H   H339      1.0  0.31953  0.08691  0.84507  1.0000
  C   C221      1.0  0.33238  0.44325  0.84279  1.0000
  N   N23       1.0  0.18154  0.30719  0.81192  1.0000
  C   C222      1.0  0.15124  0.28904  0.79944  1.0000
  C   C223      1.0  0.20372  0.33504  0.79843  1.0000
  C   C224      1.0  0.19574  0.28700  0.81592  1.0000
  C   C225      1.0  0.17544  0.31769  0.83387  1.0000
  H   H340      1.0  0.13395  0.26773  0.80903  1.0000
  H   H341      1.0  0.15514  0.28092  0.78273  1.0000
  H   H342      1.0  0.13986  0.30357  0.79615  1.0000
  H   H343      1.0  0.22681  0.34942  0.80736  1.0000
  H   H344      1.0  0.20891  0.32797  0.78176  1.0000
  H   H345      1.0  0.19359  0.35064  0.79500  1.0000
  H   H346      1.0  0.21877  0.29994  0.82521  1.0000
  H   H347      1.0  0.20038  0.27840  0.79971  1.0000
  H   H348      1.0  0.17977  0.26587  0.82621  1.0000
  H   H349      1.0  0.16490  0.33317  0.83156  1.0000
  H   H350      1.0  0.19785  0.33147  0.84373  1.0000
  H   H351      1.0  0.15876  0.29737  0.84455  1.0000
  H   H352      1.0  0.33354  0.45826  0.85733  1.0000
  H   H353      1.0  0.11774  0.48375  0.93425  1.0000
  H   H354      1.0  0.07543  0.48734  0.95556  1.0000
  C   C226      1.0  0.31256  0.43220  0.78031  1.0000
  H   H355      1.0  0.27444  0.11241  0.74911  1.0000
  H   H356      1.0  0.39086  0.48536  0.78904  1.0000
  H   H357      1.0  0.24062  0.40727  0.82305  1.0000
  H   H358      1.0  0.29472  0.38513  0.76729  1.0000
  C   C227      1.0  0.34062  0.04928  0.82869  1.0000
  H   H359      1.0  0.46582  0.38703  0.91476  1.0000
  Fe  Fe42      1.0  0.45934  0.46262  0.94291  1.0000
  C   C228      1.0  0.29022  0.18761  0.75947  1.0000
  C   C229      1.0  0.07244  0.36423  0.94282  1.0000
  S   S89       1.0  0.33650  0.49202  0.79806  1.0000
  H   H360      1.0  0.14662  0.41976  0.80869  1.0000
  C   C230      1.0  0.19749  0.40282  0.83700  1.0000
  Fe  Fe43      1.0  0.15663  0.44953  0.90419  1.0000
  S   S90       1.0  0.20136  0.46306  0.88423  1.0000
  H   H361      1.0  0.33899  0.35300  0.90860  1.0000
  N   N24       1.0  0.33068  0.41375  0.85048  1.0000
  C   C231      1.0  0.35007  0.18369  0.72205  1.0000
  H   H362      1.0  0.35927  0.07465  0.82850  1.0000
  C   C232      1.0  0.21200  0.31029  0.72799  1.0000
  S   S91       1.0  0.42241  0.41335  0.95261  1.0000
  C   C233      1.0  0.16706  0.41693  0.81178  1.0000
  S   S92       1.0  0.18714  0.44105  0.76928  1.0000
  H   H363      1.0  0.33424  0.30466  0.83399  1.0000
  Fe  Fe44      1.0  0.28557  0.25775  0.76551  1.0000
  H   H364      1.0  0.28890  0.05624  0.82843  1.0000
  H   H365      1.0  0.07557  0.37067  0.92455  1.0000
  H   H366      1.0  0.35902  0.40013  0.87032  1.0000
  Fe  Fe45      1.0  0.19116  0.41387  0.89073  1.0000
  H   H367      1.0  0.35404  0.45759  0.83236  1.0000
  H   H368      1.0  0.33162  0.45697  0.90200  1.0000
  S   S93       1.0  0.33792  0.05709  0.75707  1.0000
  H   H369      1.0  0.34614  0.03503  0.87195  1.0000
  H   H370      1.0  0.34929  0.40656  0.81938  1.0000
  S   S94       1.0  0.50848  0.47634  0.95654  1.0000
  C   C234      1.0  0.31565  0.40679  0.77223  1.0000
  C   C235      1.0  0.04423  0.39262  0.94892  1.0000
  Fe  Fe46      1.0  0.24159  0.28504  0.76505  1.0000
  H   H371      1.0  0.10657  0.42574  0.93618  1.0000
  H   H372      1.0  0.26337  0.15310  0.73379  1.0000
  H   H373      1.0  0.16355  0.47184  0.84123  1.0000
  H   H374      1.0  0.21099  0.18360  0.73519  1.0000
  H   H375      1.0  0.15362  0.40114  0.84622  1.0000
  C   C236      1.0  0.24030  0.33825  0.73249  1.0000
  H   H376      1.0  0.28917  0.42963  0.78216  1.0000
  H   H377      1.0  0.44668  0.34915  0.88263  1.0000
  C   C237      1.0  0.36442  0.33310  0.86103  1.0000
  C   C238      1.0  0.21655  0.42118  0.79900  1.0000
  H   H378      1.0  0.32696  0.37164  0.83603  1.0000
  C   C239      1.0  0.29336  0.00820  0.84683  1.0000
  H   H379      1.0  0.16693  0.50512  0.79669  1.0000
  C   C240      1.0  0.30194  0.06119  0.84477  1.0000
  C   C241      1.0  0.39057  0.16871  0.72274  1.0000
  C   C242      1.0  0.33536  0.12885  0.71892  1.0000
  H   H380      1.0  0.50770  0.41382  0.91816  1.0000
  H   H381      1.0  0.34796  0.18216  0.74083  1.0000
  H   H382      1.0  0.23442  0.42726  0.78603  1.0000
  H   H383      1.0  0.28000  0.39074  0.85593  1.0000
  C   C243      1.0  0.33971  0.46066  0.78632  1.0000
  S   S95       1.0  0.14443  0.39900  0.90766  1.0000
  H   H384      1.0  0.49539  0.40700  0.85582  1.0000
  Fe  Fe47      1.0  0.39017  0.43310  0.95933  1.0000
  Fe  Fe48      1.0  0.30814  0.03776  0.72570  1.0000
  H   H385      1.0  0.02102  0.37032  0.95047  1.0000
  H   H386      1.0  0.31834  0.04536  0.88361  1.0000
  H   H387      1.0  0.22794  0.22507  0.73942  1.0000
  H   H388      1.0  0.33282  0.12560  0.73758  1.0000
  H   H389      1.0  0.04263  0.41117  0.95879  1.0000
  H   H390      1.0  0.38905  0.16637  0.74153  1.0000
  H   H391      1.0  0.35384  0.07492  0.86998  1.0000
  H   H392      1.0  0.47452  0.34994  0.86224  1.0000
  H   H393      1.0  0.35268  0.03503  0.83005  1.0000
  H   H394      1.0  0.40953  0.19319  0.71864  1.0000
  H   H395      1.0  0.19179  0.45260  0.71906  1.0000
  H   H396      1.0  0.18854  0.48518  0.80298  1.0000
  H   H397      1.0  0.27470  0.38412  0.72053  1.0000
  Fe  Fe49      1.0  0.30595  0.00891  0.77159  1.0000
  H   H398      1.0  0.28093  0.48141  0.96345  1.0000
  H   H399      1.0  0.08159  0.00841  0.92582  1.0000
  S   S96       1.0  0.39835  0.50530  0.89773  1.0000
  C   C244      1.0  0.48991  0.38996  0.91194  1.0000
  H   H400      1.0  0.10033  0.43831  0.96341  1.0000
  H   H401      1.0  0.22247  0.49929  0.83671  1.0000
  H   H402      1.0  0.09282  0.36109  0.94792  1.0000
  C   C245      1.0  0.16533  0.49543  0.84149  1.0000
  H   H403      1.0  0.16720  0.50271  0.85955  1.0000
  H   H404      1.0  0.12162  0.41740  0.96125  1.0000
  H   H405      1.0  0.49191  0.37247  0.92277  1.0000
  C   C246      1.0  0.49149  0.40921  0.87412  1.0000
  H   H406      1.0  0.32945  0.47559  0.71987  1.0000
  Fe  Fe50      1.0  0.42018  0.92659  0.10445  1.0000
  S   S97       1.0  0.39992  0.87939  0.08787  1.0000
  S   S98       1.0  0.43277  0.96713  0.08081  1.0000
  Fe  Fe51      1.0  0.41409  0.89816  0.15124  1.0000
  S   S99       1.0  0.39209  0.84877  0.13763  1.0000
  S   S100      1.0  0.42662  0.90857  0.18819  1.0000
  Fe  Fe52      1.0  0.43100  0.87097  0.11148  1.0000
  S   S101      1.0  0.46144  0.85134  0.09798  1.0000
  Fe  Fe53      1.0  0.36357  0.86349  0.11572  1.0000
  S   S102      1.0  0.31170  0.83760  0.10501  1.0000
  S   S103      1.0  0.45419  0.91962  0.12602  1.0000
  S   S104      1.0  0.38278  0.91126  0.13133  1.0000
  H   H407      1.0  0.05910  0.81478  0.04473  1.0000
  H   H408      1.0  0.48005  0.96036  0.03640  1.0000
  Fe  Fe54      1.0  0.13146  0.88981  0.09708  1.0000
  S   S105      1.0  0.15689  0.93899  0.08319  1.0000
  S   S106      1.0  0.08020  0.86088  0.08546  1.0000
  Fe  Fe55      1.0  0.19144  0.89784  0.12062  1.0000
  S   S107      1.0  0.22073  0.94776  0.10881  1.0000
  S   S108      1.0  0.21746  0.88152  0.14380  1.0000
  Fe  Fe56      1.0  0.17823  0.95228  0.11783  1.0000
  H   H409      1.0  0.05682  0.93150  0.11166  1.0000
  Fe  Fe57      1.0  0.19643  0.92921  0.07554  1.0000
  S   S109      1.0  0.22518  0.94336  0.04343  1.0000
  S   S110      1.0  0.15038  0.90372  0.13248  1.0000
  S   S111      1.0  0.16968  0.87873  0.08659  1.0000
  C   C247      1.0  0.12763  0.81308  0.03625  1.0000
  H   H410      1.0  0.09001  0.97073  0.10919  1.0000
  H   H411      1.0  0.42259  0.78561  0.19923  1.0000
  C   C248      1.0  0.08300  0.82207  0.03741  1.0000
  H   H412      1.0  0.04875  0.75912  0.04086  1.0000
  H   H413      1.0  0.49163  0.89263  0.04975  1.0000
  H   H414      1.0  0.07375  0.76942  0.01622  1.0000
  C   C249      1.0  0.49876  0.86342  0.11087  1.0000
  H   H415      1.0  0.44582  0.98919  0.03461  1.0000
  H   H416      1.0  0.44220  0.92435  0.00696  1.0000
  C   C250      1.0  0.06651  0.95366  0.10170  1.0000
  C   C251      1.0  0.03822  0.97149  0.12558  1.0000
  C   C252      1.0  0.12044  0.96273  0.14735  1.0000
  C   C253      1.0  0.09339  0.95956  0.15852  1.0000
  N   N25       1.0  0.09593  0.94029  0.97067  1.0000
  H   H417      1.0  0.11870  0.94342  0.13734  1.0000
  H   H418      1.0  0.17468  0.92972  0.19769  1.0000
  C   C254      1.0  0.20168  0.92574  0.01937  1.0000
  C   C255      1.0  0.21477  0.93585  0.99778  1.0000
  C   C256      1.0  0.09560  0.98425  0.17186  1.0000
  H   H419      1.0  0.45719  0.78178  0.20251  1.0000
  C   C257      1.0  0.15162  0.88733  0.00218  1.0000
  C   C258      1.0  0.16998  0.90163  0.02156  1.0000
  H   H420      1.0  0.23912  0.95486  0.99604  1.0000
  C   C259      1.0  0.44081  0.78274  0.18975  1.0000
  H   H421      1.0  0.10310  0.78305  0.07565  1.0000
  H   H422      1.0  0.15964  0.89418  0.03818  1.0000
  C   C260      1.0  0.46918  0.88636  0.04052  1.0000
  H   H423      1.0  0.45987  0.93155  0.05812  1.0000
  H   H424      1.0  0.35906  0.53602  0.99012  1.0000
  S   S112      1.0  0.06182  0.98022  0.18586  1.0000
  H   H425      1.0  0.14410  0.83685  0.04340  1.0000
  C   C261      1.0  0.43532  0.80997  0.15755  1.0000
  C   C262      1.0  0.47505  0.83899  0.18599  1.0000
  H   H426      1.0  0.41712  0.81343  0.16658  1.0000
  H   H427      1.0  0.12190  0.94332  0.00104  1.0000
  C   C263      1.0  0.35294  0.96635  0.08576  1.0000
  H   H428      1.0  0.44754  0.82985  0.14539  1.0000
  H   H429      1.0  0.34778  0.59477  0.20741  1.0000
  H   H430      1.0  0.09928  0.84670  0.04320  1.0000
  C   C264      1.0  0.16460  0.89762  0.98061  1.0000
  H   H431      1.0  0.48844  0.85920  0.17436  1.0000
  H   H432      1.0  0.44971  0.87699  0.05334  1.0000
  C   C265      1.0  0.30349  0.96350  0.07477  1.0000
  H   H433      1.0  0.20087  0.51419  0.19633  1.0000
  C   C266      1.0  0.30729  0.94186  0.11053  1.0000
  C   C267      1.0  0.42038  0.87610  0.20467  1.0000
  H   H434      1.0  0.42259  0.78796  0.14738  1.0000
  C   C268      1.0  0.19616  0.92201  0.97842  1.0000
  C   C269      1.0  0.19017  0.95453  0.19205  1.0000
  C   C270      1.0  0.47862  0.93936  0.04483  1.0000
  C   C271      1.0  0.39557  0.84568  0.19977  1.0000
  H   H435      1.0  0.08179  0.75212  0.04031  1.0000
  H   H436      1.0  0.08104  0.82257  0.01868  1.0000
  H   H437      1.0  0.37187  0.79658  0.20914  1.0000
  H   H438      1.0  0.37929  0.84205  0.18608  1.0000
  H   H439      1.0  0.31518  0.96454  0.11955  1.0000
  C   C272      1.0  0.39124  0.82001  0.21297  1.0000
  C   C273      1.0  0.05437  0.87256  0.12335  1.0000
  C   C274      1.0  0.05115  0.86558  0.10023  1.0000
  H   H440      1.0  0.31709  0.92882  0.11988  1.0000
  H   H441      1.0  0.05269  0.90215  0.98429  1.0000
  C   C275      1.0  0.48412  0.50824  0.18453  1.0000
  H   H442      1.0  0.07529  0.87592  0.13234  1.0000
  H   H443      1.0  0.49202  0.90684  0.99819  1.0000
  H   H444      1.0  0.02750  0.94918  0.13557  1.0000
  C   C276      1.0  0.28597  0.85034  0.11585  1.0000
  C   C277      1.0  0.25954  0.84565  0.10302  1.0000
  C   C278      1.0  0.23882  0.85581  0.11114  1.0000
  C   C279      1.0  0.24364  0.86957  0.13259  1.0000
  C   C280      1.0  0.26976  0.87380  0.14557  1.0000
  C   C281      1.0  0.29117  0.86475  0.13708  1.0000
  H   H445      1.0  0.25525  0.83429  0.08666  1.0000
  H   H446      1.0  0.21864  0.85221  0.10108  1.0000
  H   H447      1.0  0.27358  0.88428  0.16222  1.0000
  H   H448      1.0  0.31121  0.86814  0.14723  1.0000
  C   C282      1.0  0.41077  0.95232  0.05577  1.0000
  C   C283      1.0  0.42311  0.96749  0.03508  1.0000
  C   C284      1.0  0.40662  0.95396  0.01487  1.0000
  C   C285      1.0  0.37747  0.92565  0.01546  1.0000
  C   C286      1.0  0.36455  0.91132  0.03622  1.0000
  C   C287      1.0  0.38124  0.92452  0.05630  1.0000
  H   H449      1.0  0.28084  0.92783  0.11186  1.0000
  H   H450      1.0  0.07088  0.93778  0.15714  1.0000
  H   H451      1.0  0.34201  0.88942  0.03676  1.0000
  H   H452      1.0  0.37116  0.91310  0.07224  1.0000
  H   H453      1.0  0.35703  0.63448  0.21340  1.0000
  H   H454      1.0  0.41656  0.96535  0.99887  1.0000
  N   N26       1.0  0.09470  0.80073  0.04457  1.0000
  H   H455      1.0  0.29929  0.91712  0.99421  1.0000
  H   H456      1.0  0.49224  0.83902  0.19847  1.0000
  N   N27       1.0  0.45818  0.80882  0.17353  1.0000
  H   H457      1.0  0.31508  0.91923  0.05766  1.0000
  H   H458      1.0  0.43395  0.88447  0.00524  1.0000
  H   H459      1.0  0.49351  0.89139  0.13679  1.0000
  H   H460      1.0  0.25745  0.90280  0.99008  1.0000
  H   H461      1.0  0.27694  0.94944  0.07513  1.0000
  C   C288      1.0  0.48150  0.80363  0.16089  1.0000
  H   H462      1.0  0.07088  0.94821  0.08424  1.0000
  H   H463      1.0  0.06989  0.78995  0.07645  1.0000
  N   N28       1.0  0.47144  0.91383  0.02843  1.0000
  H   H464      1.0  0.49431  0.82235  0.14806  1.0000
  H   H465      1.0  0.42108  0.89731  0.02954  1.0000
  C   C289      1.0  0.44080  0.90454  0.01709  1.0000
  H   H466      1.0  0.31078  0.96769  0.05667  1.0000
  S   S113      1.0  0.35674  0.90748  0.99060  1.0000
  H   H467      1.0  0.21456  0.95829  0.18928  1.0000
  H   H468      1.0  0.28553  0.94422  0.98789  1.0000
  H   H469      1.0  0.14695  0.97262  0.19514  1.0000
  H   H470      1.0  0.10957  0.82242  0.07728  1.0000
  H   H471      1.0  0.36183  0.97058  0.06800  1.0000
  H   H472      1.0  0.45808  0.84382  0.19530  1.0000
  H   H473      1.0  0.13715  0.79739  0.04108  1.0000
  C   C290      1.0  0.05893  0.99651  0.08952  1.0000
  C   C291      1.0  0.07382  0.76893  0.03507  1.0000
  H   H474      1.0  0.01796  0.93740  0.07352  1.0000
  H   H475      1.0  0.31744  0.90296  0.08431  1.0000
  C   C292      1.0  0.06508  0.92826  0.98242  1.0000
  C   C293      1.0  0.15745  0.97141  0.21153  1.0000
  H   H476      1.0  0.06055  0.98871  0.13436  1.0000
  N   N29       1.0  0.04444  0.96627  0.10192  1.0000
  H   H477      1.0  0.49986  0.80381  0.17229  1.0000
  H   H478      1.0  0.18115  0.95694  0.17526  1.0000
  H   H479      1.0  0.42818  0.75953  0.18100  1.0000
  C   C294      1.0  0.28174  0.92032  0.98403  1.0000
  H   H480      1.0  0.36177  0.98976  0.09390  1.0000
  H   H481      1.0  0.46429  0.86676  0.02868  1.0000
  H   H482      1.0  0.02157  0.98089  0.12647  1.0000
  C   C295      1.0  0.49707  0.92513  0.01128  1.0000
  N   N30       1.0  0.31780  0.94702  0.08667  1.0000
  C   C296      1.0  0.02980  0.87377  0.13515  1.0000
  C   C297      1.0  0.30737  0.91626  0.07565  1.0000
  H   H483      1.0  0.46970  0.78079  0.15161  1.0000
  H   H484      1.0  0.31065  0.98675  0.08266  1.0000
  H   H485      1.0  0.28096  0.90116  0.07595  1.0000
  C   C298      1.0  0.14959  0.99089  0.14914  1.0000
  H   H486      1.0  0.42748  0.51344  0.03179  1.0000
  H   H487      1.0  0.12711  0.86888  0.00382  1.0000
  C   C299      1.0  0.09431  0.79883  0.06954  1.0000
  H   H488      1.0  0.36446  0.95455  0.09464  1.0000
  H   H489      1.0  0.50169  0.94717  0.05361  1.0000
  H   H490      1.0  0.06829  0.93870  0.99961  1.0000
  S   S114      1.0  0.18422  0.99510  0.13634  1.0000
  H   H491      1.0  0.12893  0.81545  0.01747  1.0000
  N   N31       1.0  0.19026  0.97725  0.20861  1.0000
  C   C300      1.0  0.02365  0.86087  0.08886  1.0000
  H   H492      1.0  0.03203  0.87819  0.15318  1.0000
  H   H493      1.0  0.02089  0.85523  0.07101  1.0000
  H   H494      1.0  0.06388  0.99340  0.07160  1.0000
  H   H495      1.0  0.48807  0.53265  0.18410  1.0000
  H   H496      1.0  0.11555  0.98696  0.98475  1.0000
  C   C301      1.0  0.21862  0.50798  0.20090  1.0000
  H   H497      1.0  0.49978  0.94626  0.00216  1.0000
  C   C302      1.0  0.50819  0.88232  0.13027  1.0000
  H   H498      1.0  0.33222  0.51955  0.01367  1.0000
  H   H499      1.0  0.51113  0.83727  0.08763  1.0000
  H   H500      1.0  0.01465  0.92527  0.21456  1.0000
  C   C303      1.0  0.11696  0.93252  0.98390  1.0000
  H   H501      1.0  0.04886  0.93404  0.97281  1.0000
  H   H502      1.0  0.10624  0.90657  0.98593  1.0000
  H   H503      1.0  0.36006  0.50647  0.00754  1.0000
  C   C304      1.0  0.34393  0.51384  0.99968  1.0000
  H   H504      1.0  0.14034  0.94117  0.97528  1.0000
  C   C305      1.0  0.11133  0.97490  0.96812  1.0000
  Fe  Fe58      1.0  0.23375  0.53448  0.27873  1.0000
  S   S115      1.0  0.08838  0.96429  0.24209  1.0000
  Fe  Fe59      1.0  0.07417  0.99438  0.22226  1.0000
  H   H505      1.0  0.28317  0.58436  0.24636  1.0000
  S   S116      1.0  0.26402  0.58117  0.29587  1.0000
  C   C306      1.0  0.18107  0.55807  0.36323  1.0000
  Fe  Fe60      1.0  0.02657  0.52781  0.44049  1.0000
  H   H506      1.0  0.41190  0.85371  0.30762  1.0000
  Fe  Fe61      1.0  0.05493  0.96454  0.26845  1.0000
  C   C307      1.0  0.26291  0.65249  0.42802  1.0000
  C   C308      1.0  0.36166  0.79516  0.30279  1.0000
  H   H507      1.0  0.03882  0.97405  0.33000  1.0000
  S   S117      1.0  0.05825  0.56919  0.46280  1.0000
  C   C309      1.0  0.35540  0.61292  0.22100  1.0000
  Fe  Fe62      1.0  0.23101  0.55864  0.32534  1.0000
  Fe  Fe63      1.0  0.34401  0.83330  0.46197  1.0000
  H   H508      1.0  0.34762  0.84210  0.26792  1.0000
  Fe  Fe64      1.0  0.09525  0.58427  0.43543  1.0000
  S   S118      1.0  0.12892  0.63282  0.42119  1.0000
  N   N32       1.0  0.36390  0.82508  0.29550  1.0000
  H   H509      1.0  0.31436  0.56328  0.26410  1.0000
  S   S119      1.0  0.11669  0.55615  0.44844  1.0000
  H   H510      1.0  0.35588  0.81140  0.26047  1.0000
  Fe  Fe65      1.0  0.45183  0.81865  0.32473  1.0000
  S   S120      1.0  0.19763  0.51429  0.30666  1.0000
  S   S121      1.0  0.43251  0.83818  0.35083  1.0000
  Fe  Fe66      1.0  0.44047  0.80009  0.27537  1.0000
  S   S122      1.0  0.48124  0.79079  0.27379  1.0000
  Fe  Fe67      1.0  0.46341  0.76724  0.30758  1.0000
  S   S123      1.0  0.46206  0.72147  0.31632  1.0000
  H   H511      1.0  0.26926  0.65589  0.38270  1.0000
  H   H512      1.0  0.48838  0.92799  0.43407  1.0000
  S   S124      1.0  0.42027  0.77266  0.30739  1.0000
  S   S125      1.0  0.46870  0.84652  0.29275  1.0000
  H   H513      1.0  0.47500  0.55941  0.41111  1.0000
  H   H514      1.0  0.37112  0.78580  0.28955  1.0000
  C   C310      1.0  0.12826  0.51549  0.38908  1.0000
  Fe  Fe68      1.0  0.33172  0.76821  0.45043  1.0000
  S   S126      1.0  0.30638  0.79416  0.44040  1.0000
  S   S127      1.0  0.34098  0.74067  0.42406  1.0000
  S   S128      1.0  0.26242  0.51317  0.29121  1.0000
  S   S129      1.0  0.37344  0.88469  0.45135  1.0000
  N   N33       1.0  0.48251  0.91175  0.39966  1.0000
  H   H515      1.0  0.45334  0.85875  0.24929  1.0000
  C   C311      1.0  0.39767  0.84901  0.29183  1.0000
  C   C312      1.0  0.03515  0.99670  0.45913  1.0000
  C   C313      1.0  0.40666  0.81028  0.37060  1.0000
  C   C314      1.0  0.39305  0.81993  0.38742  1.0000
  C   C315      1.0  0.37327  0.79862  0.40390  1.0000
  C   C316      1.0  0.36619  0.76722  0.40337  1.0000
  C   C317      1.0  0.37936  0.75731  0.38632  1.0000
  C   C318      1.0  0.39984  0.77891  0.37005  1.0000
  H   H516      1.0  0.39777  0.84392  0.38788  1.0000
  H   H517      1.0  0.36347  0.80661  0.41701  1.0000
  H   H518      1.0  0.37411  0.73307  0.38591  1.0000
  H   H519      1.0  0.41049  0.77129  0.35727  1.0000
  C   C319      1.0  0.15662  0.66387  0.43852  1.0000
  C   C320      1.0  0.18098  0.69112  0.42821  1.0000
  C   C321      1.0  0.20335  0.71655  0.44134  1.0000
  H   H520      1.0  0.42338  0.94708  0.43963  1.0000
  C   C322      1.0  0.17300  0.52638  0.36469  1.0000
  C   C323      1.0  0.24944  0.68771  0.40891  1.0000
  H   H521      1.0  0.18231  0.69268  0.40994  1.0000
  H   H522      1.0  0.22169  0.73763  0.43318  1.0000
  H   H523      1.0  0.37554  0.79839  0.31860  1.0000
  C   C324      1.0  0.43262  0.93810  0.45250  1.0000
  Fe  Fe69      1.0  0.08059  0.51703  0.42684  1.0000
  H   H524      1.0  0.47727  0.69277  0.35808  1.0000
  H   H525      1.0  0.46146  0.87202  0.42232  1.0000
  H   H526      1.0  0.23846  0.61704  0.39059  1.0000
  H   H527      1.0  0.32435  0.55395  0.23703  1.0000
  C   C325      1.0  0.16317  0.56858  0.37512  1.0000
  C   C326      1.0  0.13687  0.54735  0.38805  1.0000
  S   S130      1.0  0.21781  0.53169  0.24254  1.0000
  H   H528      1.0  0.34601  0.64275  0.31237  1.0000
  H   H529      1.0  0.25766  0.62776  0.43019  1.0000
  H   H530      1.0  0.49183  0.73322  0.36502  1.0000
  S   S131      1.0  0.34444  0.58109  0.30926  1.0000
  C   C327      1.0  0.39636  0.67808  0.31345  1.0000
  C   C328      1.0  0.42771  0.68343  0.31416  1.0000
  C   C329      1.0  0.43247  0.65751  0.31381  1.0000
  H   H531      1.0  0.45988  0.90425  0.22680  1.0000
  H   H532      1.0  0.42053  0.51994  0.39801  1.0000
  H   H533      1.0  0.39234  0.69790  0.31400  1.0000
  H   H534      1.0  0.45642  0.66123  0.31437  1.0000
  H   H535      1.0  0.50590  0.95887  0.41324  1.0000
  C   C330      1.0  0.47598  0.88004  0.40655  1.0000
  H   H536      1.0  0.28828  0.66703  0.42262  1.0000
  N   N34       1.0  0.24115  0.65441  0.41141  1.0000
  S   S132      1.0  0.40665  0.79158  0.24647  1.0000
  H   H537      1.0  0.47770  0.98168  0.45520  1.0000
  C   C331      1.0  0.37529  0.62100  0.31193  1.0000
  H   H538      1.0  0.43833  0.89547  0.38199  1.0000
  H   H539      1.0  0.46254  0.86218  0.39326  1.0000
  H   H540      1.0  0.22827  0.64300  0.37638  1.0000
  S   S133      1.0  0.06157  0.54613  0.41171  1.0000
  C   C332      1.0  0.41200  0.82454  0.23092  1.0000
  H   H541      1.0  0.26085  0.66142  0.44490  1.0000
  C   C333      1.0  0.33168  0.57296  0.24989  1.0000
  C   C334      1.0  0.40660  0.62671  0.31248  1.0000
  H   H542      1.0  0.36805  0.63288  0.26405  1.0000
  H   H543      1.0  0.41094  0.60707  0.31197  1.0000
  S   S134      1.0  0.01617  0.92710  0.29026  1.0000
  H   H544      1.0  0.27440  0.70269  0.40281  1.0000
  H   H545      1.0  0.20056  0.60999  0.42108  1.0000
  C   C335      1.0  0.34611  0.81991  0.27412  1.0000
  H   H546      1.0  0.12303  0.55572  0.39689  1.0000
  H   H547      1.0  0.45615  0.93525  0.39217  1.0000
  H   H548      1.0  0.02634  0.51027  0.36872  1.0000
  S   S135      1.0  0.21337  0.58471  0.34658  1.0000
  S   S136      1.0  0.49429  0.81183  0.32755  1.0000
  H   H549      1.0  0.40042  0.87181  0.28590  1.0000
  C   C336      1.0  0.24450  0.64214  0.38934  1.0000
  C   C337      1.0  0.47591  0.52982  0.43767  1.0000
  H   H550      1.0  0.48960  0.70625  0.38661  1.0000
  H   H551      1.0  0.01938  0.88935  0.25351  1.0000
  H   H552      1.0  0.48775  0.90379  0.36448  1.0000
  C   C338      1.0  0.45208  0.91132  0.39625  1.0000
  H   H553      1.0  0.32488  0.81878  0.31648  1.0000
  H   H554      1.0  0.40856  0.84099  0.27878  1.0000
  C   C339      1.0  0.30082  0.59346  0.23231  1.0000
  Fe  Fe70      1.0  0.29061  0.55880  0.31036  1.0000
  C   C340      1.0  0.43677  0.85497  0.23585  1.0000
  H   H555      1.0  0.16921  0.59300  0.37399  1.0000
  H   H556      1.0  0.35197  0.85894  0.30842  1.0000
  S   S137      1.0  0.03877  0.99217  0.24773  1.0000
  H   H557      1.0  0.36343  0.84013  0.32958  1.0000
  C   C341      1.0  0.46216  0.53666  0.41931  1.0000
  H   H558      1.0  0.23333  0.69012  0.39669  1.0000
  H   H559      1.0  0.26566  0.51252  0.24489  1.0000
  Fe  Fe71      1.0  0.50866  0.83598  0.29363  1.0000
  H   H560      1.0  0.35520  0.57830  0.25690  1.0000
  H   H561      1.0  0.33657  0.77664  0.30616  1.0000
  C   C342      1.0  0.37010  0.64682  0.31258  1.0000
  H   H562      1.0  0.20256  0.99020  0.24345  1.0000
  H   H563      1.0  0.24760  0.69779  0.42535  1.0000
  C   C343      1.0  0.25534  0.50738  0.22827  1.0000
  C   C344      1.0  0.50089  0.92094  0.37831  1.0000
  H   H564      1.0  0.19081  0.63665  0.40735  1.0000
  H   H565      1.0  0.49843  0.87965  0.40961  1.0000
  C   C345      1.0  0.20785  0.63537  0.41937  1.0000
  C   C346      1.0  0.34378  0.62616  0.25779  1.0000
  H   H566      1.0  0.32767  0.61789  0.27275  1.0000
  C   C347      1.0  0.43123  0.51427  0.41195  1.0000
  C   C348      1.0  0.23149  0.51436  0.22275  1.0000
  C   C349      1.0  0.41339  0.90732  0.46078  1.0000
  H   H567      1.0  0.32048  0.80198  0.27618  1.0000
  H   H568      1.0  0.14141  0.94767  0.21881  1.0000
  C   C350      1.0  0.35040  0.83624  0.31327  1.0000
  N   N35       1.0  0.33292  0.60139  0.24023  1.0000
  H   H569      1.0  0.18718  0.51826  0.35597  1.0000
  H   H570      1.0  0.20436  0.64368  0.43610  1.0000
  C   C351      1.0  0.15481  0.66216  0.46215  1.0000
  H   H571      1.0  0.18724  0.94915  0.23746  1.0000
  C   C352      1.0  0.44063  0.88074  0.22297  1.0000
  S   S138      1.0  0.25969  0.53933  0.34124  1.0000
  C   C353      1.0  0.50111  0.93473  0.41756  1.0000
  C   C354      1.0  0.49530  0.71276  0.36848  1.0000
  H   H572      1.0  0.43679  0.90291  0.41166  1.0000
  H   H573      1.0  0.01673  0.96182  0.35606  1.0000
  H   H574      1.0  0.37981  0.61893  0.22643  1.0000
  C   C355      1.0  0.20236  0.97338  0.23062  1.0000
  C   C356      1.0  0.46342  0.95774  0.46129  1.0000
  H   H575      1.0  0.50601  0.94469  0.37255  1.0000
  H   H576      1.0  0.22714  0.97776  0.22913  1.0000
  H   H577      1.0  0.30065  0.61438  0.22514  1.0000
  H   H578      1.0  0.34457  0.64789  0.25136  1.0000
  H   H579      1.0  0.03226  0.00129  0.44107  1.0000
  N   N36       1.0  0.01831  0.00226  0.34035  1.0000
  H   H580      1.0  0.03293  0.97299  0.46007  1.0000
  C   C357      1.0  0.20098  0.71527  0.46492  1.0000
  H   H581      1.0  0.29185  0.57489  0.21898  1.0000
  C   C358      1.0  0.01751  0.97170  0.33899  1.0000
  H   H582      1.0  0.15688  0.98919  0.22298  1.0000
  H   H583      1.0  0.18267  0.73121  0.51949  1.0000
  H   H584      1.0  0.31906  0.87908  0.65169  1.0000
  H   H585      1.0  0.24005  0.99714  0.64357  1.0000
  H   H586      1.0  0.19988  0.57969  0.50088  1.0000
  H   H587      1.0  0.30143  0.88681  0.68863  1.0000
  C   C359      1.0  0.18125  0.57888  0.51146  1.0000
  H   H588      1.0  0.20404  0.65004  0.68453  1.0000
  Fe  Fe72      1.0  0.28860  0.87871  0.60180  1.0000
  S   S139      1.0  0.25084  0.86304  0.57518  1.0000
  S   S140      1.0  0.33874  0.88886  0.59630  1.0000
  Fe  Fe73      1.0  0.24226  0.87120  0.63911  1.0000
  S   S141      1.0  0.20054  0.85394  0.61563  1.0000
  S   S142      1.0  0.24011  0.87960  0.67601  1.0000
  Fe  Fe74      1.0  0.22050  0.82504  0.60026  1.0000
  S   S143      1.0  0.19450  0.77352  0.58941  1.0000
  Fe  Fe75      1.0  0.23544  0.89380  0.59352  1.0000
  S   S144      1.0  0.22837  0.93092  0.57559  1.0000
  S   S145      1.0  0.25942  0.83966  0.62572  1.0000
  S   S146      1.0  0.27601  0.91240  0.61810  1.0000
  H   H589      1.0  0.14140  0.53987  0.57609  1.0000
  S   S147      1.0  0.23731  0.57141  0.59674  1.0000
  H   H590      1.0  0.41546  0.94199  0.50002  1.0000
  Fe  Fe76      1.0  0.23179  0.64082  0.62437  1.0000
  S   S148      1.0  0.26949  0.64869  0.59901  1.0000
  S   S149      1.0  0.23210  0.68258  0.64107  1.0000
  Fe  Fe77      1.0  0.22962  0.60839  0.58057  1.0000
  S   S150      1.0  0.22788  0.61087  0.54274  1.0000
  Fe  Fe78      1.0  0.27352  0.61111  0.61780  1.0000
  S   S151      1.0  0.31965  0.61191  0.62314  1.0000
  S   S152      1.0  0.19129  0.60241  0.60486  1.0000
  S   S153      1.0  0.23964  0.60685  0.64523  1.0000
  C   C360      1.0  0.23978  0.98925  0.58996  1.0000
  C   C361      1.0  0.18872  0.59334  0.53272  1.0000
  C   C362      1.0  0.16461  0.59228  0.54631  1.0000
  C   C363      1.0  0.13281  0.57524  0.53926  1.0000
  C   C364      1.0  0.12515  0.55974  0.51838  1.0000
  H   H591      1.0  0.26407  0.97994  0.63623  1.0000
  H   H592      1.0  0.36989  0.95241  0.54626  1.0000
  H   H593      1.0  0.17034  0.60461  0.56221  1.0000
  C   C365      1.0  0.36645  0.92824  0.54489  1.0000
  C   C366      1.0  0.40869  0.94510  0.51737  1.0000
  H   H594      1.0  0.36553  0.59607  0.63894  1.0000
  C   C367      1.0  0.31476  0.54468  0.67824  1.0000
  C   C368      1.0  0.28879  0.54923  0.67488  1.0000
  C   C369      1.0  0.29018  0.57004  0.65803  1.0000
  C   C370      1.0  0.31789  0.58707  0.64510  1.0000
  C   C371      1.0  0.34405  0.58291  0.64886  1.0000
  H   H595      1.0  0.33144  0.55136  0.57284  1.0000
  H   H596      1.0  0.26973  0.57265  0.65499  1.0000
  H   H597      1.0  0.22131  0.96496  0.70176  1.0000
  C   C372      1.0  0.20350  0.74747  0.60437  1.0000
  C   C373      1.0  0.21783  0.75529  0.62573  1.0000
  C   C374      1.0  0.22625  0.73511  0.63680  1.0000
  C   C375      1.0  0.22020  0.70668  0.62674  1.0000
  C   C376      1.0  0.20462  0.69805  0.60583  1.0000
  C   C377      1.0  0.19620  0.71834  0.59473  1.0000
  H   H598      1.0  0.22173  0.77648  0.63409  1.0000
  H   H599      1.0  0.23745  0.74158  0.65326  1.0000
  H   H600      1.0  0.19877  0.67559  0.59843  1.0000
  H   H601      1.0  0.18401  0.71144  0.57866  1.0000
  C   C378      1.0  0.21895  0.95648  0.59075  1.0000
  C   C379      1.0  0.18867  0.94503  0.60024  1.0000
  C   C380      1.0  0.17879  0.96611  0.60779  1.0000
  H   H602      1.0  0.14197  0.71667  0.52762  1.0000
  H   H603      1.0  0.20978  0.68917  0.68528  1.0000
  H   H604      1.0  0.25620  0.94288  0.69283  1.0000
  H   H605      1.0  0.17215  0.91988  0.60058  1.0000
  H   H606      1.0  0.15484  0.95694  0.61422  1.0000
  H   H607      1.0  0.20568  0.81577  0.52006  1.0000
  H   H608      1.0  0.14984  0.79625  0.53181  1.0000
  C   C381      1.0  0.34117  0.85981  0.58026  1.0000
  C   C382      1.0  0.36970  0.85912  0.58005  1.0000
  C   C383      1.0  0.37258  0.83692  0.56674  1.0000
  C   C384      1.0  0.34735  0.81597  0.55294  1.0000
  C   C385      1.0  0.31875  0.81664  0.55312  1.0000
  C   C386      1.0  0.31553  0.83823  0.56700  1.0000
  H   H609      1.0  0.38958  0.87566  0.59030  1.0000
  H   H610      1.0  0.33952  0.85726  0.64894  1.0000
  H   H611      1.0  0.29898  0.80040  0.54275  1.0000
  H   H612      1.0  0.29336  0.83841  0.56716  1.0000
  C   C387      1.0  0.14942  0.56193  0.50432  1.0000
  H   H613      1.0  0.42492  0.94242  0.52934  1.0000
  S   S154      1.0  0.31290  0.81661  0.49290  1.0000
  Fe  Fe79      1.0  0.20296  0.56896  0.62296  1.0000
  H   H614      1.0  0.34123  0.90407  0.69961  1.0000
  H   H615      1.0  0.13469  0.74528  0.49590  1.0000
  H   H616      1.0  0.28453  0.81812  0.69718  1.0000
  H   H617      1.0  0.25273  0.00353  0.69385  1.0000
  H   H618      1.0  0.17461  0.68674  0.49352  1.0000
  C   C388      1.0  0.20561  0.78831  0.69369  1.0000
  C   C389      1.0  0.21224  0.81543  0.68132  1.0000
  C   C390      1.0  0.22915  0.84522  0.69147  1.0000
  C   C391      1.0  0.36984  0.88977  0.52135  1.0000
  Fe  Fe80      1.0  0.33714  0.78896  0.49975  1.0000
  H   H619      1.0  0.19256  0.76527  0.68586  1.0000
  H   H620      1.0  0.20428  0.81326  0.66398  1.0000
  S   S155      1.0  0.30176  0.74564  0.48108  1.0000
  H   H621      1.0  0.22171  0.92697  0.64719  1.0000
  H   H622      1.0  0.19627  0.94291  0.65360  1.0000
  H   H623      1.0  0.26229  0.67117  0.68438  1.0000
  H   H624      1.0  0.39463  0.83637  0.56680  1.0000
  C   C392      1.0  0.20776  0.66959  0.69608  1.0000
  H   H625      1.0  0.32881  0.90810  0.50804  1.0000
  S   S156      1.0  0.51145  0.97226  0.49246  1.0000
  H   H626      1.0  0.21928  0.78835  0.51451  1.0000
  H   H627      1.0  0.26764  0.52411  0.61537  1.0000
  N   N37       1.0  0.29890  0.51461  0.59523  1.0000
  C   C393      1.0  0.42563  0.89609  0.47751  1.0000
  H   H628      1.0  0.27563  0.83273  0.67217  1.0000
  H   H629      1.0  0.26832  0.71033  0.68436  1.0000
  H   H630      1.0  0.26736  0.53613  0.68483  1.0000
  H   H631      1.0  0.33852  0.51459  0.61163  1.0000
  H   H632      1.0  0.27441  0.94907  0.66547  1.0000
  H   H633      1.0  0.11410  0.57389  0.55004  1.0000
  H   H634      1.0  0.21087  0.79474  0.54298  1.0000
  H   H635      1.0  0.26317  0.99841  0.58252  1.0000
  H   H636      1.0  0.37416  0.88362  0.50412  1.0000
  C   C394      1.0  0.25696  0.99010  0.65043  1.0000
  H   H637      1.0  0.34495  0.87204  0.52593  1.0000
  C   C395      1.0  0.21470  0.93814  0.66075  1.0000
  H   H638      1.0  0.16162  0.78693  0.49244  1.0000
  N   N38       1.0  0.26066  0.70884  0.54834  1.0000
  C   C396      1.0  0.28233  0.69796  0.54003  1.0000
  C   C397      1.0  0.27342  0.72673  0.56962  1.0000
  C   C398      1.0  0.22875  0.68128  0.55237  1.0000
  C   C399      1.0  0.25815  0.72942  0.53121  1.0000
  H   H639      1.0  0.27346  0.68436  0.52399  1.0000
  H   H640      1.0  0.28456  0.68213  0.55250  1.0000
  H   H641      1.0  0.30672  0.71817  0.53679  1.0000
  H   H642      1.0  0.25839  0.73636  0.57599  1.0000
  H   H643      1.0  0.27463  0.71166  0.58324  1.0000
  H   H644      1.0  0.29796  0.74707  0.56722  1.0000
  H   H645      1.0  0.21142  0.68859  0.55765  1.0000
  H   H646      1.0  0.22946  0.66573  0.56580  1.0000
  H   H647      1.0  0.21914  0.66663  0.53683  1.0000
  H   H648      1.0  0.24269  0.73880  0.53711  1.0000
  H   H649      1.0  0.24788  0.71647  0.51510  1.0000
  H   H650      1.0  0.28194  0.74996  0.52729  1.0000
  H   H651      1.0  0.35759  0.94937  0.50504  1.0000
  H   H652      1.0  0.14360  0.54920  0.48853  1.0000
  C   C400      1.0  0.15971  0.76454  0.49850  1.0000
  C   C401      1.0  0.34228  0.56132  0.66513  1.0000
  C   C402      1.0  0.28169  0.51183  0.61653  1.0000
  S   S157      1.0  0.35201  0.78914  0.53574  1.0000
  H   H653      1.0  0.41361  0.96982  0.51864  1.0000
  H   H654      1.0  0.36237  0.55777  0.66769  1.0000
  H   H655      1.0  0.28770  0.98135  0.68496  1.0000
  N   N39       1.0  0.32437  0.85948  0.68287  1.0000
  C   C403      1.0  0.34832  0.85381  0.69406  1.0000
  C   C404      1.0  0.33611  0.87352  0.66028  1.0000
  C   C405      1.0  0.31880  0.88136  0.69679  1.0000
  C   C406      1.0  0.29420  0.82924  0.68043  1.0000
  H   H656      1.0  0.30906  0.87113  0.71374  1.0000
  H   H657      1.0  0.29733  0.81206  0.66998  1.0000
  H   H658      1.0  0.12301  0.75456  0.53525  1.0000
  H   H659      1.0  0.22918  0.63334  0.71431  1.0000
  H   H660      1.0  0.36025  0.92065  0.48761  1.0000
  H   H661      1.0  0.35928  0.89594  0.66142  1.0000
  H   H662      1.0  0.18072  0.99549  0.50517  1.0000
  H   H663      1.0  0.24455  0.72716  0.71416  1.0000
  S   S158      1.0  0.08512  0.53513  0.51123  1.0000
  C   C407      1.0  0.23224  0.98139  0.68720  1.0000
  H   H664      1.0  0.41127  0.87251  0.48408  1.0000
  H   H665      1.0  0.17498  0.75932  0.48730  1.0000
  C   C408      1.0  0.45602  0.91597  0.48672  1.0000
  C   C409      1.0  0.16852  0.99938  0.51975  1.0000
  Fe  Fe81      1.0  0.07746  0.53816  0.47415  1.0000
  H   H666      1.0  0.38128  0.92576  0.55824  1.0000
  H   H667      1.0  0.20343  0.92035  0.67450  1.0000
  N   N40       1.0  0.24253  0.96737  0.66923  1.0000
  H   H668      1.0  0.38589  0.88675  0.53325  1.0000
  H   H669      1.0  0.46470  0.90742  0.50028  1.0000
  C   C410      1.0  0.14835  0.77360  0.53667  1.0000
  H   H670      1.0  0.15547  0.97672  0.52919  1.0000
  N   N41       1.0  0.37488  0.92212  0.52215  1.0000
  C   C411      1.0  0.35447  0.92526  0.50498  1.0000
  H   H671      1.0  0.33574  0.56229  0.60219  1.0000
  H   H672      1.0  0.21422  0.98729  0.68084  1.0000
  H   H673      1.0  0.35317  0.83740  0.68406  1.0000
  H   H674      1.0  0.34110  0.91127  0.54912  1.0000
  C   C412      1.0  0.20276  0.79258  0.52510  1.0000
  S   S159      1.0  0.16555  0.52220  0.63726  1.0000
  H   H675      1.0  0.17343  0.73759  0.54773  1.0000
  C   C413      1.0  0.19910  0.99888  0.60613  1.0000
  N   N42       1.0  0.16939  0.76687  0.52247  1.0000
  C   C414      1.0  0.16672  0.73673  0.52964  1.0000
  H   H676      1.0  0.34013  0.84332  0.71116  1.0000
  C   C415      1.0  0.23937  0.84790  0.71385  1.0000
  S   S160      1.0  0.31213  0.51604  0.69709  1.0000
  N   N43       1.0  0.23648  0.68012  0.71021  1.0000
  H   H677      1.0  0.37127  0.87618  0.69651  1.0000
  H   H678      1.0  0.09287  0.51052  0.55351  1.0000
  H   H679      1.0  0.15501  0.77552  0.55488  1.0000
  H   H680      1.0  0.16129  0.52044  0.58749  1.0000
  S   S161      1.0  0.37052  0.80809  0.47016  1.0000
  H   H681      1.0  0.13614  0.64119  0.47024  1.0000
  C   C416      1.0  0.26477  0.69058  0.69559  1.0000
  C   C417      1.0  0.01580  0.99232  0.49739  1.0000
  C   C418      1.0  0.47498  0.94691  0.47877  1.0000
  H   H682      1.0  0.14558  0.52099  0.53824  1.0000
  H   H683      1.0  0.28689  0.69889  0.70583  1.0000
  C   C419      1.0  0.31806  0.54825  0.58884  1.0000
  H   H684      1.0  0.29850  0.52265  0.63089  1.0000
  C   C420      1.0  0.26627  0.95987  0.67852  1.0000
  H   H685      1.0  0.30286  0.55917  0.58645  1.0000
  C   C421      1.0  0.17664  0.68801  0.47530  1.0000
  H   H686      1.0  0.18597  0.66128  0.70661  1.0000
  S   S162      1.0  0.22638  0.74849  0.48154  1.0000
  C   C422      1.0  0.13751  0.51706  0.58293  1.0000
  C   C423      1.0  0.21660  0.79112  0.71596  1.0000
  H   H687      1.0  0.20290  0.99454  0.55355  1.0000
  H   H688      1.0  0.21129  0.50764  0.61544  1.0000
  H   H689      1.0  0.12359  0.51235  0.59887  1.0000
  Fe  Fe82      1.0  0.27876  0.77416  0.47259  1.0000
  H   H690      1.0  0.25898  0.50603  0.57440  1.0000
  H   H691      1.0  0.15051  0.00491  0.51280  1.0000
  H   H692      1.0  0.33112  0.54518  0.81415  1.0000
  C   C424      1.0  0.30721  0.68732  0.76367  1.0000
  C   C425      1.0  0.23106  0.86087  0.81430  1.0000
  H   H693      1.0  0.21958  0.91694  0.78917  1.0000
  C   C426      1.0  0.34158  0.57615  0.86698  1.0000
  H   H694      1.0  0.35131  0.93390  0.73548  1.0000
  S   S163      1.0  0.36329  0.90151  0.92657  1.0000
  H   H695      1.0  0.08433  0.94046  0.88127  1.0000
  H   H696      1.0  0.28127  0.69068  0.79208  1.0000
  Fe  Fe83      1.0  0.30314  0.75811  0.76711  1.0000
  H   H697      1.0  0.33559  0.59483  0.86304  1.0000
  C   C427      1.0  0.07135  0.95058  0.88918  1.0000
  Fe  Fe84      1.0  0.27748  0.78256  0.80356  1.0000
  S   S164      1.0  0.32740  0.79957  0.79112  1.0000
  S   S165      1.0  0.26495  0.78651  0.83941  1.0000
  S   S166      1.0  0.25396  0.73940  0.78136  1.0000
  S   S167      1.0  0.26790  0.81263  0.78008  1.0000
  S   S168      1.0  0.19244  0.97456  0.87808  1.0000
  H   H698      1.0  0.37404  0.61169  0.83109  1.0000
  S   S169      1.0  0.14053  0.88076  0.95664  1.0000
  H   H699      1.0  0.22565  0.52950  0.85564  1.0000
  S   S170      1.0  0.32351  0.54881  0.75881  1.0000
  Fe  Fe85      1.0  0.45417  0.94416  0.93982  1.0000
  C   C428      1.0  0.08693  0.97575  0.90429  1.0000
  C   C429      1.0  0.38931  0.89945  0.81112  1.0000
  Fe  Fe86      1.0  0.27974  0.54988  0.77044  1.0000
  S   S171      1.0  0.27391  0.58687  0.78969  1.0000
  C   C430      1.0  0.16395  0.91693  0.81716  1.0000
  C   C431      1.0  0.18929  0.50821  0.80434  1.0000
  C   C432      1.0  0.22865  0.90670  0.80201  1.0000
  C   C433      1.0  0.03722  0.97680  0.90911  1.0000
  C   C434      1.0  0.28790  0.67570  0.78288  1.0000
  C   C435      1.0  0.27776  0.64485  0.79056  1.0000
  C   C436      1.0  0.28640  0.62516  0.77893  1.0000
  S   S172      1.0  0.12800  0.91247  0.89887  1.0000
  H   H700      1.0  0.25749  0.87456  0.81532  1.0000
  H   H701      1.0  0.26337  0.63635  0.80569  1.0000
  Fe  Fe87      1.0  0.16011  0.91199  0.92599  1.0000
  H   H702      1.0  0.31199  0.62168  0.75032  1.0000
  H   H703      1.0  0.17549  0.82915  0.79272  1.0000
  H   H704      1.0  0.20865  0.99119  0.79639  1.0000
  S   S173      1.0  0.41920  0.89699  0.95451  1.0000
  H   H705      1.0  0.32846  0.84303  0.90536  1.0000
  H   H706      1.0  0.35440  0.88872  0.86281  1.0000
  H   H707      1.0  0.31275  0.52149  0.96487  1.0000
  S   S174      1.0  0.42374  0.96626  0.94772  1.0000
  C   C437      1.0  0.40751  0.93454  0.84329  1.0000
  C   C438      1.0  0.18375  0.85448  0.79600  1.0000
  H   H708      1.0  0.21927  0.90873  0.81876  1.0000
  H   H709      1.0  0.32178  0.93782  0.93419  1.0000
  H   H710      1.0  0.08045  0.89950  0.94924  1.0000
  C   C439      1.0  0.32285  0.90062  0.78689  1.0000
  H   H711      1.0  0.37938  0.55014  0.86445  1.0000
  C   C440      1.0  0.37923  0.59277  0.83608  1.0000
  C   C441      1.0  0.35552  0.88784  0.84400  1.0000
  C   C442      1.0  0.32705  0.82959  0.89053  1.0000
  C   C443      1.0  0.29995  0.81733  0.87669  1.0000
  C   C444      1.0  0.29778  0.79956  0.85751  1.0000
  H   H712      1.0  0.31752  0.57048  0.82526  1.0000
  H   H713      1.0  0.19698  0.55851  0.84674  1.0000
  C   C445      1.0  0.18065  0.95010  0.77591  1.0000
  H   H714      1.0  0.28085  0.82191  0.88067  1.0000
  H   H715      1.0  0.26441  0.94431  0.94937  1.0000
  S   S175      1.0  0.26382  0.50716  0.79245  1.0000
  C   C446      1.0  0.35027  0.97424  0.89626  1.0000
  S   S176      1.0  0.19429  0.96980  0.74986  1.0000
  Fe  Fe88      1.0  0.31582  0.82676  0.76596  1.0000
  Fe  Fe89      1.0  0.21949  0.96730  0.90620  1.0000
  C   C447      1.0  0.32447  0.55270  0.83004  1.0000
  S   S177      1.0  0.18421  0.96381  0.93234  1.0000
  H   H716      1.0  0.41376  0.90748  0.80469  1.0000
  N   N44       1.0  0.21889  0.87355  0.79668  1.0000
  H   H717      1.0  0.07375  0.92981  0.93782  1.0000
  S   S178      1.0  0.27940  0.98864  0.73941  1.0000
  H   H718      1.0  0.40223  0.88360  0.86476  1.0000
  H   H719      1.0  0.17222  0.54819  0.82201  1.0000
  H   H720      1.0  0.22333  0.88162  0.76076  1.0000
  C   C448      1.0  0.29521  0.96275  0.89231  1.0000
  C   C449      1.0  0.35178  0.82370  0.88544  1.0000
  C   C450      1.0  0.15833  0.91782  0.77628  1.0000
  C   C451      1.0  0.33987  0.53787  0.91665  1.0000
  H   H721      1.0  0.36564  0.53218  0.83727  1.0000
  H   H722      1.0  0.33838  0.52041  0.86066  1.0000
  C   C452      1.0  0.19425  0.54972  0.82904  1.0000
  H   H723      1.0  0.40781  0.93662  0.86203  1.0000
  H   H724      1.0  0.38701  0.58553  0.82056  1.0000
  H   H725      1.0  0.02764  0.92037  0.87133  1.0000
  H   H726      1.0  0.25687  0.86595  0.96057  1.0000
  C   C453      1.0  0.26155  0.92047  0.94668  1.0000
  H   H727      1.0  0.38107  0.91463  0.80307  1.0000
  H   H728      1.0  0.27197  0.94929  0.88455  1.0000
  H   H729      1.0  0.39978  0.60331  0.84799  1.0000
  H   H730      1.0  0.43268  0.94562  0.83752  1.0000
  H   H731      1.0  0.30304  0.53170  0.83704  1.0000
  H   H732      1.0  0.39032  0.55677  0.91189  1.0000
  C   C454      1.0  0.36703  0.53574  0.91166  1.0000
  H   H733      1.0  0.26376  0.91779  0.92818  1.0000
  H   H734      1.0  0.39722  0.94882  0.83663  1.0000
  H   H735      1.0  0.21979  0.70005  0.73556  1.0000
  H   H736      1.0  0.17298  0.85595  0.81231  1.0000
  H   H737      1.0  0.24225  0.82334  0.74286  1.0000
  H   H738      1.0  0.34432  0.90111  0.83708  1.0000
  C   C455      1.0  0.35585  0.99804  0.91177  1.0000
  S   S179      1.0  0.19726  0.91509  0.90178  1.0000
  H   H739      1.0  0.32178  0.96496  0.95475  1.0000
  C   C456      1.0  0.33464  0.95347  0.76117  1.0000
  H   H740      1.0  0.30984  0.92227  0.81356  1.0000
  H   H741      1.0  0.37363  0.87489  0.80492  1.0000
  C   C457      1.0  0.30947  0.51110  0.91562  1.0000
  C   C458      1.0  0.31795  0.92429  0.79627  1.0000
  H   H742      1.0  0.25503  0.92188  0.80249  1.0000
  C   C459      1.0  0.32350  0.95060  0.78336  1.0000
  C   C460      1.0  0.35893  0.54103  0.85247  1.0000
  H   H743      1.0  0.30453  0.99315  0.84817  1.0000
  H   H744      1.0  0.31830  0.88031  0.79692  1.0000
  H   H745      1.0  0.25841  0.88595  0.77425  1.0000
  H   H746      1.0  0.33049  0.67630  0.73702  1.0000
  C   C461      1.0  0.06969  0.98873  0.91428  1.0000
  S   S180      1.0  0.27614  0.51554  0.92131  1.0000
  C   C462      1.0  0.33537  0.90419  0.76504  1.0000
  H   H747      1.0  0.33929  0.97383  0.75117  1.0000
  S   S181      1.0  0.43518  0.93095  0.90437  1.0000
  S   S182      1.0  0.15678  0.89481  0.84212  1.0000
  C   C463      1.0  0.32225  0.79321  0.85261  1.0000
  C   C464      1.0  0.18525  0.94941  0.81687  1.0000
  H   H748      1.0  0.32023  0.55625  0.87513  1.0000
  Fe  Fe90      1.0  0.40115  0.94813  0.91358  1.0000
  Fe  Fe91      1.0  0.15413  0.96484  0.90381  1.0000
  C   C465      1.0  0.31777  0.94071  0.95233  1.0000
  Fe  Fe92      1.0  0.24979  0.77162  0.75636  1.0000
  C   C466      1.0  0.36422  0.50660  0.90636  1.0000
  H   H749      1.0  0.22417  0.83587  0.81082  1.0000
  H   H750      1.0  0.34057  0.86267  0.83887  1.0000
  Fe  Fe93      1.0  0.39821  0.88531  0.91972  1.0000
  Fe  Fe94      1.0  0.16793  0.92166  0.87506  1.0000
  C   C467      1.0  0.31561  0.66753  0.75194  1.0000
  H   H751      1.0  0.14808  0.90546  0.76060  1.0000
  C   C468      1.0  0.30511  0.63653  0.75943  1.0000
  H   H752      1.0  0.22152  0.86162  0.83131  1.0000
  H   H753      1.0  0.13291  0.87630  0.79705  1.0000
  C   C469      1.0  0.34904  0.80495  0.86673  1.0000
  C   C470      1.0  0.34129  0.93071  0.75226  1.0000
  H   H754      1.0  0.42797  0.89284  0.84080  1.0000
  S   S183      1.0  0.38684  0.84049  0.90160  1.0000
  H   H755      1.0  0.38929  0.85794  0.84067  1.0000
  C   C471      1.0  0.19320  0.96599  0.79634  1.0000
  H   H756      1.0  0.31552  0.93857  0.87415  1.0000
  C   C472      1.0  0.23193  0.87204  0.77440  1.0000
  S   S184      1.0  0.29722  0.78762  0.74054  1.0000
  S   S185      1.0  0.34596  0.87710  0.75407  1.0000
  S   S186      1.0  0.32086  0.72608  0.75350  1.0000
  N   N45       1.0  0.35106  0.56567  0.84642  1.0000
  C   C473      1.0  0.14993  0.90132  0.79687  1.0000
  H   H757      1.0  0.36791  0.79993  0.86293  1.0000
  H   H758      1.0  0.19610  0.96175  0.83234  1.0000
  H   H759      1.0  0.32026  0.77873  0.83821  1.0000
  N   N46       1.0  0.38875  0.90123  0.83606  1.0000
  H   H760      1.0  0.22469  0.84730  0.76983  1.0000
  H   H761      1.0  0.17381  0.86276  0.78241  1.0000
  C   C474      1.0  0.31989  0.95670  0.88644  1.0000
  H   H762      1.0  0.21481  0.56791  0.81908  1.0000
  C   C475      1.0  0.28099  0.88483  0.95528  1.0000
  C   C476      1.0  0.22253  0.52206  0.83757  1.0000
  H   H763      1.0  0.11302  0.93525  0.93845  1.0000
  C   C477      1.0  0.40270  0.88313  0.84594  1.0000
  C   C478      1.0  0.03916  0.93922  0.88357  1.0000
  H   H764      1.0  0.34240  0.56051  0.92098  1.0000
  H   H765      1.0  0.25399  0.66108  0.73545  1.0000
  S   S187      1.0  0.31725  0.97994  0.79562  1.0000
  S   S188      1.0  0.21036  0.75769  0.73113  1.0000
  H   H766      1.0  0.20623  0.93027  0.96182  1.0000
  H   H767      1.0  0.25267  0.87092  0.72168  1.0000
  S   S189      1.0  0.12777  0.99151  0.91118  1.0000
  S   S190      1.0  0.38183  0.96839  0.88757  1.0000
  C   C479      1.0  0.09041  0.92546  0.94811  1.0000
  S   S191      1.0  0.24950  0.52218  0.74071  1.0000
  H   H768      1.0  0.33654  0.93914  0.96206  1.0000
  Fe  Fe95      1.0  0.29191  0.51742  0.73095  1.0000
  H   H769      1.0  0.26197  0.71487  0.73576  1.0000
  C   C480      1.0  0.30109  0.98699  0.90756  1.0000
  H   H770      1.0  0.27608  0.00180  0.86104  1.0000
  H   H771      1.0  0.28394  0.88132  0.93701  1.0000
  Fe  Fe96      1.0  0.38792  0.91798  0.95993  1.0000
  H   H772      1.0  0.36105  0.58593  0.87977  1.0000
  Fe  Fe97      1.0  0.24651  0.00514  0.75181  1.0000
  C   C481      1.0  0.23362  0.82097  0.72587  1.0000
  S   S192      1.0  0.27218  0.99779  0.91396  1.0000
  H   H773      1.0  0.20952  0.52550  0.79372  1.0000
  H   H774      1.0  0.29878  0.88116  0.96472  1.0000
  S   S193      1.0  0.50445  0.96310  0.95360  1.0000
  H   H775      1.0  0.02436  0.98731  0.91662  1.0000
  H   H776      1.0  0.24377  0.54003  0.82810  1.0000
  H   H777      1.0  0.13482  0.98472  0.95942  1.0000
  C   C482      1.0  0.24088  0.70668  0.72458  1.0000
  N   N47       1.0  0.28548  0.91656  0.95960  1.0000
  C   C483      1.0  0.23260  0.65381  0.72466  1.0000
  H   H778      1.0  0.23683  0.90266  0.95171  1.0000
  N   N48       1.0  0.19282  0.51885  0.82811  1.0000
  C   C484      1.0  0.33147  0.00453  0.91723  1.0000
  H   H779      1.0  0.21177  0.64563  0.73618  1.0000
  C   C485      1.0  0.02193  0.95227  0.89344  1.0000
  H   H780      1.0  0.27959  0.00161  0.83075  1.0000
  H   H781      1.0  0.09655  0.98160  0.95765  1.0000
  Fe  Fe98      1.0  0.93432  0.43373  0.09403  1.0000
  S   S194      1.0  0.92008  0.38608  0.07982  1.0000
  S   S195      1.0  0.93907  0.47075  0.06946  1.0000
  Fe  Fe99      1.0  0.93034  0.41149  0.14237  1.0000
  S   S196      1.0  0.91462  0.36190  0.13165  1.0000
  S   S197      1.0  0.92965  0.41940  0.17977  1.0000
  Fe  Fe100     1.0  0.95350  0.38509  0.10565  1.0000
  C   C486      1.0  0.98521  0.41787  0.18432  1.0000
  Fe  Fe101     1.0  0.88307  0.36879  0.10715  1.0000
  S   S198      1.0  0.83112  0.33354  0.10128  1.0000
  H   H782      1.0  0.92146  0.02447  0.99722  1.0000
  S   S199      1.0  0.89575  0.41639  0.12002  1.0000
  H   H783      1.0  0.86908  0.36876  0.16625  1.0000
  H   H784      1.0  0.78237  0.45179  0.02734  1.0000
  Fe  Fe102     1.0  0.64576  0.39592  0.11129  1.0000
  S   S200      1.0  0.67289  0.44646  0.10030  1.0000
  S   S201      1.0  0.59188  0.36751  0.11421  1.0000
  Fe  Fe103     1.0  0.70706  0.39424  0.12233  1.0000
  S   S202      1.0  0.73854  0.44499  0.11326  1.0000
  S   S203      1.0  0.72620  0.36401  0.13639  1.0000
  Fe  Fe104     1.0  0.70252  0.45333  0.13115  1.0000
  H   H785      1.0  0.97761  0.41485  0.97799  1.0000
  Fe  Fe105     1.0  0.70589  0.43296  0.08339  1.0000
  S   S204      1.0  0.72874  0.45324  0.04985  1.0000
  S   S205      1.0  0.67370  0.40352  0.14317  1.0000
  S   S206      1.0  0.67613  0.38139  0.09138  1.0000
  H   H786      1.0  0.94459  0.27006  0.17209  1.0000
  H   H787      1.0  0.60171  0.37491  0.16281  1.0000
  H   H788      1.0  0.56954  0.45035  0.08926  1.0000
  H   H789      1.0  0.78503  0.33626  0.18480  1.0000
  C   C487      1.0  0.55961  0.42660  0.09572  1.0000
  H   H790      1.0  0.72616  0.04453  0.18697  1.0000
  H   H791      1.0  0.75967  0.41696  0.01064  1.0000
  C   C488      1.0  0.78987  0.38642  0.02456  1.0000
  C   C489      1.0  0.82022  0.43329  0.04714  1.0000
  H   H792      1.0  0.65073  0.35936  0.00826  1.0000
  H   H793      1.0  0.98453  0.28306  0.16263  1.0000
  C   C490      1.0  0.96999  0.28857  0.17437  1.0000
  S   S207      1.0  0.71470  0.49161  0.15687  1.0000
  S   S208      1.0  0.86286  0.39757  0.98340  1.0000
  H   H794      1.0  0.57638  0.43470  0.17162  1.0000
  S   S209      1.0  0.59513  0.50255  0.18576  1.0000
  N   N49       1.0  0.78918  0.41290  0.03608  1.0000
  C   C491      1.0  0.70942  0.43172  0.02549  1.0000
  C   C492      1.0  0.71682  0.44719  0.00460  1.0000
  C   C493      1.0  0.69986  0.43129  0.98514  1.0000
  C   C494      1.0  0.67543  0.39988  0.98656  1.0000
  C   C495      1.0  0.66931  0.38384  0.00721  1.0000
  C   C496      1.0  0.68640  0.39973  0.02667  1.0000
  H   H795      1.0  0.92957  0.40387  0.00042  1.0000
  H   H796      1.0  0.87109  0.42062  0.16733  1.0000
  H   H797      1.0  0.76718  0.38562  0.06605  1.0000
  H   H798      1.0  0.68124  0.38737  0.04259  1.0000
  C   C497      1.0  0.96509  0.32218  0.14665  1.0000
  C   C498      1.0  0.84268  0.35735  0.16555  1.0000
  H   H799      1.0  0.99438  0.41391  0.03951  1.0000
  H   H800      1.0  0.82048  0.45344  0.05609  1.0000
  C   C499      1.0  0.84163  0.38026  0.20148  1.0000
  C   C500      1.0  0.57441  0.39481  0.03706  1.0000
  H   H801      1.0  0.76290  0.41979  0.06266  1.0000
  H   H802      1.0  0.97327  0.47161  0.01795  1.0000
  C   C501      1.0  0.95533  0.32685  0.18614  1.0000
  C   C502      1.0  0.52641  0.40729  0.09750  1.0000
  H   H803      1.0  0.56464  0.41416  0.21052  1.0000
  N   N50       1.0  0.97479  0.32039  0.17007  1.0000
  H   H804      1.0  0.78755  0.35589  0.15876  1.0000
  H   H805      1.0  0.53928  0.37511  0.19967  1.0000
  H   H806      1.0  0.60984  0.42527  0.00056  1.0000
  C   C503      1.0  0.61907  0.42249  0.19192  1.0000
  H   H807      1.0  0.79505  0.37213  0.03666  1.0000
  H   H808      1.0  0.90555  0.46469  0.99122  1.0000
  C   C504      1.0  0.65702  0.48820  0.14886  1.0000
  C   C505      1.0  0.95660  0.41184  0.19442  1.0000
  H   H809      1.0  0.73505  0.47181  0.00353  1.0000
  H   H810      1.0  0.93957  0.30465  0.14355  1.0000
  H   H811      1.0  0.64546  0.46280  0.04277  1.0000
  H   H812      1.0  0.63626  0.42842  0.17770  1.0000
  H   H813      1.0  0.70524  0.44361  0.96918  1.0000
  H   H814      1.0  0.99129  0.42810  0.16758  1.0000
  H   H815      1.0  0.62715  0.41324  0.20608  1.0000
  H   H816      1.0  0.52420  0.34088  0.11725  1.0000
  H   H817      1.0  0.59141  0.35900  0.19089  1.0000
  S   S210      1.0  0.97113  0.43461  0.11778  1.0000
  C   C506      1.0  0.94915  0.39915  0.21627  1.0000
  C   C507      1.0  0.58004  0.41519  0.10189  1.0000
  C   C508      1.0  0.56734  0.38399  0.10909  1.0000
  C   C509      1.0  0.53420  0.36503  0.11160  1.0000
  H   H818      1.0  0.59323  0.41950  0.15158  1.0000
  H   H819      1.0  0.65773  0.47957  0.13222  1.0000
  H   H820      1.0  0.60553  0.43029  0.10056  1.0000
  C   C510      1.0  0.79603  0.35983  0.17657  1.0000
  C   C511      1.0  0.76366  0.40038  0.05334  1.0000
  C   C512      1.0  0.80138  0.34339  0.10741  1.0000
  C   C513      1.0  0.80735  0.37460  0.10743  1.0000
  C   C514      1.0  0.78339  0.38126  0.11444  1.0000
  C   C515      1.0  0.75359  0.35671  0.12163  1.0000
  C   C516      1.0  0.74761  0.32564  0.12088  1.0000
  C   C517      1.0  0.77113  0.31901  0.11352  1.0000
  H   H821      1.0  0.83049  0.39358  0.10240  1.0000
  H   H822      1.0  0.78847  0.40541  0.11539  1.0000
  H   H823      1.0  0.72490  0.30659  0.12669  1.0000
  H   H824      1.0  0.76620  0.29486  0.11344  1.0000
  C   C518      1.0  0.91192  0.45295  0.04713  1.0000
  C   C519      1.0  0.91728  0.46885  0.02654  1.0000
  C   C520      1.0  0.90087  0.45237  0.00706  1.0000
  C   C521      1.0  0.87906  0.42002  0.00811  1.0000
  C   C522      1.0  0.87115  0.40498  0.02919  1.0000
  C   C523      1.0  0.88730  0.42156  0.04874  1.0000
  C   C524      1.0  0.72500  0.02695  0.19864  1.0000
  C   C525      1.0  0.68211  0.49629  0.16403  1.0000
  H   H825      1.0  0.85373  0.38010  0.03029  1.0000
  H   H826      1.0  0.88159  0.40960  0.06486  1.0000
  N   N51       1.0  0.83121  0.37624  0.17761  1.0000
  H   H827      1.0  0.83591  0.35450  0.14739  1.0000
  N   N52       1.0  0.60947  0.41479  0.03603  1.0000
  H   H828      1.0  0.73977  0.38559  0.04553  1.0000
  H   H829      1.0  0.56070  0.35265  0.17094  1.0000
  H   H830      1.0  0.61401  0.39158  0.00641  1.0000
  H   H831      1.0  0.56247  0.40399  0.02584  1.0000
  H   H832      1.0  0.98689  0.44517  0.04677  1.0000
  H   H833      1.0  0.83626  0.42241  0.17537  1.0000
  H   H834      1.0  0.61131  0.44767  0.06093  1.0000
  H   H835      1.0  0.96596  0.45771  0.98919  1.0000
  H   H836      1.0  0.80177  0.44127  0.00592  1.0000
  C   C526      1.0  0.62967  0.50255  0.17681  1.0000
  H   H837      1.0  0.61144  0.48496  0.14346  1.0000
  H   H838      1.0  0.55228  0.39596  0.15984  1.0000
  C   C527      1.0  0.98092  0.46106  0.00440  1.0000
  H   H839      1.0  0.83231  0.35709  0.21009  1.0000
  C   C528      1.0  0.00882  0.34405  0.17312  1.0000
  H   H840      1.0  0.76668  0.37034  0.01625  1.0000
  C   C529      1.0  0.84454  0.40755  0.16681  1.0000
  H   H841      1.0  0.64682  0.43058  0.01121  1.0000
  H   H842      1.0  0.84436  0.11162  0.20809  1.0000
  C   C530      1.0  0.58491  0.37021  0.17711  1.0000
  C   C531      1.0  0.78301  0.43155  0.01925  1.0000
  S   S211      1.0  0.98598  0.36654  0.09479  1.0000
  C   C532      1.0  0.56431  0.39251  0.20428  1.0000
  C   C533      1.0  0.62045  0.41557  0.01256  1.0000
  C   C534      1.0  0.63095  0.49159  0.15516  1.0000
  H   H843      1.0  0.83729  0.40539  0.14875  1.0000
  H   H844      1.0  0.65045  0.41720  0.05200  1.0000
  H   H845      1.0  0.97958  0.31799  0.13395  1.0000
  H   H846      1.0  0.56658  0.37016  0.03174  1.0000
  N   N53       1.0  0.58618  0.39953  0.18489  1.0000
  H   H847      1.0  0.78638  0.37373  0.18486  1.0000
  H   H848      1.0  0.94128  0.38407  0.02065  1.0000
  C   C535      1.0  0.62413  0.40161  0.05119  1.0000
  C   C536      1.0  0.94440  0.40738  0.01574  1.0000
  H   H849      1.0  0.93546  0.49347  0.02535  1.0000
  H   H850      1.0  0.93438  0.41490  0.02969  1.0000
  H   H851      1.0  0.92965  0.30868  0.18501  1.0000
  H   H852      1.0  0.52537  0.47280  0.01250  1.0000
  H   H853      1.0  0.80857  0.39502  0.01118  1.0000
  H   H854      1.0  0.82580  0.41991  0.05981  1.0000
  C   C537      1.0  0.00629  0.41121  0.19609  1.0000
  C   C538      1.0  0.61905  0.44724  0.04330  1.0000
  H   H855      1.0  0.60849  0.45799  0.03222  1.0000
  H   H856      1.0  0.84002  0.44334  0.03458  1.0000
  H   H857      1.0  0.89239  0.02616  0.97954  1.0000
  H   H858      1.0  0.61491  0.39885  0.06878  1.0000
  H   H859      1.0  0.83332  0.39435  0.21110  1.0000
  H   H860      1.0  0.56533  0.39369  0.05456  1.0000
  H   H861      1.0  0.61916  0.37792  0.04542  1.0000
  H   H862      1.0  0.96835  0.34593  0.14295  1.0000
  H   H863      1.0  0.83257  0.33330  0.17285  1.0000
  H   H864      1.0  0.00586  0.47880  0.99980  1.0000
  H   H865      1.0  0.62089  0.44492  0.19774  1.0000
  C   C539      1.0  0.57656  0.41301  0.16618  1.0000
  H   H866      1.0  0.95722  0.35006  0.18267  1.0000
  C   C540      1.0  0.99123  0.41934  0.99408  1.0000
  N   N54       1.0  0.97823  0.43099  0.01183  1.0000
  H   H867      1.0  0.97693  0.28653  0.19200  1.0000
  H   H868      1.0  0.86814  0.39278  0.20275  1.0000
  C   C541      1.0  0.99624  0.43618  0.03313  1.0000
  H   H869      1.0  0.99006  0.39695  0.99923  1.0000
  C   C542      1.0  0.89592  0.01790  0.99627  1.0000
  H   H870      1.0  0.89147  0.03133  0.00957  1.0000
  H   H871      1.0  0.53006  0.47399  0.18783  1.0000
  H   H872      1.0  0.01317  0.36818  0.16986  1.0000
  H   H873      1.0  0.96312  0.32741  0.20397  1.0000
  C   C543      1.0  0.99820  0.39721  0.21756  1.0000
  C   C544      1.0  0.96975  0.39148  0.22772  1.0000
  S   S212      1.0  0.61386  0.47401  0.24043  1.0000
  C   C545      1.0  0.95241  0.44989  0.38163  1.0000
  H   H874      1.0  0.65555  0.18712  0.33764  1.0000
  H   H875      1.0  0.64231  0.10799  0.36958  1.0000
  H   H876      1.0  0.78601  0.05734  0.25022  1.0000
  C   C546      1.0  0.94111  0.44784  0.44342  1.0000
  H   H877      1.0  0.65156  0.14972  0.34472  1.0000
  Fe  Fe106     1.0  0.56832  0.44927  0.26038  1.0000
  S   S213      1.0  0.54727  0.39667  0.26493  1.0000
  C   C547      1.0  0.72477  0.03172  0.22201  1.0000
  S   S214      1.0  0.54418  0.47145  0.24197  1.0000
  H   H878      1.0  0.70177  0.23642  0.35147  1.0000
  H   H879      1.0  0.90162  0.24760  0.38407  1.0000
  H   H880      1.0  0.88159  0.17601  0.33470  1.0000
  S   S215      1.0  0.79458  0.29321  0.46018  1.0000
  H   H881      1.0  0.96359  0.38125  0.24441  1.0000
  C   C548      1.0  0.84077  0.10641  0.26548  1.0000
  H   H882      1.0  0.63335  0.03923  0.32048  1.0000
  H   H883      1.0  0.53811  0.48436  0.41199  1.0000
  H   H884      1.0  0.81652  0.22227  0.39258  1.0000
  H   H885      1.0  0.93987  0.44845  0.36553  1.0000
  S   S216      1.0  0.55725  0.03892  0.44334  1.0000
  Fe  Fe107     1.0  0.97927  0.34853  0.31097  1.0000
  S   S217      1.0  0.98076  0.30397  0.31631  1.0000
  S   S218      1.0  0.96297  0.37010  0.33779  1.0000
  H   H886      1.0  0.72180  0.01168  0.25496  1.0000
  H   H887      1.0  0.68073  0.17435  0.32447  1.0000
  Fe  Fe108     1.0  0.96030  0.29105  0.28130  1.0000
  S   S219      1.0  0.91806  0.24587  0.26799  1.0000
  H   H888      1.0  0.79751  0.11429  0.22330  1.0000
  H   H889      1.0  0.86795  0.10262  0.22682  1.0000
  S   S220      1.0  0.95542  0.33405  0.27704  1.0000
  C   C549      1.0  0.96294  0.02007  0.42207  1.0000
  C   C550      1.0  0.80616  0.06775  0.23804  1.0000
  C   C551      1.0  0.62657  0.04512  0.33633  1.0000
  H   H890      1.0  0.89871  0.24012  0.35412  1.0000
  Fe  Fe109     1.0  0.87067  0.29273  0.44129  1.0000
  S   S221      1.0  0.84092  0.30248  0.41728  1.0000
  S   S222      1.0  0.91314  0.29095  0.42783  1.0000
  H   H891      1.0  0.73297  0.23509  0.36696  1.0000
  H   H892      1.0  0.52143  0.33275  0.27601  1.0000
  Fe  Fe110     1.0  0.79895  0.26205  0.43432  1.0000
  S   S223      1.0  0.76024  0.22154  0.41433  1.0000
  N   N55       1.0  0.69277  0.18972  0.35904  1.0000
  C   C552      1.0  0.71321  0.20415  0.44669  1.0000
  C   C553      1.0  0.95160  0.34988  0.36373  1.0000
  C   C554      1.0  0.93250  0.35550  0.37862  1.0000
  C   C555      1.0  0.92208  0.33873  0.39901  1.0000
  C   C556      1.0  0.93045  0.31602  0.40448  1.0000
  C   C557      1.0  0.95095  0.31162  0.39018  1.0000
  C   C558      1.0  0.96149  0.32852  0.36984  1.0000
  H   H893      1.0  0.92497  0.37216  0.37410  1.0000
  H   H894      1.0  0.90723  0.34313  0.41033  1.0000
  H   H895      1.0  0.95799  0.29450  0.39454  1.0000
  H   H896      1.0  0.97722  0.32493  0.35897  1.0000
  C   C559      1.0  0.60845  0.05984  0.37742  1.0000
  C   C560      1.0  0.68074  0.14081  0.43309  1.0000
  C   C561      1.0  0.70989  0.16238  0.42296  1.0000
  C   C562      1.0  0.72618  0.19416  0.42963  1.0000
  H   H897      1.0  0.87680  0.28123  0.37811  1.0000
  S   S224      1.0  0.82891  0.24979  0.45608  1.0000
  C   C563      1.0  0.83583  0.17020  0.28944  1.0000
  H   H898      1.0  0.79544  0.06343  0.22081  1.0000
  S   S225      1.0  0.74306  0.11465  0.28894  1.0000
  H   H899      1.0  0.71971  0.15435  0.40983  1.0000
  C   C564      1.0  0.94034  0.47530  0.43755  1.0000
  N   N56       1.0  0.82743  0.10179  0.24237  1.0000
  C   C565      1.0  0.88267  0.44394  0.43397  1.0000
  C   C566      1.0  0.88311  0.41641  0.43952  1.0000
  H   H900      1.0  0.72258  0.17263  0.34543  1.0000
  H   H901      1.0  0.97320  0.05374  0.44879  1.0000
  C   C567      1.0  0.60302  0.02108  0.34967  1.0000
  H   H902      1.0  0.68795  0.05150  0.40092  1.0000
  Fe  Fe111     1.0  0.72585  0.06890  0.27021  1.0000
  S   S226      1.0  0.58836  0.48563  0.28810  1.0000
  S   S227      1.0  0.67186  0.10653  0.32745  1.0000
  C   C568      1.0  0.95660  0.03043  0.44248  1.0000
  C   C569      1.0  0.85863  0.19618  0.27696  1.0000
  C   C570      1.0  0.88960  0.21536  0.28537  1.0000
  C   C571      1.0  0.89756  0.20844  0.30652  1.0000
  H   H903      1.0  0.67400  0.00579  0.42599  1.0000
  N   N57       1.0  0.98723  0.46493  0.37827  1.0000
  H   H904      1.0  0.85227  0.20151  0.26068  1.0000
  H   H905      1.0  0.92151  0.22278  0.31300  1.0000
  C   C572      1.0  0.84406  0.16253  0.31016  1.0000
  H   H906      1.0  0.98541  0.42310  0.36556  1.0000
  S   S228      1.0  0.81648  0.12888  0.32561  1.0000
  C   C573      1.0  0.91096  0.47300  0.43290  1.0000
  C   C574      1.0  0.67607  0.18781  0.38044  1.0000
  C   C575      1.0  0.85367  0.11467  0.22569  1.0000
  C   C576      1.0  0.87495  0.18188  0.31873  1.0000
  H   H907      1.0  0.66068  0.16291  0.38601  1.0000
  H   H908      1.0  0.81206  0.15583  0.28283  1.0000
  C   C577      1.0  0.92847  0.01070  0.45463  1.0000
  H   H909      1.0  0.66832  0.11664  0.42749  1.0000
  Fe  Fe112     1.0  0.70696  0.02888  0.31224  1.0000
  S   S229      1.0  0.63061  0.05193  0.43494  1.0000
  H   H910      1.0  0.71481  0.01932  0.39634  1.0000
  C   C578      1.0  0.66930  0.03501  0.38897  1.0000
  N   N58       1.0  0.85524  0.23204  0.36994  1.0000
  Fe  Fe113     1.0  0.84029  0.33266  0.44572  1.0000
  H   H911      1.0  0.73037  0.18504  0.37451  1.0000
  S   S230      1.0  0.75232  0.05194  0.29185  1.0000
  H   H912      1.0  0.83920  0.26523  0.36404  1.0000
  C   C579      1.0  0.66743  0.15083  0.44989  1.0000
  Fe  Fe114     1.0  0.58096  0.01667  0.42421  1.0000
  Fe  Fe115     1.0  0.60699  0.07184  0.45662  1.0000
  H   H913      1.0  0.82955  0.18557  0.35529  1.0000
  H   H914      1.0  0.83401  0.19777  0.39658  1.0000
  H   H915      1.0  0.91007  0.49393  0.42821  1.0000
  H   H916      1.0  0.98894  0.50001  0.35552  1.0000
  H   H917      1.0  0.72769  0.22545  0.33731  1.0000
  Fe  Fe116     1.0  0.76672  0.09619  0.31187  1.0000
  H   H918      1.0  0.98201  0.44720  0.34424  1.0000
  C   C580      1.0  0.91245  0.41832  0.44431  1.0000
  S   S231      1.0  0.67989  0.04347  0.28931  1.0000
  C   C581      1.0  0.83940  0.22206  0.39222  1.0000
  C   C582      1.0  0.63142  0.08392  0.36383  1.0000
  H   H919      1.0  0.86027  0.44280  0.43018  1.0000
  S   S232      1.0  0.72452  0.07117  0.33506  1.0000
  C   C583      1.0  0.83435  0.21005  0.35225  1.0000
  S   S233      1.0  0.00867  0.31340  0.26475  1.0000
  C   C584      1.0  0.86163  0.26425  0.36484  1.0000
  S   S234      1.0  0.99874  0.04304  0.40669  1.0000
  C   C585      1.0  0.00249  0.46369  0.39957  1.0000
  H   H920      1.0  0.99297  0.43902  0.40552  1.0000
  H   H921      1.0  0.87435  0.27297  0.34842  1.0000
  S   S235      1.0  0.63022  0.12467  0.46251  1.0000
  H   H922      1.0  0.60177  0.06561  0.39343  1.0000
  H   H923      1.0  0.94646  0.46353  0.39378  1.0000
  H   H924      1.0  0.66066  0.19855  0.37876  1.0000
  C   C586      1.0  0.88566  0.23188  0.37047  1.0000
  C   C587      1.0  0.59446  0.02839  0.37044  1.0000
  H   H925      1.0  0.98943  0.02062  0.35367  1.0000
  H   H926      1.0  0.57102  0.38264  0.21887  1.0000
  H   H927      1.0  0.81900  0.05431  0.23950  1.0000
  H   H928      1.0  0.91306  0.39720  0.44875  1.0000
  C   C588      1.0  0.72299  0.00878  0.23697  1.0000
  H   H929      1.0  0.69325  0.20047  0.39435  1.0000
  C   C589      1.0  0.71124  0.17332  0.36164  1.0000
  Fe  Fe117     1.0  0.62145  0.01925  0.46379  1.0000
  S   S236      1.0  0.72779  0.06681  0.23226  1.0000
  C   C590      1.0  0.68378  0.18262  0.45659  1.0000
  H   H930      1.0  0.92717  0.39469  0.22421  1.0000
  H   H931      1.0  0.81094  0.20906  0.35163  1.0000
  H   H932      1.0  0.88168  0.20777  0.37372  1.0000
  H   H933      1.0  0.84542  0.21722  0.33517  1.0000
  H   H934      1.0  0.85470  0.23808  0.40597  1.0000
  Fe  Fe118     1.0  0.69997  0.08696  0.31078  1.0000
  C   C591      1.0  0.64095  0.07658  0.34341  1.0000
  C   C592      1.0  0.71477  0.22318  0.35341  1.0000
  S   S237      1.0  0.84596  0.38084  0.44048  1.0000
  H   H935      1.0  0.96364  0.44929  0.44716  1.0000
  H   H936      1.0  0.85384  0.09335  0.26802  1.0000
  H   H937      1.0  0.72522  0.22872  0.45165  1.0000
  H   H938      1.0  0.78971  0.10991  0.25302  1.0000
  H   H939      1.0  0.82175  0.09805  0.27860  1.0000
  C   C593      1.0  0.00010  0.49817  0.37146  1.0000
  H   H940      1.0  0.94216  0.42556  0.38848  1.0000
  Fe  Fe119     1.0  0.59087  0.49836  0.22358  1.0000
  H   H941      1.0  0.69583  0.14844  0.36707  1.0000
  C   C594      1.0  0.66915  0.17471  0.34068  1.0000
  H   H942      1.0  0.87020  0.14035  0.22848  1.0000
  H   H943      1.0  0.54305  0.48312  0.36992  1.0000
  H   H944      1.0  0.70387  0.01502  0.36703  1.0000
  H   H945      1.0  0.82456  0.14426  0.24254  1.0000
  C   C595      1.0  0.99401  0.44791  0.36046  1.0000
  H   H946      1.0  0.67606  0.04509  0.37164  1.0000
  H   H947      1.0  0.85773  0.13177  0.26904  1.0000
  H   H948      1.0  0.64676  0.03450  0.39318  1.0000
  Fe  Fe120     1.0  0.00495  0.35721  0.26286  1.0000
  H   H949      1.0  0.99831  0.47669  0.41329  1.0000
  C   C596      1.0  0.80911  0.11837  0.24020  1.0000
  H   H950      1.0  0.82046  0.22872  0.55253  1.0000
  H   H951      1.0  0.64388  0.26742  0.64223  1.0000
  H   H952      1.0  0.66560  0.42413  0.67284  1.0000
  Fe  Fe121     1.0  0.69607  0.05743  0.59718  1.0000
  H   H953      1.0  0.79693  0.20350  0.68190  1.0000
  H   H954      1.0  0.73947  0.43484  0.64573  1.0000
  H   H955      1.0  0.75023  0.47041  0.69047  1.0000
  Fe  Fe122     1.0  0.77611  0.36456  0.59273  1.0000
  S   S238      1.0  0.73919  0.35005  0.56561  1.0000
  S   S239      1.0  0.82479  0.37462  0.58231  1.0000
  Fe  Fe123     1.0  0.73119  0.36184  0.62921  1.0000
  S   S240      1.0  0.69023  0.34598  0.60522  1.0000
  S   S241      1.0  0.72335  0.37230  0.66476  1.0000
  Fe  Fe124     1.0  0.70720  0.31412  0.59111  1.0000
  S   S242      1.0  0.67314  0.26369  0.58066  1.0000
  Fe  Fe125     1.0  0.72641  0.38344  0.58253  1.0000
  S   S243      1.0  0.72037  0.42008  0.56347  1.0000
  S   S244      1.0  0.74502  0.32673  0.61739  1.0000
  S   S245      1.0  0.76646  0.40120  0.60745  1.0000
  H   H956      1.0  0.74829  0.19688  0.69991  1.0000
  S   S246      1.0  0.74703  0.07917  0.58614  1.0000
  H   H957      1.0  0.75584  0.12627  0.71123  1.0000
  Fe  Fe126     1.0  0.70215  0.12211  0.60731  1.0000
  S   S247      1.0  0.75334  0.14848  0.59695  1.0000
  S   S248      1.0  0.68075  0.14948  0.62287  1.0000
  Fe  Fe127     1.0  0.73738  0.11393  0.56826  1.0000
  S   S249      1.0  0.75078  0.12977  0.53241  1.0000
  Fe  Fe128     1.0  0.75734  0.11108  0.61605  1.0000
  S   S250      1.0  0.79472  0.12286  0.64245  1.0000
  S   S251      1.0  0.68539  0.09007  0.57700  1.0000
  S   S252      1.0  0.70714  0.08690  0.62859  1.0000
  C   C597      1.0  0.81396  0.20569  0.54448  1.0000
  C   C598      1.0  0.72868  0.09659  0.51526  1.0000
  C   C599      1.0  0.72239  0.06683  0.52254  1.0000
  H   H958      1.0  0.88673  0.21144  0.54691  1.0000
  H   H959      1.0  0.64608  0.48609  0.50271  1.0000
  H   H960      1.0  0.68123  0.48371  0.50869  1.0000
  N   N59       1.0  0.71494  0.45416  0.66427  1.0000
  H   H961      1.0  0.73291  0.06450  0.53799  1.0000
  H   H962      1.0  0.60475  0.21097  0.63744  1.0000
  H   H963      1.0  0.67812  0.27950  0.65988  1.0000
  C   C600      1.0  0.62800  0.23037  0.67944  1.0000
  H   H964      1.0  0.79518  0.06243  0.70840  1.0000
  C   C601      1.0  0.78683  0.06131  0.69130  1.0000
  C   C602      1.0  0.79614  0.08931  0.67920  1.0000
  C   C603      1.0  0.78508  0.08801  0.65711  1.0000
  C   C604      1.0  0.76512  0.05874  0.64707  1.0000
  C   C605      1.0  0.73213  0.47729  0.58012  1.0000
  H   H965      1.0  0.81148  0.11190  0.68709  1.0000
  H   H966      1.0  0.75637  0.05749  0.63009  1.0000
  C   C606      1.0  0.67887  0.23245  0.58938  1.0000
  C   C607      1.0  0.70596  0.23757  0.60140  1.0000
  C   C608      1.0  0.70773  0.21181  0.61033  1.0000
  C   C609      1.0  0.68242  0.18092  0.60730  1.0000
  C   C610      1.0  0.65595  0.17585  0.59457  1.0000
  C   C611      1.0  0.65442  0.20147  0.58538  1.0000
  H   H967      1.0  0.72516  0.26135  0.60432  1.0000
  H   H968      1.0  0.72811  0.21596  0.62040  1.0000
  H   H969      1.0  0.63603  0.15215  0.59252  1.0000
  H   H970      1.0  0.63337  0.19734  0.57616  1.0000
  C   C612      1.0  0.71099  0.44466  0.57967  1.0000
  C   C613      1.0  0.68114  0.43251  0.59003  1.0000
  C   C614      1.0  0.67208  0.45302  0.59992  1.0000
  H   H971      1.0  0.69641  0.21968  0.53555  1.0000
  H   H972      1.0  0.65886  0.19783  0.67474  1.0000
  H   H973      1.0  0.92370  0.01889  0.47035  1.0000
  H   H974      1.0  0.86172  0.33119  0.52248  1.0000
  S   S253      1.0  0.81118  0.26663  0.51662  1.0000
  N   N60       1.0  0.75435  0.15886  0.68750  1.0000
  Fe  Fe129     1.0  0.82707  0.28327  0.48108  1.0000
  C   C615      1.0  0.82134  0.34443  0.56437  1.0000
  C   C616      1.0  0.84599  0.35019  0.54929  1.0000
  C   C617      1.0  0.84268  0.32659  0.53415  1.0000
  C   C618      1.0  0.81514  0.29687  0.53464  1.0000
  C   C619      1.0  0.79074  0.29093  0.54998  1.0000
  C   C620      1.0  0.79358  0.31486  0.56453  1.0000
  H   H975      1.0  0.86755  0.37299  0.54919  1.0000
  C   C621      1.0  0.71532  0.09945  0.49507  1.0000
  H   H976      1.0  0.76942  0.26798  0.55046  1.0000
  H   H977      1.0  0.77445  0.31023  0.57611  1.0000
  H   H978      1.0  0.72025  0.12241  0.48925  1.0000
  H   H979      1.0  0.83149  0.41419  0.65502  1.0000
  H   H980      1.0  0.75526  0.48689  0.57216  1.0000
  H   H981      1.0  0.66451  0.40739  0.58952  1.0000
  H   H982      1.0  0.61358  0.02289  0.54491  1.0000
  S   S254      1.0  0.60080  0.04090  0.48655  1.0000
  C   C622      1.0  0.70244  0.03989  0.50980  1.0000
  H   H983      1.0  0.79619  0.20147  0.53103  1.0000
  H   H984      1.0  0.64850  0.44353  0.60712  1.0000
  H   H985      1.0  0.71127  0.01412  0.56604  1.0000
  C   C623      1.0  0.73413  0.32601  0.68081  1.0000
  C   C624      1.0  0.71621  0.34112  0.68278  1.0000
  H   H986      1.0  0.83694  0.44433  0.49188  1.0000
  H   H987      1.0  0.70994  0.44861  0.70048  1.0000
  H   H988      1.0  0.86043  0.42540  0.48910  1.0000
  H   H989      1.0  0.75278  0.33369  0.66827  1.0000
  C   C625      1.0  0.68316  0.42667  0.65967  1.0000
  C   C626      1.0  0.83573  0.42148  0.48818  1.0000
  C   C627      1.0  0.81449  0.36701  0.49896  1.0000
  N   N61       1.0  0.81410  0.39642  0.50394  1.0000
  H   H990      1.0  0.80827  0.38835  0.53973  1.0000
  C   C628      1.0  0.78943  0.17891  0.68707  1.0000
  C   C629      1.0  0.71288  0.48330  0.66438  1.0000
  H   H991      1.0  0.78008  0.41243  0.50508  1.0000
  N   N62       1.0  0.84220  0.20568  0.53502  1.0000
  H   H992      1.0  0.83902  0.37060  0.50022  1.0000
  H   H993      1.0  0.70411  0.48695  0.64789  1.0000
  C   C630      1.0  0.62760  0.01130  0.54049  1.0000
  H   H994      1.0  0.62404  0.46224  0.54020  1.0000
  C   C631      1.0  0.85738  0.23091  0.51787  1.0000
  H   H995      1.0  0.79850  0.38644  0.71232  1.0000
  C   C632      1.0  0.67891  0.14597  0.51944  1.0000
  H   H996      1.0  0.82547  0.42884  0.53173  1.0000
  S   S255      1.0  0.65822  0.00849  0.47677  1.0000
  H   H997      1.0  0.76178  0.47699  0.64945  1.0000
  H   H998      1.0  0.72281  0.19952  0.55999  1.0000
  H   H999      1.0  0.64601  0.01752  0.55387  1.0000
  H   H1000     1.0  0.74157  0.00841  0.65076  1.0000
  H   H1001     1.0  0.80178  0.18684  0.55739  1.0000
  H   H1002     1.0  0.78748  0.43848  0.67240  1.0000
  N   N63       1.0  0.64566  0.22946  0.65932  1.0000
  H   H1003     1.0  0.71518  0.14236  0.66407  1.0000
  C   C633      1.0  0.74567  0.12649  0.69437  1.0000
  H   H1004     1.0  0.80592  0.35849  0.48148  1.0000
  H   H1005     1.0  0.74448  0.21917  0.52096  1.0000
  C   C634      1.0  0.79524  0.40603  0.70586  1.0000
  H   H1006     1.0  0.60973  0.23683  0.67486  1.0000
  C   C635      1.0  0.69233  0.33123  0.69920  1.0000
  H   H1007     1.0  0.87300  0.23443  0.56183  1.0000
  H   H1008     1.0  0.85461  0.45442  0.71086  1.0000
  H   H1009     1.0  0.64426  0.24799  0.69200  1.0000
  C   C636      1.0  0.72806  0.30092  0.69525  1.0000
  H   H1010     1.0  0.77022  0.39544  0.69996  1.0000
  C   C637      1.0  0.74151  0.15811  0.66468  1.0000
  C   C638      1.0  0.85092  0.43806  0.69658  1.0000
  H   H1011     1.0  0.67545  0.26100  0.63313  1.0000
  C   C639      1.0  0.70341  0.29029  0.71115  1.0000
  C   C640      1.0  0.81419  0.40183  0.66894  1.0000
  H   H1012     1.0  0.68720  0.23884  0.67848  1.0000
  H   H1013     1.0  0.65990  0.18314  0.53947  1.0000
  H   H1014     1.0  0.85289  0.17392  0.51686  1.0000
  H   H1015     1.0  0.68373  0.22042  0.65155  1.0000
  H   H1016     1.0  0.85428  0.19267  0.56665  1.0000
  H   H1017     1.0  0.63585  0.20406  0.62810  1.0000
  C   C641      1.0  0.82473  0.40634  0.52745  1.0000
  C   C642      1.0  0.83227  0.17481  0.52432  1.0000
  C   C643      1.0  0.68754  0.04256  0.49034  1.0000
  H   H1018     1.0  0.68802  0.16107  0.56273  1.0000
  H   H1019     1.0  0.82885  0.46235  0.66515  1.0000
  H   H1020     1.0  0.72430  0.16479  0.55227  1.0000
  H   H1021     1.0  0.68405  0.40435  0.65938  1.0000
  H   H1022     1.0  0.99667  0.03252  0.48134  1.0000
  H   H1023     1.0  0.80044  0.16951  0.67511  1.0000
  H   H1024     1.0  0.81465  0.16969  0.51053  1.0000
  H   H1025     1.0  0.75477  0.11567  0.68207  1.0000
  H   H1026     1.0  0.61579  0.20718  0.68825  1.0000
  C   C644      1.0  0.78133  0.39080  0.50122  1.0000
  C   C645      1.0  0.73749  0.45651  0.64647  1.0000
  C   C646      1.0  0.62320  0.20541  0.64333  1.0000
  H   H1027     1.0  0.65623  0.13294  0.52906  1.0000
  H   H1028     1.0  0.71434  0.15809  0.70392  1.0000
  H   H1029     1.0  0.67257  0.14664  0.50143  1.0000
  N   N64       1.0  0.81813  0.42365  0.68759  1.0000
  H   H1030     1.0  0.78990  0.39100  0.66150  1.0000
  H   H1031     1.0  0.67381  0.19722  0.51141  1.0000
  C   C647      1.0  0.81217  0.44863  0.67907  1.0000
  H   H1032     1.0  0.85611  0.41972  0.70307  1.0000
  H   H1033     1.0  0.86892  0.45176  0.68335  1.0000
  C   C648      1.0  0.86510  0.21131  0.55341  1.0000
  H   H1034     1.0  0.86487  0.25454  0.52529  1.0000
  C   C649      1.0  0.75669  0.03084  0.65885  1.0000
  H   H1035     1.0  0.67383  0.42888  0.64300  1.0000
  H   H1036     1.0  0.74683  0.18197  0.65915  1.0000
  N   N65       1.0  0.69945  0.17806  0.52860  1.0000
  C   C650      1.0  0.68164  0.19531  0.52875  1.0000
  C   C651      1.0  0.70909  0.17584  0.55193  1.0000
  C   C652      1.0  0.72815  0.19508  0.51429  1.0000
  H   H1037     1.0  0.87881  0.23172  0.51031  1.0000
  H   H1038     1.0  0.77255  0.38340  0.48362  1.0000
  H   H1039     1.0  0.72971  0.45974  0.62946  1.0000
  C   C653      1.0  0.66992  0.22127  0.66631  1.0000
  H   H1040     1.0  0.82060  0.15518  0.53676  1.0000
  H   H1041     1.0  0.74188  0.28921  0.69365  1.0000
  H   H1042     1.0  0.79992  0.18021  0.70401  1.0000
  H   H1043     1.0  0.72190  0.19771  0.49665  1.0000
  C   C654      1.0  0.69290  0.48576  0.59981  1.0000
  H   H1044     1.0  0.74172  0.18228  0.51338  1.0000
  H   H1045     1.0  0.61087  0.18150  0.65111  1.0000
  H   H1046     1.0  0.84059  0.22736  0.50382  1.0000
  C   C655      1.0  0.68556  0.30546  0.71312  1.0000
  H   H1047     1.0  0.81780  0.38227  0.67495  1.0000
  C   C656      1.0  0.66145  0.26069  0.64818  1.0000
  H   H1048     1.0  0.64030  0.02197  0.52440  1.0000
  C   C657      1.0  0.72337  0.49767  0.59055  1.0000
  H   H1049     1.0  0.64625  0.48055  0.56545  1.0000
  H   H1050     1.0  0.84893  0.40975  0.53048  1.0000
  C   C658      1.0  0.76730  0.03203  0.68103  1.0000
  H   H1051     1.0  0.65945  0.46052  0.54680  1.0000
  H   H1052     1.0  0.69099  0.13176  0.52025  1.0000
  C   C659      1.0  0.69411  0.07237  0.48293  1.0000
  C   C660      1.0  0.67008  0.49870  0.51068  1.0000
  H   H1053     1.0  0.69754  0.01693  0.51559  1.0000
  H   H1054     1.0  0.79914  0.34779  0.51094  1.0000
  H   H1055     1.0  0.76441  0.37189  0.51283  1.0000
  H   H1056     1.0  0.71938  0.11080  0.69534  1.0000
  H   H1057     1.0  0.81526  0.46571  0.69266  1.0000
  H   H1058     1.0  0.67862  0.34306  0.70088  1.0000
  H   H1059     1.0  0.75204  0.14927  0.65189  1.0000
  C   C661      1.0  0.74084  0.17189  0.70385  1.0000
  H   H1060     1.0  0.69640  0.48262  0.67777  1.0000
  C   C662      1.0  0.64853  0.47587  0.54728  1.0000
  H   H1061     1.0  0.73663  0.50447  0.66748  1.0000
  H   H1062     1.0  0.72786  0.42830  0.68720  1.0000
  C   C663      1.0  0.72625  0.45019  0.68657  1.0000
  H   H1063     1.0  0.82772  0.41517  0.47033  1.0000
  Fe  Fe130     1.0  0.55364  0.00590  0.47112  1.0000
  S   S256      1.0  0.87242  0.32517  0.46889  1.0000
  H   H1064     1.0  0.67338  0.19074  0.46922  1.0000
  H   H1065     1.0  0.68277  0.07465  0.46790  1.0000
  Fe  Fe131     1.0  0.90471  0.40441  0.90364  1.0000
  H   H1066     1.0  0.67254  0.33030  0.82527  1.0000
  S   S257      1.0  0.90565  0.01957  0.92983  1.0000
  H   H1067     1.0  0.72425  0.30566  0.85505  1.0000
  H   H1068     1.0  0.72654  0.01801  0.84260  1.0000
  Fe  Fe132     1.0  0.80654  0.31953  0.75077  1.0000
  H   H1069     1.0  0.70623  0.04442  0.86805  1.0000
  C   C664      1.0  0.85964  0.35383  0.86132  1.0000
  S   S258      1.0  0.86895  0.41584  0.91815  1.0000
  H   H1070     1.0  0.86790  0.41171  0.82118  1.0000
  C   C665      1.0  0.80240  0.47453  0.90938  1.0000
  H   H1071     1.0  0.85810  0.44587  0.87462  1.0000
  Fe  Fe133     1.0  0.77082  0.28094  0.79152  1.0000
  S   S259      1.0  0.81778  0.29234  0.77613  1.0000
  S   S260      1.0  0.76449  0.28559  0.82882  1.0000
  S   S261      1.0  0.74247  0.23591  0.77184  1.0000
  S   S262      1.0  0.76160  0.31072  0.76758  1.0000
  H   H1072     1.0  0.79805  0.42167  0.72039  1.0000
  N   N66       1.0  0.87394  0.45185  0.84012  1.0000
  H   H1073     1.0  0.86173  0.23685  0.81005  1.0000
  H   H1074     1.0  0.59838  0.45840  0.94286  1.0000
  H   H1075     1.0  0.83542  0.33757  0.89325  1.0000
  S   S263      1.0  0.89800  0.37503  0.87275  1.0000
  H   H1076     1.0  0.91445  0.47694  0.86193  1.0000
  H   H1077     1.0  0.91069  0.44163  0.84967  1.0000
  Fe  Fe134     1.0  0.76360  0.04228  0.77446  1.0000
  S   S264      1.0  0.76198  0.08322  0.79147  1.0000
  S   S265      1.0  0.84317  0.36868  0.73965  1.0000
  Fe  Fe135     1.0  0.89206  0.41779  0.95159  1.0000
  C   C666      1.0  0.80312  0.31634  0.86503  1.0000
  H   H1078     1.0  0.78277  0.30164  0.87561  1.0000
  C   C667      1.0  0.80447  0.15930  0.74957  1.0000
  C   C668      1.0  0.79424  0.12947  0.75921  1.0000
  C   C669      1.0  0.77299  0.11914  0.77741  1.0000
  C   C670      1.0  0.76137  0.13856  0.78545  1.0000
  C   C671      1.0  0.77081  0.16798  0.77532  1.0000
  H   H1079     1.0  0.83504  0.27799  0.84975  1.0000
  H   H1080     1.0  0.74486  0.13067  0.79951  1.0000
  H   H1081     1.0  0.84132  0.06854  0.94605  1.0000
  C   C672      1.0  0.70204  0.44324  0.80121  1.0000
  C   C673      1.0  0.83286  0.33658  0.87502  1.0000
  N   N67       1.0  0.71891  0.34073  0.83680  1.0000
  C   C674      1.0  0.84444  0.45652  0.76788  1.0000
  S   S266      1.0  0.65992  0.37800  0.85101  1.0000
  S   S267      1.0  0.84667  0.49078  0.77935  1.0000
  Fe  Fe136     1.0  0.66773  0.40932  0.88112  1.0000
  H   H1082     1.0  0.75467  0.34552  0.81298  1.0000
  H   H1083     1.0  0.72084  0.38278  0.82408  1.0000
  Fe  Fe137     1.0  0.95984  0.45134  0.93274  1.0000
  H   H1084     1.0  0.83364  0.24215  0.79360  1.0000
  C   C675      1.0  0.53700  0.47403  0.93916  1.0000
  C   C676      1.0  0.83135  0.47389  0.90876  1.0000
  C   C677      1.0  0.69354  0.42893  0.82265  1.0000
  S   S268      1.0  0.61293  0.47058  0.89445  1.0000
  H   H1085     1.0  0.82265  0.20406  0.80478  1.0000
  C   C678      1.0  0.85628  0.35246  0.83780  1.0000
  C   C679      1.0  0.82640  0.33350  0.82792  1.0000
  C   C680      1.0  0.80015  0.31416  0.84142  1.0000
  C   C681      1.0  0.79281  0.17868  0.75756  1.0000
  C   C682      1.0  0.87157  0.43057  0.75190  1.0000
  H   H1086     1.0  0.65256  0.38022  0.76871  1.0000
  H   H1087     1.0  0.82399  0.33335  0.80980  1.0000
  H   H1088     1.0  0.56467  0.48602  0.88500  1.0000
  C   C683      1.0  0.82667  0.21912  0.84860  1.0000
  S   S269      1.0  0.80663  0.21614  0.74502  1.0000
  C   C684      1.0  0.73278  0.33144  0.85548  1.0000
  H   H1089     1.0  0.52282  0.48729  0.90850  1.0000
  C   C685      1.0  0.84313  0.40156  0.75191  1.0000
  H   H1090     1.0  0.78054  0.45386  0.91462  1.0000
  H   H1091     1.0  0.79302  0.37792  0.75984  1.0000
  H   H1092     1.0  0.89165  0.06782  0.94120  1.0000
  C   C686      1.0  0.58191  0.46462  0.93535  1.0000
  H   H1093     1.0  0.82186  0.16751  0.73607  1.0000
  H   H1094     1.0  0.79419  0.42639  0.77403  1.0000
  S   S270      1.0  0.79952  0.03655  0.75358  1.0000
  H   H1095     1.0  0.53248  0.38800  0.86678  1.0000
  H   H1096     1.0  0.54616  0.41518  0.88992  1.0000
  C   C687      1.0  0.81111  0.01927  0.93846  1.0000
  C   C688      1.0  0.84370  0.27137  0.83437  1.0000
  H   H1097     1.0  0.71952  0.30744  0.81332  1.0000
  S   S271      1.0  0.69381  0.25708  0.72771  1.0000
  C   C689      1.0  0.55864  0.46614  0.94879  1.0000
  H   H1098     1.0  0.86918  0.27875  0.83722  1.0000
  Fe  Fe138     1.0  0.71623  0.46654  0.90703  1.0000
  H   H1099     1.0  0.53154  0.37418  0.89510  1.0000
  C   C690      1.0  0.52767  0.39096  0.88476  1.0000
  H   H1100     1.0  0.87695  0.36587  0.82715  1.0000
  C   C691      1.0  0.85252  0.43231  0.85853  1.0000
  H   H1101     1.0  0.70422  0.04953  0.82627  1.0000
  C   C692      1.0  0.79064  0.22864  0.82634  1.0000
  C   C693      1.0  0.56279  0.48006  0.90278  1.0000
  C   C694      1.0  0.68379  0.32325  0.83876  1.0000
  S   S272      1.0  0.62772  0.40001  0.90476  1.0000
  S   S273      1.0  0.68411  0.46062  0.87774  1.0000
  H   H1102     1.0  0.84283  0.28579  0.82016  1.0000
  H   H1103     1.0  0.75712  0.38897  0.83693  1.0000
  C   C695      1.0  0.68729  0.42574  0.78168  1.0000
  H   H1104     1.0  0.71844  0.34011  0.80039  1.0000
  C   C696      1.0  0.81523  0.40003  0.76015  1.0000
  H   H1105     1.0  0.81225  0.19323  0.84549  1.0000
  H   H1106     1.0  0.76140  0.18251  0.78145  1.0000
  N   N68       1.0  0.82430  0.23724  0.82946  1.0000
  H   H1107     1.0  0.81794  0.22423  0.86460  1.0000
  H   H1108     1.0  0.77521  0.20301  0.82278  1.0000
  C   C697      1.0  0.83612  0.22978  0.80860  1.0000
  C   C698      1.0  0.66412  0.39387  0.78370  1.0000
  S   S274      1.0  0.78260  0.27813  0.72714  1.0000
  S   S275      1.0  0.72200  0.01103  0.75225  1.0000
  Fe  Fe139     1.0  0.74624  0.48482  0.75145  1.0000
  C   C699      1.0  0.86572  0.43311  0.81906  1.0000
  H   H1109     1.0  0.74884  0.49593  0.85599  1.0000
  S   S276      1.0  0.92947  0.46881  0.94912  1.0000
  Fe  Fe140     1.0  0.64636  0.45214  0.90348  1.0000
  S   S277      1.0  0.94281  0.45466  0.89811  1.0000
  H   H1110     1.0  0.85176  0.22497  0.85144  1.0000
  C   C700      1.0  0.68253  0.02259  0.86713  1.0000
  C   C701      1.0  0.86911  0.04630  0.93884  1.0000
  H   H1111     1.0  0.75924  0.34385  0.85440  1.0000
  Fe  Fe141     1.0  0.66401  0.41175  0.93220  1.0000
  H   H1112     1.0  0.80361  0.11488  0.75304  1.0000
  S   S278      1.0  0.92352  0.40023  0.93740  1.0000
  S   S279      1.0  0.78253  0.47629  0.73448  1.0000
  Fe  Fe142     1.0  0.73829  0.26732  0.74607  1.0000
  H   H1113     1.0  0.89321  0.43199  0.74554  1.0000
  C   C702      1.0  0.90727  0.46217  0.84634  1.0000
  S   S280      1.0  0.70222  0.41559  0.90866  1.0000
  H   H1114     1.0  0.72339  0.38138  0.85421  1.0000
  H   H1115     1.0  0.70521  0.44244  0.83760  1.0000
  C   C703      1.0  0.68017  0.02796  0.82663  1.0000
  H   H1116     1.0  0.72629  0.33694  0.87228  1.0000
  Fe  Fe143     1.0  0.78885  0.24965  0.75447  1.0000
  C   C704      1.0  0.53900  0.48072  0.91604  1.0000
  H   H1117     1.0  0.67394  0.29733  0.83748  1.0000
  H   H1118     1.0  0.71945  0.46791  0.79987  1.0000
  S   S281      1.0  0.69707  0.44302  0.75458  1.0000
  H   H1119     1.0  0.67588  0.32807  0.85525  1.0000
  Fe  Fe144     1.0  0.90794  0.46591  0.91494  1.0000
  C   C705      1.0  0.67028  0.39704  0.82459  1.0000
  C   C706      1.0  0.73071  0.37499  0.83806  1.0000
  H   H1120     1.0  0.66664  0.29743  0.72553  1.0000
  C   C707      1.0  0.72829  0.33318  0.81489  1.0000
  H   H1121     1.0  0.66214  0.03553  0.82849  1.0000
  S   S282      1.0  0.68025  0.46364  0.93267  1.0000
  H   H1122     1.0  0.63799  0.35482  0.80642  1.0000
  H   H1123     1.0  0.89456  0.48002  0.76027  1.0000
  C   C708      1.0  0.58426  0.47192  0.91230  1.0000
  H   H1124     1.0  0.78102  0.23442  0.84161  1.0000
  C   C709      1.0  0.81580  0.42758  0.76787  1.0000
  H   H1125     1.0  0.78790  0.24173  0.81197  1.0000
  S   S283      1.0  0.77606  0.02157  0.94175  1.0000
  H   H1126     1.0  0.83158  0.45266  0.91344  1.0000
  H   H1127     1.0  0.55739  0.46114  0.96669  1.0000
  H   H1128     1.0  0.67653  0.01636  0.80979  1.0000
  C   C710      1.0  0.84057  0.04673  0.94158  1.0000
  C   C711      1.0  0.87231  0.45782  0.76008  1.0000
  H   H1129     1.0  0.84091  0.42536  0.81359  1.0000
  C   C712      1.0  0.65592  0.37949  0.80505  1.0000
  H   H1130     1.0  0.74901  0.17147  0.72138  1.0000
  H   H1131     1.0  0.88180  0.44709  0.80496  1.0000
  H   H1132     1.0  0.85499  0.41124  0.86188  1.0000
  C   C713      1.0  0.87034  0.47982  0.83655  1.0000
  H   H1133     1.0  0.82716  0.42403  0.85446  1.0000
  H   H1134     1.0  0.84551  0.47297  0.83173  1.0000
  S   S284      1.0  0.65036  0.38134  0.96339  1.0000
  H   H1135     1.0  0.92413  0.47659  0.83272  1.0000
  H   H1136     1.0  0.87644  0.49457  0.85213  1.0000
  C   C714      1.0  0.86869  0.01841  0.93298  1.0000
  H   H1137     1.0  0.68112  0.00707  0.88135  1.0000
  H   H1138     1.0  0.84898  0.02799  0.86269  1.0000
  H   H1139     1.0  0.66387  0.02903  0.87043  1.0000
  H   H1140     1.0  0.81915  0.01030  0.88441  1.0000
  C   C715      1.0  0.80214  0.50234  0.90387  1.0000
  C   C716      1.0  0.85988  0.50089  0.90222  1.0000
  H   H1141     1.0  0.00998  0.44218  0.90075  1.0000
  S   S285      1.0  0.01017  0.46768  0.94569  1.0000
  H   H1142     1.0  0.88612  0.49506  0.82270  1.0000
  S   S286      1.0  0.89708  0.50215  0.90012  1.0000
  C   C717      1.0  0.83546  0.00648  0.87324  1.0000
  N   N69       1.0  0.67758  0.00645  0.84511  1.0000
  Fe  Fe145     1.0  0.92430  0.92455  0.09411  1.0000
  S   S287      1.0  0.91199  0.87391  0.09118  1.0000
  S   S288      1.0  0.94737  0.95668  0.06448  1.0000
  Fe  Fe146     1.0  0.90397  0.91800  0.14307  1.0000
  S   S289      1.0  0.89094  0.86735  0.14370  1.0000
  S   S290      1.0  0.89590  0.93357  0.17678  1.0000
  Fe  Fe147     1.0  0.93640  0.88256  0.12483  1.0000
  S   S291      1.0  0.97192  0.87024  0.13951  1.0000
  Fe  Fe148     1.0  0.86784  0.86471  0.11045  1.0000
  S   S292      1.0  0.81796  0.82409  0.10501  1.0000
  S   S293      1.0  0.95115  0.93372  0.12678  1.0000
  S   S294      1.0  0.87846  0.91470  0.11067  1.0000
  H   H1143     1.0  0.86649  0.94076  0.98253  1.0000
  H   H1144     1.0  0.52051  0.93180  0.01908  1.0000
  Fe  Fe149     1.0  0.63332  0.88868  0.14040  1.0000
  S   S295      1.0  0.67080  0.94002  0.14066  1.0000
  S   S296      1.0  0.58405  0.87667  0.15256  1.0000
  Fe  Fe150     1.0  0.68361  0.86821  0.13229  1.0000
  S   S297      1.0  0.72401  0.91778  0.13201  1.0000
  S   S298      1.0  0.69100  0.82630  0.12896  1.0000
  Fe  Fe151     1.0  0.69949  0.92508  0.16160  1.0000
  S   S299      1.0  0.72241  0.94294  0.19554  1.0000
  Fe  Fe152     1.0  0.69107  0.92721  0.11090  1.0000
  S   S300      1.0  0.71250  0.95789  0.08022  1.0000
  S   S301      1.0  0.66097  0.87457  0.16336  1.0000
  S   S302      1.0  0.65169  0.87658  0.10919  1.0000
  H   H1145     1.0  0.71398  0.89991  0.07469  1.0000
  H   H1146     1.0  0.80698  0.73120  0.12353  1.0000
  C   C718      1.0  0.72333  0.88330  0.07555  1.0000
  H   H1147     1.0  0.66762  0.82943  0.07967  1.0000
  C   C719      1.0  0.86094  0.78464  0.13422  1.0000
  H   H1148     1.0  0.71082  0.81764  0.04720  1.0000
  C   C720      1.0  0.64072  0.92525  0.20089  1.0000
  C   C721      1.0  0.83742  0.74532  0.16357  1.0000
  H   H1149     1.0  0.71049  0.94819  0.99768  1.0000
  N   N70       1.0  0.77993  0.57625  0.20766  1.0000
  H   H1150     1.0  0.57897  0.88972  0.21142  1.0000
  H   H1151     1.0  0.56180  0.96660  0.97035  1.0000
  C   C722      1.0  0.88032  0.97341  0.02119  1.0000
  H   H1152     1.0  0.78794  0.87780  0.20482  1.0000
  H   H1153     1.0  0.79724  0.83389  0.16755  1.0000
  S   S303      1.0  0.65310  0.88910  0.98775  1.0000
  C   C723      1.0  0.74742  0.88280  0.17785  1.0000
  C   C724      1.0  0.69419  0.94086  0.05426  1.0000
  C   C725      1.0  0.71060  0.95360  0.03397  1.0000
  C   C726      1.0  0.69750  0.93854  0.01327  1.0000
  C   C727      1.0  0.66809  0.91050  0.01290  1.0000
  C   C728      1.0  0.65133  0.89827  0.03310  1.0000
  C   C729      1.0  0.66417  0.91366  0.05368  1.0000
  H   H1154     1.0  0.99774  0.95320  0.08944  1.0000
  H   H1155     1.0  0.74050  0.88515  0.03179  1.0000
  H   H1156     1.0  0.62831  0.87691  0.03279  1.0000
  H   H1157     1.0  0.65064  0.90459  0.06902  1.0000
  C   C730      1.0  0.65508  0.51131  0.19176  1.0000
  H   H1158     1.0  0.86552  0.76865  0.12350  1.0000
  H   H1159     1.0  0.54202  0.90154  0.15760  1.0000
  H   H1160     1.0  0.84162  0.72847  0.15359  1.0000
  H   H1161     1.0  0.90681  0.97290  0.98101  1.0000
  H   H1162     1.0  0.85790  0.80085  0.12262  1.0000
  H   H1163     1.0  0.94627  0.88931  0.17453  1.0000
  H   H1164     1.0  0.62674  0.96690  0.18242  1.0000
  C   C731      1.0  0.88143  0.96686  0.98085  1.0000
  H   H1165     1.0  0.00256  0.90926  0.18662  1.0000
  H   H1166     1.0  0.75362  0.90716  0.18286  1.0000
  H   H1167     1.0  0.90561  0.97943  0.02308  1.0000
  C   C732      1.0  0.77002  0.55904  0.18593  1.0000
  H   H1168     1.0  0.70597  0.88931  0.03400  1.0000
  C   C733      1.0  0.81513  0.84950  0.17948  1.0000
  H   H1169     1.0  0.99719  0.96408  0.20496  1.0000
  H   H1170     1.0  0.93238  0.86500  0.19934  1.0000
  H   H1171     1.0  0.88274  0.79927  0.14451  1.0000
  N   N71       1.0  0.70808  0.85801  0.05846  1.0000
  C   C734      1.0  0.86297  0.89929  0.18730  1.0000
  C   C735      1.0  0.93993  0.88898  0.19260  1.0000
  C   C736      1.0  0.72322  0.97718  0.20533  1.0000
  H   H1172     1.0  0.76838  0.88446  0.16881  1.0000
  H   H1173     1.0  0.72409  0.99596  0.17222  1.0000
  C   C737      1.0  0.83916  0.87915  0.17228  1.0000
  C   C738      1.0  0.84110  0.97585  0.99726  1.0000
  H   H1174     1.0  0.66271  0.85567  0.06109  1.0000
  H   H1175     1.0  0.82821  0.58588  0.20491  1.0000
  H   H1176     1.0  0.83965  0.88614  0.15486  1.0000
  C   C739      1.0  0.99406  0.90777  0.20435  1.0000
  H   H1177     1.0  0.75016  0.82992  0.18062  1.0000
  C   C740      1.0  0.53361  0.52369  0.16513  1.0000
  C   C741      1.0  0.55462  0.87560  0.13434  1.0000
  C   C742      1.0  0.51821  0.85189  0.10265  1.0000
  H   H1178     1.0  0.70229  0.85399  0.02224  1.0000
  C   C743      1.0  0.67331  0.84015  0.06245  1.0000
  C   C744      1.0  0.73027  0.82971  0.19007  1.0000
  H   H1179     1.0  0.56021  0.84795  0.10831  1.0000
  H   H1180     1.0  0.66093  0.82081  0.04989  1.0000
  C   C745      1.0  0.78413  0.82679  0.11291  1.0000
  C   C746      1.0  0.75480  0.79880  0.11419  1.0000
  C   C747      1.0  0.72696  0.79932  0.11969  1.0000
  C   C748      1.0  0.72774  0.82789  0.12361  1.0000
  C   C749      1.0  0.75705  0.85618  0.12239  1.0000
  C   C750      1.0  0.78529  0.85560  0.11724  1.0000
  H   H1181     1.0  0.75351  0.77647  0.11079  1.0000
  H   H1182     1.0  0.70450  0.77737  0.12052  1.0000
  H   H1183     1.0  0.75803  0.87846  0.12525  1.0000
  H   H1184     1.0  0.80776  0.87741  0.11620  1.0000
  C   C751      1.0  0.92857  0.93702  0.03937  1.0000
  C   C752      1.0  0.89876  0.90951  0.04006  1.0000
  C   C753      1.0  0.88384  0.89393  0.01993  1.0000
  C   C754      1.0  0.89857  0.90581  0.99902  1.0000
  C   C755      1.0  0.92845  0.93327  0.99837  1.0000
  C   C756      1.0  0.94334  0.94897  0.01849  1.0000
  H   H1185     1.0  0.88702  0.90029  0.05609  1.0000
  H   H1186     1.0  0.86078  0.87264  0.02057  1.0000
  H   H1187     1.0  0.55673  0.52398  0.16531  1.0000
  H   H1188     1.0  0.96647  0.97014  0.01788  1.0000
  C   C757      1.0  0.72108  0.83647  0.06031  1.0000
  C   C758      1.0  0.71455  0.87216  0.03562  1.0000
  N   N72       1.0  0.83256  0.76682  0.14872  1.0000
  C   C759      1.0  0.82761  0.78907  0.16269  1.0000
  C   C760      1.0  0.80418  0.74823  0.13439  1.0000
  H   H1189     1.0  0.84838  0.80354  0.17390  1.0000
  H   H1190     1.0  0.80627  0.77652  0.17377  1.0000
  H   H1191     1.0  0.82395  0.80565  0.15193  1.0000
  H   H1192     1.0  0.76821  0.61148  0.19764  1.0000
  H   H1193     1.0  0.79984  0.76378  0.12298  1.0000
  H   H1194     1.0  0.78232  0.73472  0.14483  1.0000
  C   C761      1.0  0.60721  0.94728  0.19216  1.0000
  H   H1195     1.0  0.81625  0.73117  0.17454  1.0000
  N   N73       1.0  0.61996  0.93635  0.21058  1.0000
  H   H1196     1.0  0.72469  0.81329  0.20459  1.0000
  H   H1197     1.0  0.53907  0.54857  0.16384  1.0000
  H   H1198     1.0  0.83627  0.98351  0.98068  1.0000
  H   H1199     1.0  0.97824  0.85906  0.09169  1.0000
  H   H1200     1.0  0.73367  0.97488  0.03428  1.0000
  H   H1201     1.0  0.87486  0.98494  0.03535  1.0000
  H   H1202     1.0  0.62714  0.90452  0.18965  1.0000
  H   H1203     1.0  0.83498  0.98782  0.01074  1.0000
  H   H1204     1.0  0.71878  0.87347  0.09296  1.0000
  H   H1205     1.0  0.71558  0.82463  0.07710  1.0000
  H   H1206     1.0  0.98723  0.88386  0.21071  1.0000
  H   H1207     1.0  0.95686  0.95018  0.19604  1.0000
  H   H1208     1.0  0.74959  0.89740  0.07316  1.0000
  H   H1209     1.0  0.78946  0.56929  0.17315  1.0000
  H   H1210     1.0  0.74914  0.55957  0.17854  1.0000
  N   N74       1.0  0.96702  0.91368  0.20549  1.0000
  H   H1211     1.0  0.86541  0.94739  0.02344  1.0000
  C   C762      1.0  0.76598  0.87409  0.21347  1.0000
  H   H1212     1.0  0.94038  0.94213  0.98243  1.0000
  C   C763      1.0  0.53582  0.88812  0.14205  1.0000
  H   H1213     1.0  0.98422  0.94628  0.17767  1.0000
  H   H1214     1.0  0.59141  0.95584  0.19882  1.0000
  C   C764      1.0  0.99948  0.86306  0.10053  1.0000
  H   H1215     1.0  0.85838  0.75867  0.17489  1.0000
  C   C765      1.0  0.54616  0.85809  0.11426  1.0000
  H   H1216     1.0  0.91894  0.89237  0.19331  1.0000
  H   H1217     1.0  0.74747  0.84933  0.05835  1.0000
  S   S304      1.0  0.78428  0.80261  0.21035  1.0000
  H   H1218     1.0  0.66013  0.94393  0.19057  1.0000
  H   H1219     1.0  0.76296  0.53377  0.18805  1.0000
  H   H1220     1.0  0.68990  0.85085  0.19792  1.0000
  H   H1221     1.0  0.71121  0.61454  0.21326  1.0000
  C   C766      1.0  0.81489  0.83972  0.20174  1.0000
  C   C767      1.0  0.86223  0.89002  0.20979  1.0000
  H   H1222     1.0  0.52086  0.51118  0.14943  1.0000
  H   H1223     1.0  0.55564  0.52582  0.20712  1.0000
  N   N75       1.0  0.87468  0.98351  0.99894  1.0000
  H   H1224     1.0  0.70003  0.51360  0.19737  1.0000
  C   C768      1.0  0.78878  0.60951  0.20403  1.0000
  C   C769      1.0  0.71103  0.86044  0.20927  1.0000
  H   H1225     1.0  0.80846  0.62133  0.19156  1.0000
  H   H1226     1.0  0.59311  0.92800  0.17991  1.0000
  N   N76       1.0  0.73869  0.86175  0.19768  1.0000
  H   H1227     1.0  0.82443  0.95000  0.99876  1.0000
  H   H1228     1.0  0.70933  0.81953  0.17848  1.0000
  S   S305      1.0  0.87871  0.88626  0.97407  1.0000
  H   H1229     1.0  0.72744  0.87398  0.16554  1.0000
  C   C770      1.0  0.97671  0.94494  0.19562  1.0000
  H   H1230     1.0  0.71625  0.88435  0.21476  1.0000
  C   C771      1.0  0.53243  0.52527  0.20596  1.0000
  C   C772      1.0  0.00235  0.86914  0.12380  1.0000
  H   H1231     1.0  0.65456  0.52037  0.20832  1.0000
  C   C773      1.0  0.72383  0.99950  0.19028  1.0000
  H   H1232     1.0  0.00140  0.92120  0.10073  1.0000
  C   C774      1.0  0.68112  0.50800  0.18542  1.0000
  C   C775      1.0  0.83838  0.86002  0.21695  1.0000
  H   H1233     1.0  0.65209  0.91826  0.21432  1.0000
  H   H1234     1.0  0.53771  0.55015  0.20594  1.0000
  H   H1235     1.0  0.65879  0.98298  0.21737  1.0000
  C   C776      1.0  0.80761  0.57488  0.21676  1.0000
  H   H1236     1.0  0.73203  0.56221  0.21759  1.0000
  N   N77       1.0  0.51454  0.50811  0.18553  1.0000
  C   C777      1.0  0.01412  0.94351  0.09092  1.0000
  C   C778      1.0  0.69558  0.00461  0.38412  1.0000
  Fe  Fe153     1.0  0.55643  0.60187  0.43384  1.0000
  H   H1237     1.0  0.55887  0.73456  0.33375  1.0000
  C   C779      1.0  0.72277  0.98186  0.22866  1.0000
  H   H1238     1.0  0.54940  0.76834  0.37405  1.0000
  C   C780      1.0  0.63871  0.96280  0.22628  1.0000
  H   H1239     1.0  0.93812  0.91913  0.23070  1.0000
  C   C781      1.0  0.61664  0.57248  0.33267  1.0000
  H   H1240     1.0  0.53779  0.51049  0.35273  1.0000
  S   S306      1.0  0.68229  0.97919  0.32670  1.0000
  H   H1241     1.0  0.52418  0.54797  0.37065  1.0000
  C   C782      1.0  0.68363  0.64912  0.32798  1.0000
  H   H1242     1.0  0.52143  0.54911  0.40081  1.0000
  H   H1243     1.0  0.73124  0.63916  0.31239  1.0000
  H   H1244     1.0  0.88066  0.90550  0.22144  1.0000
  H   H1245     1.0  0.76138  0.85753  0.22776  1.0000
  C   C783      1.0  0.59727  0.89880  0.31535  1.0000
  Fe  Fe154     1.0  0.59462  0.67075  0.41702  1.0000
  S   S307      1.0  0.59573  0.71661  0.40929  1.0000
  C   C784      1.0  0.94056  0.99014  0.41375  1.0000
  C   C785      1.0  0.56949  0.55625  0.30963  1.0000
  S   S308      1.0  0.64022  0.66995  0.41527  1.0000
  H   H1246     1.0  0.64917  0.95562  0.24025  1.0000
  Fe  Fe155     1.0  0.80035  0.75359  0.28136  1.0000
  S   S309      1.0  0.82870  0.73058  0.27121  1.0000
  S   S310      1.0  0.77540  0.74535  0.31474  1.0000
  Fe  Fe156     1.0  0.80149  0.77916  0.23477  1.0000
  Fe  Fe157     1.0  0.63104  0.51342  0.26566  1.0000
  Fe  Fe158     1.0  0.79700  0.71488  0.24066  1.0000
  C   C786      1.0  0.98721  0.89147  0.27761  1.0000
  Fe  Fe159     1.0  0.85891  0.77618  0.25228  1.0000
  S   S311      1.0  0.91180  0.79864  0.24511  1.0000
  S   S312      1.0  0.76656  0.73455  0.25213  1.0000
  S   S313      1.0  0.83298  0.80055  0.26504  1.0000
  H   H1247     1.0  0.65847  0.64384  0.32783  1.0000
  H   H1248     1.0  0.71033  0.70216  0.30311  1.0000
  H   H1249     1.0  0.57093  0.60057  0.35470  1.0000
  Fe  Fe160     1.0  0.82922  0.85813  0.41381  1.0000
  S   S314      1.0  0.81595  0.89603  0.41391  1.0000
  S   S315      1.0  0.85667  0.85284  0.38523  1.0000
  Fe  Fe161     1.0  0.83805  0.90681  0.44852  1.0000
  S   S316      1.0  0.56930  0.99810  0.38885  1.0000
  Fe  Fe162     1.0  0.77070  0.85919  0.43088  1.0000
  S   S317      1.0  0.72050  0.85026  0.42589  1.0000
  S   S318      1.0  0.85369  0.87077  0.44757  1.0000
  S   S319      1.0  0.78225  0.82060  0.42754  1.0000
  C   C787      1.0  0.79807  0.77527  0.33419  1.0000
  C   C788      1.0  0.78323  0.77919  0.35323  1.0000
  C   C789      1.0  0.80102  0.80331  0.36879  1.0000
  C   C790      1.0  0.83379  0.82307  0.36562  1.0000
  C   C791      1.0  0.84864  0.81892  0.34665  1.0000
  C   C792      1.0  0.83076  0.79516  0.33084  1.0000
  H   H1250     1.0  0.75787  0.76405  0.35568  1.0000
  H   H1251     1.0  0.78930  0.80682  0.38302  1.0000
  H   H1252     1.0  0.87399  0.83417  0.34413  1.0000
  H   H1253     1.0  0.84236  0.79208  0.31622  1.0000
  C   C793      1.0  0.63133  0.75294  0.41445  1.0000
  C   C794      1.0  0.62971  0.78070  0.41466  1.0000
  C   C795      1.0  0.65719  0.81007  0.41824  1.0000
  C   C796      1.0  0.68689  0.81232  0.42149  1.0000
  C   C797      1.0  0.68875  0.78463  0.42137  1.0000
  C   C798      1.0  0.66101  0.75501  0.41799  1.0000
  H   H1254     1.0  0.60709  0.77959  0.41209  1.0000
  H   H1255     1.0  0.65547  0.83128  0.41831  1.0000
  H   H1256     1.0  0.71153  0.78607  0.42368  1.0000
  H   H1257     1.0  0.66283  0.73401  0.41769  1.0000
  H   H1258     1.0  0.67055  0.61948  0.46395  1.0000
  C   C799      1.0  0.67719  0.62386  0.29167  1.0000
  H   H1259     1.0  0.60206  0.90139  0.23700  1.0000
  H   H1260     1.0  0.77144  0.89729  0.22067  1.0000
  C   C800      1.0  0.91257  0.97038  0.42593  1.0000
  N   N78       1.0  0.69658  0.65309  0.30483  1.0000
  H   H1261     1.0  0.52463  0.93635  0.41999  1.0000
  C   C801      1.0  0.53143  0.69223  0.36736  1.0000
  H   H1262     1.0  0.89568  0.94728  0.41936  1.0000
  H   H1263     1.0  0.65266  0.96642  0.41476  1.0000
  H   H1264     1.0  0.75237  0.75501  0.41152  1.0000
  H   H1265     1.0  0.55940  0.56225  0.38788  1.0000
  C   C802      1.0  0.69571  0.67968  0.29370  1.0000
  C   C803      1.0  0.74640  0.63434  0.23972  1.0000
  C   C804      1.0  0.75494  0.62941  0.26130  1.0000
  Fe  Fe163     1.0  0.62568  0.64646  0.44905  1.0000
  S   S320      1.0  0.60074  0.59783  0.43411  1.0000
  H   H1266     1.0  0.72183  0.96441  0.24036  1.0000
  H   H1267     1.0  0.77742  0.64685  0.26862  1.0000
  H   H1268     1.0  0.51882  0.51393  0.22170  1.0000
  C   C805      1.0  0.64567  0.95079  0.31433  1.0000
  C   C806      1.0  0.62606  0.92192  0.32535  1.0000
  H   H1269     1.0  0.69307  0.98072  0.38371  1.0000
  C   C807      1.0  0.94036  0.83399  0.25829  1.0000
  S   S321      1.0  0.55513  0.87496  0.27892  1.0000
  C   C808      1.0  0.63605  0.95640  0.29342  1.0000
  H   H1270     1.0  0.63344  0.91716  0.34142  1.0000
  C   C809      1.0  0.57838  0.58805  0.34349  1.0000
  H   H1271     1.0  0.90813  0.83611  0.28239  1.0000
  H   H1272     1.0  0.65102  0.97809  0.28453  1.0000
  H   H1273     1.0  0.74585  0.53643  0.22720  1.0000
  H   H1274     1.0  0.74181  0.59750  0.28968  1.0000
  N   N79       1.0  0.52881  0.51210  0.38827  1.0000
  H   H1275     1.0  0.99563  0.51172  0.38474  1.0000
  H   H1276     1.0  0.74501  0.68073  0.43408  1.0000
  H   H1277     1.0  0.68635  0.62617  0.27409  1.0000
  H   H1278     1.0  0.62385  0.97177  0.23405  1.0000
  C   C810      1.0  0.59850  0.55737  0.31345  1.0000
  C   C811      1.0  0.53436  0.72875  0.33868  1.0000
  H   H1279     1.0  0.57687  0.91737  0.23032  1.0000
  H   H1280     1.0  0.63799  0.95853  0.37291  1.0000
  H   H1281     1.0  0.67568  0.56566  0.23431  1.0000
  H   H1282     1.0  0.71734  0.71676  0.41000  1.0000
  H   H1283     1.0  0.57223  0.52444  0.37042  1.0000
  H   H1284     1.0  0.67098  0.67552  0.29267  1.0000
  H   H1285     1.0  0.98841  0.98933  0.36989  1.0000
  C   C812      1.0  0.53364  0.54427  0.38679  1.0000
  H   H1286     1.0  0.99624  0.95383  0.32946  1.0000
  H   H1287     1.0  0.83806  0.85271  0.23425  1.0000
  H   H1288     1.0  0.61640  0.97879  0.37887  1.0000
  C   C813      1.0  0.98959  0.99798  0.35230  1.0000
  C   C814      1.0  0.93232  0.84764  0.27605  1.0000
  C   C815      1.0  0.97891  0.97514  0.46598  1.0000
  H   H1289     1.0  0.97756  0.92965  0.24002  1.0000
  H   H1290     1.0  0.56699  0.52587  0.41216  1.0000
  H   H1291     1.0  0.63850  0.57220  0.33580  1.0000
  C   C816      1.0  0.55117  0.74680  0.37693  1.0000
  H   H1292     1.0  0.60024  0.93818  0.26745  1.0000
  C   C817      1.0  0.71771  0.61118  0.23011  1.0000
  C   C818      1.0  0.70597  0.57838  0.26361  1.0000
  H   H1293     1.0  0.70422  0.84517  0.22456  1.0000
  N   N80       1.0  0.52806  0.72013  0.36286  1.0000
  H   H1294     1.0  0.53752  0.57179  0.32143  1.0000
  H   H1295     1.0  0.74450  0.67997  0.31746  1.0000
  C   C819      1.0  0.54617  0.50722  0.36954  1.0000
  H   H1296     1.0  0.65183  0.61787  0.29062  1.0000
  H   H1297     1.0  0.94953  0.88622  0.29984  1.0000
  H   H1298     1.0  0.68415  0.62943  0.33700  1.0000
  H   H1299     1.0  0.75980  0.57410  0.24053  1.0000
  C   C820      1.0  0.74274  0.72960  0.41544  1.0000
  C   C821      1.0  0.60745  0.93343  0.28351  1.0000
  H   H1300     1.0  0.58281  0.87632  0.32360  1.0000
  S   S322      1.0  0.61076  0.53934  0.24740  1.0000
  H   H1301     1.0  0.97835  0.83838  0.23688  1.0000
  H   H1302     1.0  0.79092  0.76771  0.44304  1.0000
  C   C822      1.0  0.55964  0.57202  0.32454  1.0000
  H   H1303     1.0  0.53173  0.74959  0.33470  1.0000
  H   H1304     1.0  0.96735  0.98065  0.34345  1.0000
  S   S323      1.0  0.58092  0.64902  0.45155  1.0000
  C   C823      1.0  0.60649  0.58754  0.34790  1.0000
  C   C824      1.0  0.90638  0.98053  0.44645  1.0000
  H   H1305     1.0  0.69757  0.67087  0.33829  1.0000
  C   C825      1.0  0.75329  0.56158  0.22397  1.0000
  Fe  Fe164     1.0  0.56730  0.50984  0.26825  1.0000
  H   H1306     1.0  0.74154  0.66626  0.28909  1.0000
  C   C826      1.0  0.58814  0.90438  0.29416  1.0000
  C   C827      1.0  0.54117  0.50833  0.41021  1.0000
  S   S324      1.0  0.97484  0.51274  0.43364  1.0000
  H   H1307     1.0  0.60706  0.54650  0.30167  1.0000
  S   S325      1.0  0.62968  0.60518  0.37218  1.0000
  C   C828      1.0  0.73486  0.60143  0.27314  1.0000
  H   H1308     1.0  0.52707  0.68528  0.38553  1.0000
  C   C829      1.0  0.99516  0.87795  0.25975  1.0000
  C   C830      1.0  0.69743  0.58348  0.24209  1.0000
  Fe  Fe165     1.0  0.61033  0.62181  0.40035  1.0000
  C   C831      1.0  0.72987  0.65981  0.30598  1.0000
  H   H1309     1.0  0.94764  0.88902  0.23667  1.0000
  N   N81       1.0  0.74596  0.72464  0.43976  1.0000
  H   H1310     1.0  0.97514  0.97888  0.44794  1.0000
  H   H1311     1.0  0.75599  0.72131  0.40469  1.0000
  S   S326      1.0  0.57433  0.98177  0.45098  1.0000
  C   C832      1.0  0.97192  0.84906  0.25040  1.0000
  H   H1312     1.0  0.64522  0.99227  0.35660  1.0000
  H   H1313     1.0  0.54726  0.74096  0.39529  1.0000
  S   S327      1.0  0.54521  0.53443  0.28670  1.0000
  S   S328      1.0  0.68151  0.54321  0.27860  1.0000
  H   H1314     1.0  0.70677  0.67690  0.43991  1.0000
  C   C833      1.0  0.95581  0.87607  0.28588  1.0000
  S   S329      1.0  0.56515  0.62396  0.39918  1.0000
  S   S330      1.0  0.51447  0.55696  0.44811  1.0000
  H   H1315     1.0  0.94494  0.98194  0.39789  1.0000
  H   H1316     1.0  0.57614  0.75283  0.37317  1.0000
  H   H1317     1.0  0.70540  0.68343  0.27619  1.0000
  H   H1318     1.0  0.67743  0.60326  0.29948  1.0000
  S   S331      1.0  0.77276  0.66727  0.22337  1.0000
  C   C834      1.0  0.95724  0.91293  0.22927  1.0000
  C   C835      1.0  0.65579  0.99047  0.41329  1.0000
  H   H1319     1.0  0.59222  0.99678  0.34417  1.0000
  H   H1320     1.0  0.55599  0.69711  0.36345  1.0000
  H   H1321     1.0  0.79677  0.62331  0.22005  1.0000
  H   H1322     1.0  0.80172  0.55006  0.21965  1.0000
  S   S332      1.0  0.82944  0.75812  0.22073  1.0000
  H   H1323     1.0  0.52430  0.92211  0.38032  1.0000
  C   C836      1.0  0.64009  0.98219  0.37399  1.0000
  H   H1324     1.0  0.70270  0.72414  0.44862  1.0000
  H   H1325     1.0  0.63290  0.98893  0.41831  1.0000
  S   S333      1.0  0.87164  0.95590  0.46237  1.0000
  H   H1326     1.0  0.99770  0.99744  0.30732  1.0000
  H   H1327     1.0  0.79404  0.73356  0.43651  1.0000
  H   H1328     1.0  0.81559  0.58759  0.23322  1.0000
  C   C837      1.0  0.73262  0.69059  0.44417  1.0000
  C   C838      1.0  0.78000  0.74194  0.44622  1.0000
  H   H1329     1.0  0.73825  0.76209  0.45102  1.0000
  H   H1330     1.0  0.51718  0.70919  0.32759  1.0000
  Fe  Fe166     1.0  0.80528  0.83696  0.46128  1.0000
  C   C839      1.0  0.72837  0.73632  0.45334  1.0000
  S   S334      1.0  0.79146  0.87384  0.46562  1.0000
  H   H1331     1.0  0.73487  0.68608  0.46236  1.0000
  C   C840      1.0  0.59331  0.91010  0.22286  1.0000
  H   H1332     1.0  0.78321  0.73920  0.46458  1.0000
  H   H1333     1.0  0.52855  0.51199  0.42467  1.0000
  N   N82       1.0  0.66520  0.00304  0.39010  1.0000
  H   H1334     1.0  0.51439  0.67157  0.35707  1.0000
  H   H1335     1.0  0.97451  0.95063  0.46746  1.0000
  H   H1336     1.0  0.72356  0.72202  0.69257  1.0000
  H   H1337     1.0  0.71199  0.50760  0.54393  1.0000
  H   H1338     1.0  0.68621  0.67777  0.52239  1.0000
  H   H1339     1.0  0.66030  0.94346  0.65201  1.0000
  H   H1340     1.0  0.82520  0.75861  0.58359  1.0000
  C   C841      1.0  0.77266  0.75481  0.62334  1.0000
  N   N83       1.0  0.79849  0.92873  0.69769  1.0000
  Fe  Fe167     1.0  0.76664  0.86336  0.59093  1.0000
  S   S335      1.0  0.72995  0.84802  0.56379  1.0000
  S   S336      1.0  0.81565  0.87666  0.57947  1.0000
  Fe  Fe168     1.0  0.71901  0.85357  0.62721  1.0000
  S   S337      1.0  0.67792  0.83676  0.60291  1.0000
  S   S338      1.0  0.71606  0.86176  0.66423  1.0000
  Fe  Fe169     1.0  0.69919  0.80903  0.58763  1.0000
  S   S339      1.0  0.67637  0.76049  0.57187  1.0000
  Fe  Fe170     1.0  0.71315  0.87747  0.58158  1.0000
  S   S340      1.0  0.70886  0.91315  0.55986  1.0000
  S   S341      1.0  0.73736  0.82270  0.61377  1.0000
  S   S342      1.0  0.75268  0.89603  0.60695  1.0000
  S   S343      1.0  0.67946  0.51092  0.61048  1.0000
  S   S344      1.0  0.75170  0.58328  0.58226  1.0000
  C   C842      1.0  0.76089  0.89820  0.51297  1.0000
  Fe  Fe171     1.0  0.71321  0.62935  0.60751  1.0000
  S   S345      1.0  0.75806  0.65291  0.58687  1.0000
  S   S346      1.0  0.69817  0.66063  0.62558  1.0000
  Fe  Fe172     1.0  0.73236  0.61040  0.56428  1.0000
  S   S347      1.0  0.72956  0.60648  0.52628  1.0000
  Fe  Fe173     1.0  0.77169  0.62275  0.60731  1.0000
  S   S348      1.0  0.81877  0.63776  0.62386  1.0000
  S   S349      1.0  0.68636  0.58864  0.58358  1.0000
  S   S350      1.0  0.72848  0.60158  0.62933  1.0000
  C   C843      1.0  0.76965  0.92434  0.70944  1.0000
  C   C844      1.0  0.70849  0.62287  0.51345  1.0000
  C   C845      1.0  0.70432  0.64567  0.52470  1.0000
  H   H1341     1.0  0.75438  0.89720  0.49479  1.0000
  C   C846      1.0  0.67650  0.65019  0.49192  1.0000
  H   H1342     1.0  0.56919  0.98067  0.52222  1.0000
  H   H1343     1.0  0.66798  0.54877  0.52790  1.0000
  H   H1344     1.0  0.71370  0.65303  0.54160  1.0000
  H   H1345     1.0  0.72274  0.92810  0.67405  1.0000
  H   H1346     1.0  0.99832  0.99393  0.50874  1.0000
  C   C847      1.0  0.69627  0.61343  0.49154  1.0000
  C   C848      1.0  0.81228  0.55559  0.66466  1.0000
  C   C849      1.0  0.79258  0.56796  0.67016  1.0000
  C   C850      1.0  0.79382  0.59261  0.65719  1.0000
  C   C851      1.0  0.81566  0.60574  0.63935  1.0000
  C   C852      1.0  0.83573  0.59374  0.63422  1.0000
  H   H1347     1.0  0.77612  0.55833  0.68416  1.0000
  H   H1348     1.0  0.77840  0.60197  0.66131  1.0000
  H   H1349     1.0  0.75597  0.76412  0.62518  1.0000
  C   C853      1.0  0.68181  0.73236  0.58681  1.0000
  C   C854      1.0  0.68193  0.70744  0.57511  1.0000
  C   C855      1.0  0.68707  0.68527  0.58674  1.0000
  C   C856      1.0  0.69129  0.68753  0.61022  1.0000
  C   C857      1.0  0.69054  0.71210  0.62193  1.0000
  C   C858      1.0  0.68630  0.73470  0.61025  1.0000
  H   H1350     1.0  0.67827  0.70535  0.55700  1.0000
  H   H1351     1.0  0.68733  0.66624  0.57759  1.0000
  H   H1352     1.0  0.69341  0.71385  0.64011  1.0000
  H   H1353     1.0  0.68568  0.75348  0.61948  1.0000
  C   C859      1.0  0.69825  0.93924  0.57263  1.0000
  C   C860      1.0  0.67561  0.92918  0.58999  1.0000
  C   C861      1.0  0.66521  0.94950  0.59824  1.0000
  H   H1354     1.0  0.73917  0.89208  0.52313  1.0000
  C   C862      1.0  0.84441  0.64983  0.69461  1.0000
  C   C863      1.0  0.71099  0.96995  0.56406  1.0000
  H   H1355     1.0  0.66516  0.90532  0.59632  1.0000
  H   H1356     1.0  0.64664  0.94120  0.61088  1.0000
  H   H1357     1.0  0.71617  0.54461  0.53533  1.0000
  H   H1358     1.0  0.72818  0.97776  0.55043  1.0000
  C   C864      1.0  0.81035  0.85490  0.55472  1.0000
  C   C865      1.0  0.83094  0.86854  0.53635  1.0000
  C   C866      1.0  0.82496  0.85183  0.51595  1.0000
  C   C867      1.0  0.79920  0.82101  0.51428  1.0000
  C   C868      1.0  0.77919  0.80707  0.53288  1.0000
  C   C869      1.0  0.78430  0.82430  0.55288  1.0000
  H   H1359     1.0  0.85094  0.89231  0.53764  1.0000
  C   C870      1.0  0.58418  0.96958  0.51953  1.0000
  H   H1360     1.0  0.75918  0.78335  0.53160  1.0000
  H   H1361     1.0  0.76790  0.81395  0.56685  1.0000
  H   H1362     1.0  0.81546  0.95310  0.54864  1.0000
  C   C871      1.0  0.81179  0.75174  0.59985  1.0000
  H   H1363     1.0  0.78918  0.76344  0.63806  1.0000
  H   H1364     1.0  0.75825  0.72861  0.62456  1.0000
  C   C872      1.0  0.83359  0.56831  0.64655  1.0000
  C   C873      1.0  0.70773  0.80430  0.71586  1.0000
  H   H1365     1.0  0.84887  0.55883  0.64224  1.0000
  N   N84       1.0  0.70501  0.67206  0.69543  1.0000
  H   H1366     1.0  0.57358  0.93775  0.55868  1.0000
  H   H1367     1.0  0.67591  0.74853  0.67456  1.0000
  C   C874      1.0  0.66956  0.78361  0.51004  1.0000
  C   C875      1.0  0.70665  0.82788  0.68004  1.0000
  C   C876      1.0  0.69302  0.79819  0.66970  1.0000
  H   H1368     1.0  0.69525  0.93661  0.70599  1.0000
  S   S351      1.0  0.75595  0.99664  0.69550  1.0000
  H   H1369     1.0  0.69908  0.75433  0.52689  1.0000
  H   H1370     1.0  0.68732  0.79574  0.65186  1.0000
  H   H1371     1.0  0.84042  0.86271  0.50154  1.0000
  C   C877      1.0  0.65342  0.52576  0.53669  1.0000
  H   H1372     1.0  0.69955  0.59583  0.48279  1.0000
  C   C878      1.0  0.82704  0.95251  0.70996  1.0000
  Fe  Fe174     1.0  0.70724  0.56354  0.60291  1.0000
  H   H1373     1.0  0.80260  0.91189  0.54682  1.0000
  N   N85       1.0  0.78750  0.92970  0.51917  1.0000
  H   H1374     1.0  0.71500  0.95321  0.65647  1.0000
  H   H1375     1.0  0.82027  0.90104  0.68905  1.0000
  H   H1376     1.0  0.66665  0.68199  0.69269  1.0000
  H   H1377     1.0  0.63785  0.87449  0.68970  1.0000
  C   C879      1.0  0.67797  0.93690  0.69372  1.0000
  H   H1378     1.0  0.77755  0.88018  0.68736  1.0000
  S   S352      1.0  0.79073  0.80065  0.48858  1.0000
  H   H1379     1.0  0.72990  0.70393  0.66815  1.0000
  H   H1380     1.0  0.79747  0.97771  0.51976  1.0000
  C   C880      1.0  0.77797  0.95366  0.51524  1.0000
  H   H1381     1.0  0.68372  0.77127  0.46858  1.0000
  N   N86       1.0  0.79017  0.76479  0.60166  1.0000
  C   C881      1.0  0.80893  0.79963  0.60075  1.0000
  C   C882      1.0  0.76722  0.75285  0.58270  1.0000
  H   H1382     1.0  0.79338  0.81028  0.60234  1.0000
  H   H1383     1.0  0.82207  0.80810  0.58445  1.0000
  H   H1384     1.0  0.82675  0.80951  0.61465  1.0000
  H   H1385     1.0  0.82951  0.76024  0.61386  1.0000
  H   H1386     1.0  0.75306  0.72660  0.58269  1.0000
  H   H1387     1.0  0.77951  0.76034  0.56605  1.0000
  H   H1388     1.0  0.75006  0.76166  0.58376  1.0000
  C   C883      1.0  0.68878  0.65966  0.51379  1.0000
  C   C884      1.0  0.62686  0.96232  0.53360  1.0000
  H   H1389     1.0  0.90610  0.68031  0.68316  1.0000
  C   C885      1.0  0.67987  0.62675  0.48088  1.0000
  H   H1390     1.0  0.85255  0.60375  0.62040  1.0000
  H   H1391     1.0  0.79834  0.72546  0.60058  1.0000
  H   H1392     1.0  0.75674  0.94875  0.52558  1.0000
  H   H1393     1.0  0.68729  0.96199  0.68882  1.0000
  C   C886      1.0  0.67834  0.98038  0.58993  1.0000
  H   H1394     1.0  0.82775  0.97559  0.71095  1.0000
  N   N87       1.0  0.66646  0.75360  0.50198  1.0000
  H   H1395     1.0  0.65440  0.64071  0.69303  1.0000
  H   H1396     1.0  0.74766  0.90680  0.70057  1.0000
  H   H1397     1.0  0.68479  0.52086  0.50094  1.0000
  C   C887      1.0  0.58928  0.96380  0.55965  1.0000
  H   H1398     1.0  0.59682  0.97845  0.50312  1.0000
  H   H1399     1.0  0.82334  0.91927  0.50742  1.0000
  C   C888      1.0  0.65138  0.91874  0.65776  1.0000
  H   H1400     1.0  0.64437  0.96733  0.54741  1.0000
  H   H1401     1.0  0.67786  0.88187  0.69299  1.0000
  H   H1402     1.0  0.63541  0.70375  0.50692  1.0000
  H   H1403     1.0  0.82089  0.62833  0.69750  1.0000
  H   H1404     1.0  0.69965  0.52855  0.56248  1.0000
  C   C889      1.0  0.70151  0.99065  0.57295  1.0000
  C   C890      1.0  0.67319  0.66424  0.68696  1.0000
  S   S353      1.0  0.81125  0.52464  0.68033  1.0000
  H   H1405     1.0  0.61216  0.93625  0.53186  1.0000
  H   H1406     1.0  0.89109  0.61740  0.70433  1.0000
  C   C891      1.0  0.70495  0.92848  0.66240  1.0000
  H   H1407     1.0  0.77173  0.95411  0.49717  1.0000
  C   C892      1.0  0.66126  0.88398  0.68103  1.0000
  S   S354      1.0  0.65944  0.66998  0.47822  1.0000
  C   C893      1.0  0.71310  0.64827  0.68747  1.0000
  H   H1408     1.0  0.77773  0.92217  0.66459  1.0000
  S   S355      1.0  0.66335  0.00458  0.59963  1.0000
  H   H1409     1.0  0.82048  0.94362  0.66500  1.0000
  H   H1410     1.0  0.81074  0.93765  0.48681  1.0000
  H   H1411     1.0  0.76721  0.87951  0.51591  1.0000
  H   H1412     1.0  0.72356  0.85344  0.71144  1.0000
  H   H1413     1.0  0.57405  0.97421  0.56376  1.0000
  H   H1414     1.0  0.72986  0.73226  0.47172  1.0000
  H   H1415     1.0  0.60586  0.96890  0.57415  1.0000
  C   C894      1.0  0.63830  0.72677  0.51258  1.0000
  H   H1416     1.0  0.69543  0.62421  0.69344  1.0000
  H   H1417     1.0  0.84891  0.59744  0.69983  1.0000
  H   H1418     1.0  0.79688  0.88885  0.71437  1.0000
  H   H1419     1.0  0.69353  0.72976  0.50289  1.0000
  C   C895      1.0  0.79541  0.92978  0.54331  1.0000
  C   C896      1.0  0.69537  0.75241  0.50823  1.0000
  H   H1420     1.0  0.71713  0.77200  0.50028  1.0000
  H   H1421     1.0  0.65800  0.86829  0.66639  1.0000
  C   C897      1.0  0.68641  0.77146  0.68256  1.0000
  H   H1422     1.0  0.69069  0.80429  0.50240  1.0000
  H   H1423     1.0  0.64065  0.97161  0.51765  1.0000
  H   H1424     1.0  0.62760  0.91022  0.66566  1.0000
  H   H1425     1.0  0.64038  0.72754  0.53137  1.0000
  C   C898      1.0  0.70041  0.52230  0.54452  1.0000
  C   C899      1.0  0.71344  0.83077  0.70321  1.0000
  H   H1426     1.0  0.67244  0.78588  0.52876  1.0000
  C   C900      1.0  0.69416  0.77463  0.70560  1.0000
  N   N88       1.0  0.67388  0.91701  0.67375  1.0000
  H   H1427     1.0  0.84937  0.95651  0.70167  1.0000
  C   C901      1.0  0.79830  0.89843  0.69706  1.0000
  H   H1428     1.0  0.71362  0.64744  0.66868  1.0000
  H   H1429     1.0  0.90072  0.69749  0.70849  1.0000
  N   N89       1.0  0.60696  0.97674  0.53831  1.0000
  H   H1430     1.0  0.77466  0.92426  0.55439  1.0000
  H   H1431     1.0  0.84806  0.65280  0.67595  1.0000
  H   H1432     1.0  0.65132  0.53116  0.55471  1.0000
  H   H1433     1.0  0.70286  0.91368  0.64745  1.0000
  H   H1434     1.0  0.64132  0.75291  0.47174  1.0000
  H   H1435     1.0  0.67240  0.66380  0.66814  1.0000
  C   C902      1.0  0.79888  0.93975  0.67435  1.0000
  H   H1436     1.0  0.56779  0.94375  0.51762  1.0000
  H   H1437     1.0  0.83643  0.96054  0.50945  1.0000
  H   H1438     1.0  0.64815  0.78533  0.50566  1.0000
  H   H1439     1.0  0.64794  0.90415  0.64241  1.0000
  H   H1440     1.0  0.84283  0.67039  0.70108  1.0000
  H   H1441     1.0  0.78349  0.65164  0.71144  1.0000
  H   H1442     1.0  0.75329  0.71045  0.69333  1.0000
  C   C903      1.0  0.81568  0.93709  0.50516  1.0000
  H   H1443     1.0  0.73701  0.65373  0.69369  1.0000
  C   C904      1.0  0.72903  0.70352  0.68697  1.0000
  H   H1444     1.0  0.79853  0.96236  0.67426  1.0000
  H   H1445     1.0  0.65509  0.92878  0.70286  1.0000
  Fe  Fe175     1.0  0.79729  0.52199  0.71682  1.0000
  N   N90       1.0  0.87027  0.64727  0.70582  1.0000
  H   H1446     1.0  0.87526  0.62180  0.67789  1.0000
  C   C905      1.0  0.87153  0.61985  0.69656  1.0000
  H   H1447     1.0  0.74011  0.52263  0.59103  1.0000
  H   H1448     1.0  0.61598  0.72678  0.50821  1.0000
  H   H1449     1.0  0.65962  0.72899  0.47048  1.0000
  N   N91       1.0  0.01132  0.99865  0.47363  1.0000
  C   C906      1.0  0.90094  0.67639  0.70162  1.0000
  H   H1450     1.0  0.76921  0.94683  0.71025  1.0000
  C   C907      1.0  0.66267  0.75162  0.47712  1.0000
  H   H1451     1.0  0.62911  0.51418  0.52923  1.0000
  H   H1452     1.0  0.92111  0.67532  0.70973  1.0000
  H   H1453     1.0  0.96017  0.97659  0.47597  1.0000
  H   H1454     1.0  0.01272  0.96835  0.49935  1.0000
  N   N92       1.0  0.66806  0.50562  0.53476  1.0000
  H   H1455     1.0  0.86997  0.90290  0.82184  1.0000
  Fe  Fe176     1.0  0.90755  0.97538  0.92167  1.0000
  H   H1456     1.0  0.80886  0.00350  0.83324  1.0000
  H   H1457     1.0  0.86043  0.84866  0.82983  1.0000
  H   H1458     1.0  0.78582  0.92821  0.86368  1.0000
  Fe  Fe177     1.0  0.71652  0.97187  0.77466  1.0000
  H   H1459     1.0  0.85307  0.00465  0.88428  1.0000
  H   H1460     1.0  0.64331  0.96078  0.85798  1.0000
  S   S356      1.0  0.83710  0.90351  0.86586  1.0000
  S   S357      1.0  0.86291  0.92976  0.92744  1.0000
  S   S358      1.0  0.83224  0.86697  0.74513  1.0000
  H   H1461     1.0  0.84190  0.62059  0.73428  1.0000
  Fe  Fe178     1.0  0.76605  0.76790  0.78810  1.0000
  S   S359      1.0  0.81359  0.78624  0.77130  1.0000
  S   S360      1.0  0.76606  0.76581  0.82610  1.0000
  S   S361      1.0  0.74075  0.72626  0.76484  1.0000
  S   S362      1.0  0.75140  0.79819  0.76880  1.0000
  H   H1462     1.0  0.73488  0.53215  0.87497  1.0000
  H   H1463     1.0  0.86152  0.66251  0.73792  1.0000
  H   H1464     1.0  0.90899  0.93347  0.81403  1.0000
  S   S363      1.0  0.77699  0.77805  0.72382  1.0000
  S   S364      1.0  0.83333  0.55170  0.74309  1.0000
  C   C908      1.0  0.73316  0.53125  0.82948  1.0000
  N   N93       1.0  0.81772  0.97796  0.85910  1.0000
  H   H1465     1.0  0.87786  0.84836  0.80320  1.0000
  Fe  Fe179     1.0  0.79245  0.55436  0.75886  1.0000
  S   S365      1.0  0.79815  0.59781  0.77683  1.0000
  H   H1466     1.0  0.71343  0.80678  0.73367  1.0000
  H   H1467     1.0  0.71207  0.51029  0.83692  1.0000
  C   C909      1.0  0.86420  0.64304  0.73045  1.0000
  S   S366      1.0  0.68859  0.74201  0.72143  1.0000
  C   C910      1.0  0.79993  0.68036  0.76507  1.0000
  C   C911      1.0  0.80023  0.65477  0.77567  1.0000
  C   C912      1.0  0.79454  0.62802  0.76320  1.0000
  C   C913      1.0  0.81919  0.86523  0.85518  1.0000
  H   H1468     1.0  0.92918  0.92371  0.85020  1.0000
  H   H1469     1.0  0.80546  0.65601  0.79356  1.0000
  Fe  Fe180     1.0  0.78709  0.74695  0.74616  1.0000
  Fe  Fe181     1.0  0.94342  0.94236  0.90357  1.0000
  C   C914      1.0  0.70718  0.92142  0.81573  1.0000
  C   C915      1.0  0.67872  0.92215  0.81449  1.0000
  H   H1470     1.0  0.77720  0.98404  0.85365  1.0000
  C   C916      1.0  0.56163  0.96380  0.95220  1.0000
  H   H1471     1.0  0.65298  0.90076  0.86868  1.0000
  S   S367      1.0  0.94013  0.96054  0.93798  1.0000
  C   C917      1.0  0.70480  0.67228  0.72042  1.0000
  S   S368      1.0  0.68201  0.96885  0.95466  1.0000
  C   C918      1.0  0.79922  0.95021  0.87380  1.0000
  C   C919      1.0  0.85541  0.92544  0.76351  1.0000
  H   H1472     1.0  0.81082  0.57895  0.84406  1.0000
  S   S369      1.0  0.70465  0.96856  0.90274  1.0000
  H   H1473     1.0  0.60755  0.96634  0.95156  1.0000
  H   H1474     1.0  0.68848  0.76953  0.85080  1.0000
  H   H1475     1.0  0.79528  0.56251  0.81676  1.0000
  S   S370      1.0  0.77788  0.51144  0.78048  1.0000
  C   C920      1.0  0.80599  0.85987  0.83354  1.0000
  C   C921      1.0  0.79100  0.82954  0.82438  1.0000
  C   C922      1.0  0.78792  0.80414  0.83706  1.0000
  C   C923      1.0  0.79451  0.67960  0.74181  1.0000
  C   C924      1.0  0.78798  0.65250  0.72942  1.0000
  C   C925      1.0  0.80093  0.80941  0.85889  1.0000
  H   H1476     1.0  0.78109  0.82588  0.80768  1.0000
  C   C926      1.0  0.78759  0.62661  0.74011  1.0000
  H   H1477     1.0  0.85764  0.97034  0.85629  1.0000
  H   H1478     1.0  0.94735  0.88452  0.81964  1.0000
  H   H1479     1.0  0.68721  0.64884  0.72740  1.0000
  C   C927      1.0  0.81046  0.99119  0.93261  1.0000
  Fe  Fe182     1.0  0.65811  0.95365  0.92065  1.0000
  H   H1480     1.0  0.73047  0.78841  0.85553  1.0000
  C   C928      1.0  0.75551  0.55206  0.86624  1.0000
  H   H1481     1.0  0.70371  0.77138  0.87888  1.0000
  C   C929      1.0  0.79795  0.89346  0.76374  1.0000
  H   H1482     1.0  0.69515  0.81807  0.83258  1.0000
  H   H1483     1.0  0.77638  0.56016  0.87775  1.0000
  H   H1484     1.0  0.88089  0.54909  0.89123  1.0000
  H   H1485     1.0  0.80751  0.87923  0.82369  1.0000
  H   H1486     1.0  0.77647  0.87140  0.76013  1.0000
  Fe  Fe183     1.0  0.79786  0.81496  0.75104  1.0000
  Fe  Fe184     1.0  0.78694  0.99374  0.77500  1.0000
  H   H1487     1.0  0.80498  0.70111  0.77479  1.0000
  C   C930      1.0  0.76866  0.51639  0.84715  1.0000
  H   H1488     1.0  0.83830  0.96917  0.92510  1.0000
  S   S371      1.0  0.98217  0.93855  0.88443  1.0000
  C   C931      1.0  0.91235  0.89802  0.84780  1.0000
  C   C932      1.0  0.85912  0.52815  0.89629  1.0000
  C   C933      1.0  0.53593  0.95734  0.91600  1.0000
  H   H1489     1.0  0.76844  0.91588  0.72709  1.0000
  H   H1490     1.0  0.93259  0.89192  0.79377  1.0000
  S   S372      1.0  0.66999  0.93701  0.79026  1.0000
  C   C934      1.0  0.89226  0.90758  0.81311  1.0000
  H   H1491     1.0  0.88382  0.64220  0.73960  1.0000
  C   C935      1.0  0.71569  0.91246  0.83587  1.0000
  C   C936      1.0  0.84048  0.97315  0.84540  1.0000
  H   H1492     1.0  0.70017  0.98008  0.85500  1.0000
  C   C937      1.0  0.88342  0.85548  0.82128  1.0000
  C   C938      1.0  0.64563  0.97793  0.84467  1.0000
  C   C939      1.0  0.85340  0.95067  0.77295  1.0000
  N   N94       1.0  0.70883  0.81513  0.86673  1.0000
  C   C940      1.0  0.71439  0.83202  0.84500  1.0000
  C   C941      1.0  0.67819  0.80913  0.87648  1.0000
  C   C942      1.0  0.73502  0.83464  0.88257  1.0000
  H   H1493     1.0  0.87854  0.92833  0.75958  1.0000
  C   C943      1.0  0.79590  0.91933  0.77245  1.0000
  H   H1494     1.0  0.73737  0.83704  0.83722  1.0000
  H   H1495     1.0  0.71528  0.85498  0.84739  1.0000
  H   H1496     1.0  0.67335  0.79668  0.89300  1.0000
  H   H1497     1.0  0.67813  0.83156  0.87954  1.0000
  H   H1498     1.0  0.65791  0.79455  0.86496  1.0000
  H   H1499     1.0  0.73176  0.82271  0.89916  1.0000
  H   H1500     1.0  0.73653  0.85776  0.88586  1.0000
  H   H1501     1.0  0.95407  0.92327  0.81382  1.0000
  H   H1502     1.0  0.89301  0.84120  0.82899  1.0000
  H   H1503     1.0  0.63640  0.91364  0.83240  1.0000
  C   C944      1.0  0.93633  0.89767  0.81213  1.0000
  Fe  Fe185     1.0  0.72738  0.97854  0.93695  1.0000
  H   H1504     1.0  0.73722  0.52450  0.81235  1.0000
  S   S373      1.0  0.76755  0.50608  0.90497  1.0000
  C   C945      1.0  0.83919  0.99076  0.92993  1.0000
  H   H1505     1.0  0.72266  0.92778  0.80114  1.0000
  C   C946      1.0  0.82375  0.94808  0.77700  1.0000
  C   C947      1.0  0.70775  0.78476  0.86285  1.0000
  H   H1506     1.0  0.83093  0.55065  0.89328  1.0000
  H   H1507     1.0  0.75848  0.83976  0.87568  1.0000
  H   H1508     1.0  0.78788  0.96990  0.93000  1.0000
  H   H1509     1.0  0.79041  0.52414  0.85764  1.0000
  C   C948      1.0  0.83068  0.52900  0.89738  1.0000
  S   S374      1.0  0.70914  0.89794  0.88082  1.0000
  Fe  Fe186     1.0  0.67308  0.91921  0.95674  1.0000
  S   S375      1.0  0.72015  0.93017  0.94200  1.0000
  S   S376      1.0  0.75760  0.52790  0.73099  1.0000
  Fe  Fe187     1.0  0.73170  0.75880  0.74350  1.0000
  H   H1510     1.0  0.78254  0.60584  0.73045  1.0000
  H   H1511     1.0  0.79854  0.78976  0.86881  1.0000
  H   H1512     1.0  0.89005  0.89205  0.85704  1.0000
  C   C949      1.0  0.81714  0.84015  0.86784  1.0000
  H   H1513     1.0  0.56262  0.95617  0.88710  1.0000
  H   H1514     1.0  0.87500  0.97267  0.77648  1.0000
  H   H1515     1.0  0.81506  0.94655  0.88552  1.0000
  C   C950      1.0  0.58765  0.96366  0.94156  1.0000
  H   H1516     1.0  0.69919  0.98561  0.82524  1.0000
  S   S377      1.0  0.91616  0.96295  0.88688  1.0000
  H   H1517     1.0  0.82724  0.84428  0.88467  1.0000
  Fe  Fe188     1.0  0.69478  0.91947  0.90875  1.0000
  Fe  Fe189     1.0  0.87280  0.91635  0.89372  1.0000
  H   H1518     1.0  0.73753  0.91165  0.83671  1.0000
  H   H1519     1.0  0.78436  0.58888  0.82957  1.0000
  H   H1520     1.0  0.77285  0.91691  0.77590  1.0000
  Fe  Fe190     1.0  0.89525  0.91376  0.94159  1.0000
  C   C951      1.0  0.58836  0.96122  0.91801  1.0000
  S   S378      1.0  0.74675  0.95941  0.75340  1.0000
  H   H1521     1.0  0.72859  0.67861  0.72742  1.0000
  S   S379      1.0  0.62208  0.96417  0.90367  1.0000
  S   S380      1.0  0.64655  0.90325  0.92375  1.0000
  H   H1522     1.0  0.78353  0.96179  0.83208  1.0000
  H   H1523     1.0  0.88616  0.90104  0.79500  1.0000
  H   H1524     1.0  0.82796  0.95156  0.83472  1.0000
  C   C952      1.0  0.56233  0.95803  0.90531  1.0000
  N   N95       1.0  0.76162  0.54225  0.84400  1.0000
  C   C953      1.0  0.53564  0.96068  0.93951  1.0000
  C   C954      1.0  0.82784  0.89666  0.75896  1.0000
  S   S381      1.0  0.89988  0.89443  0.90819  1.0000
  H   H1525     1.0  0.77257  0.50777  0.83074  1.0000
  C   C955      1.0  0.78922  0.56935  0.83317  1.0000
  N   N96       1.0  0.90608  0.88968  0.82358  1.0000
  C   C956      1.0  0.79581  0.98203  0.84394  1.0000
  S   S382      1.0  0.82299  0.98123  0.78821  1.0000
  H   H1526     1.0  0.92323  0.88534  0.85627  1.0000
  H   H1527     1.0  0.62650  0.98371  0.84796  1.0000
  C   C957      1.0  0.66799  0.90622  0.85387  1.0000
  C   C958      1.0  0.69654  0.90572  0.85511  1.0000
  C   C959      1.0  0.65866  0.91360  0.83337  1.0000
  C   C960      1.0  0.70204  0.99722  0.84191  1.0000
  H   H1528     1.0  0.75028  0.57165  0.86456  1.0000
  H   H1529     1.0  0.78153  0.95281  0.88428  1.0000
  H   H1530     1.0  0.85443  0.99337  0.83379  1.0000
  H   H1531     1.0  0.64075  0.96560  0.82805  1.0000
  H   H1532     1.0  0.51621  0.95509  0.90602  1.0000
  H   H1533     1.0  0.82736  0.94486  0.72761  1.0000
  H   H1534     1.0  0.69844  0.68970  0.72701  1.0000
  H   H1535     1.0  0.72682  0.55000  0.82713  1.0000
  S   S383      1.0  0.79808  0.71286  0.72744  1.0000
  H   H1536     1.0  0.87662  0.97338  0.96395  1.0000
  S   S384      1.0  0.75595  0.00311  0.79811  1.0000
  Fe  Fe191     1.0  0.75696  0.00227  0.73326  1.0000
  Fe  Fe192     1.0  0.81515  0.50603  0.76201  1.0000
