data_image0
_chemical_formula_structural       FeS2FeS2FeSFeS3FeS2FeS2FeSFeS3FeS2FeS2FeSFeS3FeS2FeS2FeSFeS3FeS2FeS2FeSFeS3FeS2FeS2FeSFeS3FeS2FeS2FeSFeS3FeS2FeS2FeSFeS3FeS2FeS2FeSFeS3FeS2FeS2FeSFeS3FeS2FeS2FeSFeS3FeS2FeS2FeSFeS3FeS2FeS2FeSFeS3FeS2FeS2FeSFeS3FeS2FeS2FeSFeS3FeS2FeS2FeSFeS3FeS2FeS2FeSFeS3FeS2FeS2FeSFeS3FeS2FeS2FeSFeS3FeS2FeS2FeSFeS3FeS2FeS2FeSFeS3FeS2FeS2FeSFeS3FeS2FeS2FeSFeS3FeS2FeS2FeSFeS3FeS2FeS2FeSFeS3FeS2FeS2FeSFeS3FeS2FeS2FeSFeS3FeS2FeS2FeSFeS3FeS2FeS2FeSFeS3FeS2FeS2FeSFeS3FeS2FeS2FeSFeS3FeS2FeS2FeSFeS3C6H4C6H4C6H4C6H4C6H4C6H4C6H4C6H4C6H4C6H4C6H4C6H4C6H4C6H4C6H4C6H4C6H4C6H4C6H4C6H4C6H4C6H4C6H4C6H4C6H4C6H4C6H4C6H4C6H4C6H4C6H4C6H4C6H4C6H4C6H4C6H4C6H4C6H4C6H4C6H4C6H4C6H4C6H4C6H4C6H4C6H4C6H4C6H4C6H4C6H4C6H4C6H4C6H4C6H4C6H4C6H4C6H4C6H4C6H4C6H4C6H4C6H4C6H4C6H4NC4H12NC4H12NC4H12NC4H12NC4H12NC4H12NC4H12NC4H12NC4H12NC4H12NC4H12NC4H12NC4H12NC4H12NC4H12NC4H12NC4H12NC4H12NC4H12NC4H12NC4H12NC4H12NC4H12NC4H12NC4H12NC4H12NC4H12NC4H12NC4H12NC4H12NC4H12NC4H12NC4H12NC4H12NC4H12NC4H12NC4H12NC4H12NC4H12NC4H12NC4H12NC4H12NC4H12NC4H12NC4H12NC4H12NC4H12NC4H12NC4H12NC4H12NC4H12NC4H12NC4H12NC4H12NC4H12NC4H12NC4H12NC4H12NC4H12NC4H12NC4H12NC4H12NC4H12NC4H12
_chemical_formula_sum              "Fe128 S256 C640 H1024 N64"
_cell_length_a       34.072440944745836
_cell_length_b       36.01340954731706
_cell_length_c       64.00509444949192
_cell_angle_alpha    90.4871064278977
_cell_angle_beta     90.74115122942744
_cell_angle_gamma    91.00640098795503

_space_group_name_H-M_alt    "P 1"
_space_group_IT_number       1

loop_
  _space_group_symop_operation_xyz
  'x, y, z'

loop_
  _atom_site_type_symbol
  _atom_site_label
  _atom_site_symmetry_multiplicity
  _atom_site_fract_x
  _atom_site_fract_y
  _atom_site_fract_z
  _atom_site_occupancy
  Fe  Fe1       1.0  0.9306136581438208  0.4558024349519207  0.26527202051660453  1.0000
  S   S1        1.0  0.987271991848566  0.4799931734232856  0.2776803038573258  1.0000
  S   S2        1.0  0.9023573963847228  0.4064178873262656  0.2801359908513166  1.0000
  Fe  Fe2       1.0  0.9282135843129121  0.5074917847496434  0.22827983803484672  1.0000
  S   S3        1.0  0.9847829033805744  0.5363351022278068  0.23730550029067873  1.0000
  S   S4        1.0  0.8928903597736267  0.5221571314982166  0.19988421084585745  1.0000
  Fe  Fe3       1.0  0.00565731336260189  0.4788677780986956  0.2441175809721027  1.0000
  S   S5        1.0  0.06184433706822534  0.45247341951649017  0.23443338626914867  1.0000
  Fe  Fe4       1.0  0.9606330525745261  0.5347589820851566  0.2697679013834198  1.0000
  S   S6        1.0  0.9615306565762229  0.5852723266780187  0.2907124624857576  1.0000
  S   S7        1.0  0.9510482396198582  0.4502513053957029  0.23232658910117213  1.0000
  S   S8        1.0  0.9019866989813443  0.5103506702296269  0.26016557427870446  1.0000
  Fe  Fe5       1.0  0.30976341943227853  0.5160029601976441  0.17197036655110312  1.0000
  S   S9        1.0  0.30771609823371643  0.46068234454250834  0.1554362225434915  1.0000
  S   S10       1.0  0.3686590514405218  0.5404870179664762  0.18083881448306227  1.0000
  Fe  Fe6       1.0  0.22142638668946496  0.5236051455475252  0.1710489208795237  1.0000
  S   S11       1.0  0.21187450367292288  0.4694633853549762  0.15443120330876492  1.0000
  S   S12       1.0  0.16608980437702126  0.554438198058422  0.1766244741973094  1.0000
  Fe  Fe7       1.0  0.2572501132701093  0.44828369227212783  0.17663408580997714  1.0000
  S   S13       1.0  0.24533788713053079  0.3951199663411742  0.19371408151870925  1.0000
  Fe  Fe8       1.0  0.2625833415649636  0.4874427561039578  0.13505121572275933  1.0000
  S   S14       1.0  0.2567795407377685  0.4852589228617434  0.10032706555348203  1.0000
  S   S15       1.0  0.2633061894979263  0.5014105553720303  0.19506466633423375  1.0000
  S   S16       1.0  0.268530503698345  0.543839132089853  0.14974155086269592  1.0000
  Fe  Fe9       1.0  0.9411820077620116  0.6786118133701626  0.10535989326701811  1.0000
  S   S17       1.0  0.9199083069729901  0.6801832954838514  0.07218350420175867  1.0000
  S   S18       1.0  0.936894666948926  0.7275651794646444  0.12720437873731072  1.0000
  Fe  Fe10      1.0  0.9665272721622266  0.5986616419714262  0.10219386421680188  1.0000
  S   S19       1.0  0.9490940317111359  0.592964244404696  0.06838106204236949  1.0000
  S   S20       1.0  0.9965390561385734  0.55452660036298  0.12098717655847735  1.0000
  Fe  Fe11      1.0  0.9749996245180785  0.6500717553190467  0.06525387756757284  1.0000
  S   S21       1.0  0.0068945296041029724  0.6694658151701406  0.03708652988794259  1.0000
  Fe  Fe12      1.0  0.8950818531136531  0.623240701598269  0.0778385993752535  1.0000
  S   S22       1.0  0.8362483544452597  0.6079462541914825  0.06384879986316538  1.0000
  S   S23       1.0  0.9987728104345224  0.6527366797710421  0.0980288782622798  1.0000
  S   S24       1.0  0.9101297495276822  0.6247821253669046  0.11196777229940902  1.0000
  Fe  Fe13      1.0  0.2953024906951271  0.6544828633510682  0.04191231495226422  1.0000
  S   S25       1.0  0.2762575240104189  0.615197047672245  0.01635685579253021  1.0000
  S   S26       1.0  0.3362781778824234  0.6315708991315548  0.06610100251815765  1.0000
  Fe  Fe14      1.0  0.24196673437094046  0.7154671687744876  0.026797710691531362  1.0000
  S   S27       1.0  0.2174295101972936  0.6804461654410578  0.000327499484554572  1.0000
  S   S28       1.0  0.21754419622385446  0.7727209019070354  0.030934649878767706  1.0000
  Fe  Fe15      1.0  0.21600840578241876  0.6344548724901684  0.023784035143507687  1.0000
  S   S29       1.0  0.16973725491981426  0.5909688256982614  0.029760120655919486  1.0000
  Fe  Fe16      1.0  0.27992878344428873  0.6646922079093526  0.9956851095550252  1.0000
  S   S30       1.0  0.3055334547346623  0.6592094910658037  0.9637477391265968  1.0000
  S   S31       1.0  0.23463060168985742  0.6709139921495874  0.05072557795340593  1.0000
  S   S32       1.0  0.30512702378405576  0.7027902169380342  0.020483459237579105  1.0000
  Fe  Fe17      1.0  0.8991949034093514  0.2667669682442259  0.2000941268401471  1.0000
  S   S33       1.0  0.9461675560649844  0.2653231016665706  0.22485192070007545  1.0000
  S   S34       1.0  0.857645998191426  0.314491249931223  0.19976080664127552  1.0000
  Fe  Fe18      1.0  0.9280218797631261  0.19757032257964505  0.17829641298190088  1.0000
  S   S35       1.0  0.9777465282466833  0.19095148236997875  0.20116921254451797  1.0000
  S   S36       1.0  0.9147797837046876  0.15755810674007703  0.1516677219510304  1.0000
  Fe  Fe19      1.0  0.9330408289235602  0.20439254497263173  0.225266081149436  1.0000
  S   S37       1.0  0.9319800767038741  0.17215830007395883  0.25503932571295  1.0000
  Fe  Fe20      1.0  0.9862532056130354  0.25246511442593933  0.19863322858272178  1.0000
  S   S38       1.0  0.04614666280872459  0.2797074677762855  0.19752236715026705  1.0000
  S   S39       1.0  0.8823402379203835  0.20651130448276545  0.2026715289793251  1.0000
  S   S40       1.0  0.9404118340788048  0.2584728105942573  0.17347688938467656  1.0000
  Fe  Fe21      1.0  0.24151749781153725  0.20005921824067613  0.15324927042757872  1.0000
  S   S41       1.0  0.2504799496086727  0.19812663806885195  0.18793331418441214  1.0000
  S   S42       1.0  0.23467472998138986  0.2533713308985164  0.13551201984265754  1.0000
  Fe  Fe22      1.0  0.24521810667327368  0.1162831095408051  0.1486316004460619  1.0000
  S   S43       1.0  0.25426720134772374  0.10738065312880729  0.1830930376414341  1.0000
  S   S44       1.0  0.23397046460692575  0.0669396501208177  0.12748565175490434  1.0000
  Fe  Fe23      1.0  0.20810106592279196  0.1502378945339808  0.18661985396100494  1.0000
  S   S45       1.0  0.160101506923645  0.1451418107440294  0.20994158024651086  1.0000
  Fe  Fe24      1.0  0.29602949959122626  0.15603440076099312  0.18116127190408288  1.0000
  S   S46       1.0  0.35100110414426355  0.16458521523731356  0.20045712076214117  1.0000
  S   S47       1.0  0.19517769177406472  0.15523935819041024  0.15244655505664087  1.0000
  S   S48       1.0  0.2910942867309879  0.16171538814831415  0.1463469197401868  1.0000
  Fe  Fe25      1.0  0.05024758059809842  0.9896624910639551  0.09182920177571541  1.0000
  S   S49       1.0  0.06081360186313289  0.9590603995651293  0.12156085656703364  1.0000
  S   S50       1.0  0.09590368279309791  0.030192939806932717  0.0808674979477384  1.0000
  Fe  Fe26      1.0  0.9682309480411797  0.9576626358305048  0.08607815723474621  1.0000
  S   S51       1.0  0.9706672828927797  0.9242684158291031  0.11544498806098158  1.0000
  S   S52       1.0  0.9162281765267765  0.9582930382560142  0.064297930088006  1.0000
  Fe  Fe27      1.0  0.9995005783886513  0.9755262781514432  0.12932235307962325  1.0000
  S   S53       1.0  0.9888258318057372  0.9993075253662478  0.161179493484374  1.0000
  Fe  Fe28      1.0  0.03155022769351823  0.910732525391403  0.10514729508243104  1.0000
  S   S54       1.0  0.057880290254161304  0.8543835121075609  0.10281820628274785  1.0000
  S   S55       1.0  0.9914752465286728  0.010344748890983135  0.1008351698881591  1.0000
  S   S56       1.0  0.026611535525168373  0.9396894551831573  0.07452450859053372  1.0000
  Fe  Fe29      1.0  0.30678022718000525  0.951826734125634  0.9988057588365351  1.0000
  S   S57       1.0  0.2673290148205784  0.9606577445897388  0.9710885335591528  1.0000
  S   S58       1.0  0.3375661114210138  0.8986884471709545  0.005576298235892008  1.0000
  Fe  Fe30      1.0  0.29646687736318134  0.029991716541950098  0.015770660615122223  1.0000
  S   S59       1.0  0.25593430532951517  0.04614883495308497  0.9895889485098645  1.0000
  S   S60       1.0  0.31881051238450087  0.07091851666134286  0.040078565170465597  1.0000
  Fe  Fe31      1.0  0.22904939987908252  0.989500136179644  0.9941937317574386  1.0000
  S   S61       1.0  0.1641123067901632  0.9783268710142387  0.9946496537094062  1.0000
  Fe  Fe32      1.0  0.2978760649523258  0.01623376092212525  0.9688930330337672  1.0000
  S   S62       1.0  0.322254685024016  0.039198396307140504  0.9390434215755586  1.0000
  S   S63       1.0  0.26597789623043255  0.9757591727088697  0.02222606573443775  1.0000
  S   S64       1.0  0.34082611394148465  0.004753771035572951  0.9946555054837098  1.0000
  Fe  Fe33      1.0  0.3938155875062747  0.017101965711793676  0.27763900617638965  1.0000
  S   S65       1.0  0.3991608867626264  0.06749150399750903  0.29832280031056757  1.0000
  S   S66       1.0  0.4012939709881088  0.014910327442430482  0.24281499743658846  1.0000
  Fe  Fe34      1.0  0.3718458899677688  0.9662523075187673  0.3133663744960398  1.0000
  S   S67       1.0  0.37458419992059094  0.012041807170545926  0.33723781837361666  1.0000
  S   S68       1.0  0.3592736433992237  0.90635576112702  0.3203090044637295  1.0000
  Fe  Fe35      1.0  0.34380152989323615  0.04550542843964056  0.3127242973391064  1.0000
  S   S69       1.0  0.2942692419335881  0.08514542955917737  0.31693946465036427  1.0000
  Fe  Fe36      1.0  0.4294324472296016  0.02976178358432069  0.3208167909424016  1.0000
  S   S70       1.0  0.4840089468313666  0.044168996074529954  0.33940116733913633  1.0000
  S   S71       1.0  0.33605198405407416  0.9979316805980615  0.290200889934475  1.0000
  S   S72       1.0  0.42914285444013617  0.9811630549072573  0.29885234606510813  1.0000
  Fe  Fe37      1.0  0.42297444218834185  0.7011998972172204  0.24910373302933705  1.0000
  S   S73       1.0  0.45376501974418354  0.6510855010050868  0.26113308833536525  1.0000
  S   S74       1.0  0.3689470589926916  0.6938749971287341  0.2289154869112143  1.0000
  Fe  Fe38      1.0  0.47554213935396294  0.7547971467751038  0.27368364269490636  1.0000
  S   S75       1.0  0.5099019780792832  0.7091336940957771  0.288176266292734  1.0000
  S   S76       1.0  0.4958088564919025  0.8128078761843021  0.2820781036441198  1.0000
  Fe  Fe39      1.0  0.508737726005285  0.684300711493247  0.2559942176442213  1.0000
  S   S77       1.0  0.5622059179557275  0.6617318055952658  0.24064609362523787  1.0000
  Fe  Fe40      1.0  0.4516371582786741  0.6803937551877495  0.29204754411253175  1.0000
  S   S78       1.0  0.43673373022775164  0.6476114459458302  0.32069086372775435  1.0000
  S   S79       1.0  0.47832691107626113  0.7322174285134834  0.24102414986703682  1.0000
  S   S80       1.0  0.41703784815443085  0.7284652443969173  0.280524343804409  1.0000
  Fe  Fe41      1.0  0.27217327258527363  0.06440720318227489  0.43089759009123285  1.0000
  S   S81       1.0  0.33412593663544227  0.04567217157327952  0.42756643930854316  1.0000
  S   S82       1.0  0.24582494749285005  0.1084287475036485  0.410976904557504  1.0000
  Fe  Fe42      1.0  0.2527314462868605  0.007864881210531083  0.46365776892206306  1.0000
  S   S83       1.0  0.31225163287218083  0.9829215235928671  0.46312697225864946  1.0000
  S   S84       1.0  0.2049349290786084  0.9844465592218764  0.48343899587276207  1.0000
  Fe  Fe43      1.0  0.3340713524872584  0.042026074980267225  0.46246706121684267  1.0000
  S   S85       1.0  0.3882097849680986  0.05460826625915205  0.48173747324560434  1.0000
  Fe  Fe44      1.0  0.3074685112783973  0.9885188038726116  0.42842101327371795  1.0000
  S   S86       1.0  0.3237913285678631  0.9441749948270116  0.4055810105886009  1.0000
  S   S87       1.0  0.27442156557853503  0.06675766788087834  0.4659238115012651  1.0000
  S   S88       1.0  0.24535651707644648  0.007409154381136762  0.42894391681431926  1.0000
  Fe  Fe45      1.0  0.2716547701772026  0.712561205562819  0.45158472744291694  1.0000
  S   S89       1.0  0.3280809184456577  0.7134550007561908  0.4698430465368312  1.0000
  S   S90       1.0  0.21514925122259795  0.716617140523405  0.4689159525319888  1.0000
  Fe  Fe46      1.0  0.31256507224048125  0.7096738381050306  0.4098824881011486  1.0000
  S   S91       1.0  0.37286524692481354  0.7100916845013278  0.4243642303842529  1.0000
  S   S92       1.0  0.30139941588680025  0.7136254308525336  0.37536762674017926  1.0000
  Fe  Fe47      1.0  0.34676753791427983  0.6696637354902605  0.4471300652225885  1.0000
  S   S93       1.0  0.3753487969132506  0.6161924120876265  0.45649883201832403  1.0000
  Fe  Fe48      1.0  0.34884380674341336  0.7535793134769284  0.4456401460280648  1.0000
  S   S94       1.0  0.38236976546108786  0.8052019582774937  0.4550920061008654  1.0000
  S   S95       1.0  0.2881743997795724  0.6653381785397661  0.43064364142737266  1.0000
  S   S96       1.0  0.29049596494828117  0.7566264395726371  0.4294183057403069  1.0000
  Fe  Fe49      1.0  0.7457940584117552  0.7085080366110919  0.2954432936228357  1.0000
  S   S97       1.0  0.7512112668988473  0.730642984302587  0.2630479994566871  1.0000
  S   S98       1.0  0.7026072806523648  0.6646589457794319  0.30539253042243963  1.0000
  Fe  Fe50      1.0  0.8125302573378153  0.7576603553256396  0.3126992413192125  1.0000
  S   S99       1.0  0.8240608932433006  0.7843174940090456  0.281810411073508  1.0000
  S   S100      1.0  0.8456926275561762  0.7737428466441433  0.3422194277545253  1.0000
  Fe  Fe51      1.0  0.7583469492792776  0.7861680588881299  0.27879148040922813  1.0000
  S   S101      1.0  0.7216959792254046  0.8339612526114448  0.2683862034711135  1.0000
  Fe  Fe52      1.0  0.8159707793933236  0.7266235178357429  0.26879643817847804  1.0000
  S   S102      1.0  0.8538213140971855  0.7001788525868988  0.2447911484748337  1.0000
  S   S103      1.0  0.7473487835307687  0.7644559194893042  0.3109375773487348  1.0000
  S   S104      1.0  0.8098528602934312  0.6995644670863649  0.29992576906492674  1.0000
  Fe  Fe53      1.0  0.7781258494745645  0.01751902683477513  0.290383580367631  1.0000
  S   S105      1.0  0.7317253994868693  0.9917679711392028  0.31053182834758625  1.0000
  S   S106      1.0  0.8182651392135862  0.9830423229909488  0.2710685840703291  1.0000
  Fe  Fe54      1.0  0.7549337707767603  0.09603205206746424  0.3013149943228054  1.0000
  S   S107      1.0  0.7070333050769678  0.07736888742239922  0.3227096588384541  1.0000
  S   S108      1.0  0.7622559660232432  0.15568577073361833  0.2921619055841366  1.0000
  Fe  Fe55      1.0  0.7508293707889018  0.035536305511018274  0.33375452194063565  1.0000
  S   S109      1.0  0.7592809466200465  0.02082663912430527  0.3675839844971804  1.0000
  Fe  Fe56      1.0  0.69262750535979  0.03560162224018182  0.2974845419607413  1.0000
  S   S110      1.0  0.6329579606843421  0.027292980428105462  0.2826110838724626  1.0000
  S   S111      1.0  0.8002911448830148  0.058179584754034286  0.3145714364301544  1.0000
  S   S112      1.0  0.737626614901614  0.057242984320917456  0.27525407297801097  1.0000
  Fe  Fe57      1.0  0.0011634660348212034  0.012790242222225023  0.44675790851965236  1.0000
  S   S113      1.0  0.9838386383572691  0.9830740881208737  0.4759381748337389  1.0000
  S   S114      1.0  0.04982639462749949  0.055644910968918326  0.4480296095978097  1.0000
  Fe  Fe58      1.0  0.946210683752032  0.9661209852814651  0.41901885448673354  1.0000
  S   S115      1.0  0.9250224552933412  0.9319244510397379  0.4456687522657136  1.0000
  S   S116      1.0  0.9254714735598998  0.952457920949256  0.38635126193918196  1.0000
  Fe  Fe59      1.0  0.9227222807503634  0.9864979913345021  0.46282042306439064  1.0000
  S   S117      1.0  0.8707823938408612  0.9968373225938919  0.48318914979454786  1.0000
  Fe  Fe60      1.0  0.988094430167814  0.931923387206088  0.45606302553622047  1.0000
  S   S118      1.0  0.022338629977107782  0.882096033692681  0.46539268793963307  1.0000
  S   S119      1.0  0.9392659795657742  0.021164284563745417  0.4351804407518013  1.0000
  S   S120      1.0  0.00971197825439285  0.9613094653174915  0.4277138644227947  1.0000
  Fe  Fe61      1.0  0.932324138356947  0.6363859558441088  0.41234619546469437  1.0000
  S   S121      1.0  0.9048662381695644  0.6411327399019429  0.44388334235698435  1.0000
  S   S122      1.0  0.903753945536036  0.6236425948414238  0.38137796396755885  1.0000
  Fe  Fe62      1.0  0.013033959216230961  0.6602678046492373  0.42754614344933295  1.0000
  S   S123      1.0  0.9937389988834305  0.6683302558994801  0.46070912647458767  1.0000
  S   S124      1.0  0.07069042216568566  0.6681232635181474  0.4113821498620351  1.0000
  Fe  Fe63      1.0  0.9599347593849893  0.6148415865503287  0.45579384638669607  1.0000
  S   S125      1.0  0.9634066896195703  0.5734673864854515  0.48184792101986124  1.0000
  Fe  Fe64      1.0  0.9402036885575077  0.6939487399601255  0.44655497187871507  1.0000
  S   S126      1.0  0.9091713942505825  0.743309841645221  0.4593131546112287  1.0000
  S   S127      1.0  0.9838902398812104  0.6043580669539915  0.42387352298798425  1.0000
  S   S128      1.0  0.9628987201188915  0.6916908296221277  0.4140174844053028  1.0000
  Fe  Fe65      1.0  0.8174292623370287  0.6610904774606231  0.6808033057998116  1.0000
  S   S129      1.0  0.7950328820243167  0.6170915623877692  0.7021282308874025  1.0000
  S   S130      1.0  0.879523893981731  0.6555915738512011  0.6706957405847875  1.0000
  Fe  Fe66      1.0  0.7428874759777458  0.7055874236234317  0.6835143767467988  1.0000
  S   S131      1.0  0.7134136130392755  0.6646367179195135  0.7046140522540364  1.0000
  S   S132      1.0  0.7142677401796897  0.7589903516042351  0.6743864050113296  1.0000
  Fe  Fe67      1.0  0.7717192200191634  0.6640037881050268  0.721059640983128  1.0000
  S   S133      1.0  0.7769918994231934  0.6728314762297659  0.7555824978281075  1.0000
  Fe  Fe68      1.0  0.7393849355410803  0.6216891465231876  0.6834686397508374  1.0000
  S   S134      1.0  0.7115035058098869  0.5668546901930441  0.6747766087440945  1.0000
  S   S135      1.0  0.7997858416794655  0.707661565859063  0.7014883350463837  1.0000
  S   S136      1.0  0.7633535949109476  0.662699249202449  0.6605208099340596  1.0000
  Fe  Fe69      1.0  0.5298289652957497  0.5823882775554262  0.7426298622979138  1.0000
  S   S137      1.0  0.523920549053592  0.6348685664781649  0.7244073603169644  1.0000
  S   S138      1.0  0.5784232238340568  0.5413792867928132  0.740736107364237  1.0000
  Fe  Fe70      1.0  0.45616442907494736  0.5959278120369175  0.7673599719373165  1.0000
  S   S139      1.0  0.4436400033889222  0.6498454902601292  0.7515362184756604  1.0000
  S   S140      1.0  0.4202472944747568  0.5682204190849147  0.7918541411724451  1.0000
  Fe  Fe71      1.0  0.46017078996799415  0.619176385178805  0.7223977440689819  1.0000
  S   S141      1.0  0.4274732237739658  0.6233874303939713  0.6919318518288571  1.0000
  Fe  Fe72      1.0  0.508555717665312  0.6603439390318321  0.7551570158328078  1.0000
  S   S142      1.0  0.5347502551458059  0.7147253159334721  0.7659714203977095  1.0000
  S   S143      1.0  0.4671567776910417  0.5641723385223959  0.7380084347727585  1.0000
  S   S144      1.0  0.5196153171362458  0.609152470042065  0.7736945913092415  1.0000
  Fe  Fe73      1.0  0.8164261439409037  0.5123838038780494  0.5611102045485896  1.0000
  S   S145      1.0  0.873123510580101  0.4862979695433363  0.5705174352927612  1.0000
  S   S146      1.0  0.812524364926239  0.5581084225149746  0.5374782488780927  1.0000
  Fe  Fe74      1.0  0.7673185222646659  0.45843508889025275  0.5863450567378514  1.0000
  S   S147      1.0  0.8197073681511154  0.4278851575468627  0.5980738714944663  1.0000
  S   S148      1.0  0.7076562686921999  0.43656975147729904  0.5950524853928755  1.0000
  Fe  Fe75      1.0  0.8468771296093854  0.48457937548400853  0.6024999447786311  1.0000
  S   S149      1.0  0.8855827032674006  0.4951866292622489  0.6307035808250504  1.0000
  Fe  Fe76      1.0  0.8410082420932237  0.4323485994173328  0.5652645139835616  1.0000
  S   S150      1.0  0.8655031640469757  0.38668184553179435  0.5456546615647637  1.0000
  S   S151      1.0  0.7922768189167144  0.515221489083949  0.5936355130811654  1.0000
  S   S152      1.0  0.7863223579133736  0.45826420706742527  0.553051740736137  1.0000
  Fe  Fe77      1.0  0.4401936619983427  0.45750638668178906  0.5649216582237783  1.0000
  S   S153      1.0  0.4574655696453196  0.496637755467126  0.5393345455963278  1.0000
  S   S154      1.0  0.4066025933583268  0.404599921994587  0.5577522208399643  1.0000
  Fe  Fe78      1.0  0.4802303864052657  0.5037056802259268  0.5986940140907412  1.0000
  S   S155      1.0  0.5006019470981059  0.5471047866437605  0.5763745518555748  1.0000
  S   S156      1.0  0.5016155925017697  0.5044659052944116  0.6319472185971018  1.0000
  Fe  Fe79      1.0  0.4403370497080008  0.5410839153299525  0.562023400146975  1.0000
  S   S157      1.0  0.40999130564818914  0.5937567254433388  0.5527834336496463  1.0000
  Fe  Fe80      1.0  0.5160088520856537  0.4993400699459229  0.5556625235690974  1.0000
  S   S158      1.0  0.5732425407007546  0.5028259903120418  0.5385783114261185  1.0000
  S   S159      1.0  0.41818633036489417  0.501753026079425  0.5865177477076142  1.0000
  S   S160      1.0  0.5005222258802239  0.4561495012033768  0.5791257699812183  1.0000
  Fe  Fe81      1.0  0.8097247310702883  0.941401612744152  0.6998691038286411  1.0000
  S   S161      1.0  0.7511099801581382  0.960857482060455  0.710374249506801  1.0000
  S   S162      1.0  0.8261708809800291  0.8845255805053872  0.710176604636795  1.0000
  Fe  Fe82      1.0  0.8272301931812323  0.01154991365599689  0.6756801469819682  1.0000
  S   S163      1.0  0.7699312452808901  0.03659641870972474  0.6840925866421596  1.0000
  S   S164      1.0  0.8648438513858918  0.04853190304168642  0.6559593417246655  1.0000
  Fe  Fe83      1.0  0.7828314348825599  0.015082884532168661  0.7161404285688496  1.0000
  S   S165      1.0  0.7717629609419745  0.052945550016390674  0.7433579035116985  1.0000
  Fe  Fe84      1.0  0.7446708698307236  0.980113018166894  0.6773968300681763  1.0000
  S   S166      1.0  0.6902637383187915  0.9710856897727832  0.6579896146948913  1.0000
  S   S167      1.0  0.8424670938521799  0.9942448223952228  0.708280879662413  1.0000
  S   S168      1.0  0.8008845768366687  0.9563114711755047  0.6662819856772424  1.0000
  Fe  Fe85      1.0  0.48218852412959684  0.8779806572311086  0.6986112382575727  1.0000
  S   S169      1.0  0.49412387155875126  0.9123434208377649  0.7274651750468558  1.0000
  S   S170      1.0  0.5124948380043493  0.8246711914250373  0.6910241522551894  1.0000
  Fe  Fe86      1.0  0.42697551631620617  0.934344726798624  0.6798145028948134  1.0000
  S   S171      1.0  0.4346351750825791  0.9734361880560032  0.7070113420977744  1.0000
  S   S172      1.0  0.3917466663165327  0.948932019157168  0.651179403060756  1.0000
  Fe  Fe87      1.0  0.4979865158238817  0.9602254056538014  0.705500216246386  1.0000
  S   S173      1.0  0.541508485293811  0.006755310213388599  0.7108770450984493  1.0000
  Fe  Fe88      1.0  0.4293109009729233  0.9220714727184744  0.7262352927852249  1.0000
  S   S174      1.0  0.39361898237108783  0.9243712247067073  0.7552648634215554  1.0000
  S   S175      1.0  0.4914740361432523  0.925173168938965  0.6765708613965522  1.0000
  S   S176      1.0  0.41666177428938617  0.8834965378663777  0.6991738370231045  1.0000
  Fe  Fe89      1.0  0.7900340852899592  0.16929841155312664  0.5245558855794311  1.0000
  S   S177      1.0  0.8245137955342  0.1478056576950351  0.5517669345001867  1.0000
  S   S178      1.0  0.8190436672591753  0.16331313933040548  0.4933808497129346  1.0000
  Fe  Fe90      1.0  0.7225976122755136  0.19423222542662064  0.5517653584389909  1.0000
  S   S179      1.0  0.7510848368462811  0.1739190965578464  0.5811177953855362  1.0000
  S   S180      1.0  0.6668714194767523  0.22619476824028917  0.5553517556544777  1.0000
  Fe  Fe91      1.0  0.805962959554752  0.1993449858499667  0.5682877179720367  1.0000
  S   S181      1.0  0.8446088402088475  0.2331118877837299  0.589975405330867  1.0000
  Fe  Fe92      1.0  0.7666915900214839  0.12446547992134614  0.5617950248290681  1.0000
  S   S182      1.0  0.7635271638226381  0.06653002763278404  0.573841140276989  1.0000
  S   S183      1.0  0.7765039184664432  0.22356618953315044  0.5401685352763019  1.0000
  S   S184      1.0  0.7329267562408397  0.1419128762334288  0.5333364034859294  1.0000
  Fe  Fe93      1.0  0.39755670580922464  0.17180012195946853  0.5807554849023154  1.0000
  S   S185      1.0  0.37628998101557654  0.19815869369329422  0.6103617345258184  1.0000
  S   S186      1.0  0.3566585614220915  0.1717899016826191  0.552968666169784  1.0000
  Fe  Fe94      1.0  0.47688819973365415  0.15348439599911515  0.5994581403419665  1.0000
  S   S187      1.0  0.46218125986059894  0.17807272137207097  0.630526524158391  1.0000
  S   S188      1.0  0.5346694896249473  0.12496398027319153  0.59527183276839  1.0000
  Fe  Fe95      1.0  0.4036729482965672  0.1495091323793962  0.6260975051675611  1.0000
  S   S189      1.0  0.37595305834570536  0.12201670135562744  0.6539568654549714  1.0000
  Fe  Fe96      1.0  0.436340488473709  0.22419873112075397  0.6119843628343636  1.0000
  S   S190      1.0  0.4497683228800747  0.28229325005167494  0.6231000795841253  1.0000
  S   S191      1.0  0.42033822103066537  0.12078382854893088  0.5963474714604804  1.0000
  S   S192      1.0  0.4557184724316755  0.20202463859435718  0.5809861348826003  1.0000
  Fe  Fe97      1.0  0.2432176831900903  0.42027596196295636  0.8138135443060006  1.0000
  S   S193      1.0  0.2601227367735125  0.41522334862203425  0.7802171635109717  1.0000
  S   S194      1.0  0.28108160106504215  0.39885959005046334  0.8400391555135558  1.0000
  Fe  Fe98      1.0  0.16049288796644312  0.44614692565270203  0.8031602052624578  1.0000
  S   S195      1.0  0.17007252283389163  0.44341902858321486  0.7686375006750716  1.0000
  S   S196      1.0  0.10289860196534062  0.4523645378166789  0.8193205275229997  1.0000
  Fe  Fe99      1.0  0.2001781568466663  0.3899429732687599  0.7751795947666225  1.0000
  S   S197      1.0  0.18333018919712402  0.33722484073913495  0.7581861598966476  1.0000
  Fe  Fe100     1.0  0.229084248680303  0.4693406773888013  0.776583361210474  1.0000
  S   S198      1.0  0.25539794844075936  0.5137484295417025  0.7562710505602774  1.0000
  S   S199      1.0  0.185932716808492  0.39049632248928207  0.8090580883024423  1.0000
  S   S200      1.0  0.21682012136198855  0.476816138995004  0.8108786504280638  1.0000
  Fe  Fe101     1.0  0.28067610884391203  0.09167099137217233  0.7686707208791348  1.0000
  S   S201      1.0  0.2769894325731216  0.07990459300666757  0.8029644117218846  1.0000
  S   S202      1.0  0.27376510627478245  0.052783740666104695  0.741361304969811  1.0000
  Fe  Fe102     1.0  0.3046081410715569  0.1718462624046667  0.7755462536227858  1.0000
  S   S203      1.0  0.30459800299436157  0.1674803475412725  0.8105013192543629  1.0000
  S   S204      1.0  0.3222661673086234  0.2239551238019996  0.7589366462464232  1.0000
  Fe  Fe103     1.0  0.33333343604810844  0.11269579947701838  0.8052185518042619  1.0000
  S   S205      1.0  0.3821098906402002  0.08869934065682895  0.8243832625624925  1.0000
  Fe  Fe104     1.0  0.24838587744098325  0.13542857660169752  0.8053087937273014  1.0000
  S   S206      1.0  0.1991318798501792  0.14603942498693304  0.8274703898525648  1.0000
  S   S207      1.0  0.33926911420835676  0.12038783424885333  0.7708217665809305  1.0000
  S   S208      1.0  0.24615300519748437  0.14371489435215776  0.7706516660022232  1.0000
  Fe  Fe105     1.0  0.5574112414668022  0.23294492413267145  0.9372034480130694  1.0000
  S   S209      1.0  0.5749892739662149  0.2094191550162138  0.9064068498804161  1.0000
  S   S210      1.0  0.5821830876578082  0.2888306123384576  0.946572091318103  1.0000
  Fe  Fe106     1.0  0.5022221479191015  0.1680279701237747  0.9460836949699654  1.0000
  S   S211      1.0  0.5157446757567159  0.13867543431258725  0.9159890993748752  1.0000
  S   S212      1.0  0.45689819827205674  0.15031456179734157  0.9694512329394244  1.0000
  Fe  Fe107     1.0  0.5781927100106677  0.1555475146456228  0.923616636505744  1.0000
  S   S213      1.0  0.6308511327444902  0.12067799752118878  0.9170873375544121  1.0000
  Fe  Fe108     1.0  0.5113031511672372  0.1952635476107848  0.9017065042298505  1.0000
  S   S214      1.0  0.47947373245777847  0.2138171234635331  0.8726312860451033  1.0000
  S   S215      1.0  0.5652576820404911  0.1804421402714595  0.9550141029660791  1.0000
  S   S216      1.0  0.4932839764600954  0.22330745887728434  0.9312755578902181  1.0000
  Fe  Fe109     1.0  0.4600725804732887  0.5246268185550678  0.9469732560868496  1.0000
  S   S217      1.0  0.4743481044481131  0.5463715008393134  0.9152340317604972  1.0000
  S   S218      1.0  0.4546430870765065  0.5605606087548343  0.9754575142623918  1.0000
  Fe  Fe110     1.0  0.4485068498334963  0.4460153277722614  0.9318564149812767  1.0000
  S   S219      1.0  0.46105918132434254  0.4595520375918815  0.898579356083128  1.0000
  S   S220      1.0  0.4328132704265626  0.3887757529506399  0.9423123204416001  1.0000
  Fe  Fe111     1.0  0.5099095233167252  0.49507473649246075  0.9118847558024288  1.0000
  S   S221      1.0  0.5659055986821248  0.4945168183023868  0.8939684246764413  1.0000
  Fe  Fe112     1.0  0.4245411540119186  0.5094579058097607  0.9043350143785062  1.0000
  S   S222      1.0  0.3840421934058035  0.5295636849714375  0.8793729150907627  1.0000
  S   S223      1.0  0.5011330809082769  0.4766838351620477  0.9449795250960075  1.0000
  S   S224      1.0  0.4065282696004477  0.49240185849547957  0.9363571905621852  1.0000
  Fe  Fe113     1.0  0.9982410543587077  0.21495166814999722  0.7929401080140127  1.0000
  S   S225      1.0  0.9631359353733205  0.17961412923843864  0.7702726677572592  1.0000
  S   S226      1.0  0.05975567187181352  0.23397506342729893  0.785682163438699  1.0000
  Fe  Fe114     1.0  0.9301577987161296  0.2253528552706473  0.8217369229127505  1.0000
  S   S227      1.0  0.8883471979629649  0.1925267357354071  0.8014267259169772  1.0000
  S   S228      1.0  0.9070058328314151  0.24752503394390715  0.8520753782256656  1.0000
  Fe  Fe115     1.0  0.9374623180123656  0.1526075409076465  0.7984561080817841  1.0000
  S   S229      1.0  0.9233073274368506  0.09123055236001955  0.7979392688660357  1.0000
  Fe  Fe116     1.0  0.9161698769439898  0.22139518200035727  0.7745465582048646  1.0000
  S   S230      1.0  0.8792308865378041  0.23172163370591542  0.7459192856647405  1.0000
  S   S231      1.0  0.9779930810761244  0.18327838015779002  0.8209444981302619  1.0000
  S   S232      1.0  0.9530290440400856  0.2594204779392231  0.7951021466162271  1.0000
  Fe  Fe117     1.0  0.8213130325917346  0.4896118990737649  0.7953812494827313  1.0000
  S   S233      1.0  0.8795415507621811  0.489674350877993  0.8118262077397063  1.0000
  S   S234      1.0  0.7762488463605495  0.5270821990184189  0.8088077998728731  1.0000
  Fe  Fe118     1.0  0.8438812364719078  0.4295060793492126  0.7648231663332183  1.0000
  S   S235      1.0  0.90412461434981  0.42346773353503675  0.7788352499846516  1.0000
  S   S236      1.0  0.8221864744517834  0.3966123277402779  0.737027112296174  1.0000
  Fe  Fe119     1.0  0.8732914600706587  0.42777527176813546  0.8094540170440265  1.0000
  S   S237      1.0  0.8810035983432293  0.39098854692906476  0.8371674252397177  1.0000
  Fe  Fe120     1.0  0.9047256465886059  0.48558413373013  0.7797447487255347  1.0000
  S   S238      1.0  0.9585374641146837  0.5161630428108027  0.7689393706688991  1.0000
  S   S239      1.0  0.8128358085530918  0.4280295951605502  0.7954006094248406  1.0000
  S   S240      1.0  0.8467803569245503  0.491506989409085  0.7632419474468898  1.0000
  Fe  Fe121     1.0  0.7812961388180162  0.415094514422246  0.94814863792717  1.0000
  S   S241      1.0  0.7729379835346504  0.463523577418088  0.9270286680056797  1.0000
  S   S242      1.0  0.7609574156950666  0.3582909988447363  0.9377026482394484  1.0000
  Fe  Fe122     1.0  0.821134566468295  0.4614843136928394  0.9820786450747134  1.0000
  S   S243      1.0  0.8162387119701234  0.5144343813668181  0.9641519265359837  1.0000
  S   S244      1.0  0.8514841478838314  0.45855567773057004  0.013269564085447438  1.0000
  Fe  Fe123     1.0  0.7554363902852311  0.49357812120181543  0.9560747526881717  1.0000
  S   S245      1.0  0.7040158161498442  0.53157930533105  0.9574850421240754  1.0000
  Fe  Fe124     1.0  0.8341547589620231  0.47984474143070105  0.9368468373207006  1.0000
  S   S246      1.0  0.8779249336219686  0.5008471741378452  0.9139411580603728  1.0000
  S   S247      1.0  0.7585420091911463  0.4434932086863621  0.9766545165060597  1.0000
  S   S248      1.0  0.8446238955160573  0.42853541212026985  0.9552454145486142  1.0000
  Fe  Fe125     1.0  0.869836110022622  0.18933744580297893  0.9729627608378386  1.0000
  S   S249      1.0  0.819857642585684  0.16552938947627707  0.9538595455166375  1.0000
  S   S250      1.0  0.8827708528376051  0.24995425643032615  0.9780269475634102  1.0000
  Fe  Fe126     1.0  0.8999465756798452  0.11396411115014751  0.9854118310018128  1.0000
  S   S251      1.0  0.8527549024431686  0.08273268159476581  0.9674163661031555  1.0000
  S   S252      1.0  0.9512953043183031  0.0907701915900831  0.003130588095937359  1.0000
  Fe  Fe127     1.0  0.8640471984166057  0.12498384232665201  0.9425028576840039  1.0000
  S   S253      1.0  0.8695195196250866  0.1090637312413266  0.9087739496265421  1.0000
  Fe  Fe128     1.0  0.8125766125806589  0.12586229089819495  0.9803157704226367  1.0000
  S   S254      1.0  0.7519442891935587  0.11516836230266836  0.9923933875987092  1.0000
  S   S255      1.0  0.9149273105148555  0.15239377536595364  0.9592562102721442  1.0000
  S   S256      1.0  0.8588166266621079  0.1533501871314701  0.0006969042220870136  1.0000
  C   C1        1.0  0.7925353571996301  0.32683594605469984  0.9495856134213417  1.0000
  C   C2        1.0  0.798036129250285  0.29173303067373557  0.940669211401623  1.0000
  C   C3        1.0  0.8251333650578169  0.26748955799482393  0.949637827960621  1.0000
  C   C4        1.0  0.8466690060969714  0.27842706610023515  0.967483989716889  1.0000
  C   C5        1.0  0.84103218166003  0.3134764583859987  0.9763569557129679  1.0000
  C   C6        1.0  0.8137127129965495  0.3374991659744329  0.9675447360130491  1.0000
  H   H1        1.0  0.7823753364872387  0.28375085552555274  0.9264798248085485  1.0000
  H   H2        1.0  0.8305224295527729  0.24103016170791114  0.9422677948132797  1.0000
  H   H3        1.0  0.8577491151840737  0.32205439757044013  0.9901272927632025  1.0000
  H   H4        1.0  0.8090257386941956  0.3642630269170662  0.9747786161377197  1.0000
  C   C7        1.0  0.8827490442624882  0.41979938665854005  0.859250025923748  1.0000
  C   C8        1.0  0.8593105655425415  0.4114469892734835  0.8764147026624058  1.0000
  C   C9        1.0  0.8587027913592696  0.43582546235569203  0.8935741116377717  1.0000
  C   C10       1.0  0.8813139777154168  0.4686630891831228  0.893472802658238  1.0000
  C   C11       1.0  0.9053912540799623  0.47654807705913566  0.8765127288154487  1.0000
  C   C12       1.0  0.906159336027635  0.45206711513069203  0.8594134091915624  1.0000
  H   H5        1.0  0.8408175845255047  0.3867378137518457  0.8761922212457909  1.0000
  H   H6        1.0  0.8402339499623722  0.4294391582267933  0.9066901230479577  1.0000
  H   H7        1.0  0.923148345311367  0.5017674305922162  0.8764637731122109  1.0000
  H   H8        1.0  0.9249822043408789  0.45815631470123547  0.8463479594178316  1.0000
  C   C13       1.0  0.8956309435730819  0.20937424434070154  0.867918537813237  1.0000
  C   C14       1.0  0.9022589759683379  0.17335726829510006  0.8606616155762473  1.0000
  C   C15       1.0  0.8950119265628362  0.14287713926359472  0.8735097320917428  1.0000
  C   C16       1.0  0.8799475254682931  0.1480460904289585  0.8934792694993212  1.0000
  C   C17       1.0  0.872703715854696  0.18404598781573814  0.9007445712465606  1.0000
  C   C18       1.0  0.8803128042281767  0.21470036320414246  0.8878880967626209  1.0000
  H   H9        1.0  0.9132933588123859  0.16874355408056707  0.8452059523043827  1.0000
  H   H10       1.0  0.9017453425010609  0.11531000171204106  0.8680539164148442  1.0000
  H   H11       1.0  0.861080012589267  0.1882471750805835  0.9161772246931239  1.0000
  H   H12       1.0  0.874228513610929  0.24234547873175963  0.893394194555372  1.0000
  C   C19       1.0  0.8635802029783727  0.27750628033119806  0.743478825453269  1.0000
  C   C20       1.0  0.8713735117938345  0.30338547805210836  0.759400963320369  1.0000
  C   C21       1.0  0.8577960994635669  0.33971165680262877  0.757607421610384  1.0000
  C   C22       1.0  0.8374821453542923  0.35060444231627247  0.7396028911487424  1.0000
  C   C23       1.0  0.829671742705986  0.32467539794872663  0.7236276224290411  1.0000
  C   C24       1.0  0.8425150254233708  0.28804663328378105  0.7256278340345637  1.0000
  H   H13       1.0  0.8877181470718642  0.2953382037261487  0.7731093102428773  1.0000
  H   H14       1.0  0.8628254546882266  0.35913875333582096  0.7702483514486416  1.0000
  H   H15       1.0  0.8138097565464708  0.3328863982209081  0.7097150553716151  1.0000
  H   H16       1.0  0.8364032709772565  0.2680063974199342  0.7132743513354891  1.0000
  C   C25       1.0  0.6049647182629823  0.5086825680123069  0.9103383905464435  1.0000
  C   C26       1.0  0.5976914188543951  0.5275867090546097  0.9290193596299388  1.0000
  C   C27       1.0  0.6286294527370055  0.5356605641763051  0.9430748465593596  1.0000
  C   C28       1.0  0.6667191642519968  0.5242511798241895  0.9386702633787455  1.0000
  C   C29       1.0  0.6741059775251829  0.5061642849496827  0.919724914395298  1.0000
  C   C30       1.0  0.6433293844188144  0.4987931408433884  0.9054344049797022  1.0000
  H   H17       1.0  0.568145269887183  0.5356285006685875  0.9327913866707839  1.0000
  H   H18       1.0  0.6228359570858663  0.5499653000255197  0.957630724891028  1.0000
  H   H19       1.0  0.7033289564758092  0.49763197809523774  0.9161032676249866  1.0000
  H   H20       1.0  0.6489501386384601  0.4841242509385671  0.890984985741036  1.0000
  C   C31       1.0  0.6634718451162107  0.1154253117048741  0.9383001395148882  1.0000
  C   C32       1.0  0.6507014426944396  0.11891940095286964  0.9588984220623531  1.0000
  C   C33       1.0  0.6777937880648671  0.11737130614181102  0.9755756927028483  1.0000
  C   C34       1.0  0.7177456783905972  0.11264363655734444  0.9716716244217377  1.0000
  C   C35       1.0  0.7303541650204675  0.10812371890575193  0.9511043185245889  1.0000
  C   C36       1.0  0.7032270754108536  0.10939378118486205  0.9344597532431337  1.0000
  H   H21       1.0  0.6199282555906941  0.12241532932747022  0.9620027814902278  1.0000
  H   H22       1.0  0.667907574893304  0.12046748188385147  0.9914812141343682  1.0000
  H   H23       1.0  0.7610535975552454  0.10376876299953496  0.9479928865810203  1.0000
  H   H24       1.0  0.713198049390445  0.10639642996771016  0.9185628882173934  1.0000
  C   C37       1.0  0.541821825768904  0.31808378145978955  0.9467305416877061  1.0000
  C   C38       1.0  0.5079568535299263  0.307808602303152  0.957504544648865  1.0000
  C   C39       1.0  0.4747444979615624  0.3301580438102515  0.9565930029970648  1.0000
  C   C40       1.0  0.47547308562382995  0.3628466400056366  0.9449641483052196  1.0000
  C   C41       1.0  0.5095507046091838  0.3733873035634472  0.934384454849696  1.0000
  C   C42       1.0  0.5425505577630312  0.3506993627719283  0.9350643717638247  1.0000
  H   H25       1.0  0.5072041321471428  0.2823737921766401  0.9663990306057394  1.0000
  H   H26       1.0  0.4483361512455895  0.32181144576415405  0.9646634817802557  1.0000
  H   H27       1.0  0.509972341234751  0.3982474331079436  0.9250270672080666  1.0000
  H   H28       1.0  0.5681128201683663  0.35762026388604434  0.9259524773514607  1.0000
  C   C43       1.0  0.0974966175110239  0.20829118777771188  0.79726096773568  1.0000
  C   C44       1.0  0.13448749687244632  0.20866835021413183  0.7880585965583045  1.0000
  C   C45       1.0  0.1655944823269288  0.18938155463342884  0.7971932514645788  1.0000
  C   C46       1.0  0.1599655977171575  0.16967050153152008  0.8156710165046949  1.0000
  C   C47       1.0  0.12308227781068885  0.1697389763086646  0.8251024484345048  1.0000
  C   C48       1.0  0.0917822123926415  0.1888074382358986  0.8158296053413174  1.0000
  H   H29       1.0  0.13898942714894824  0.22378999156220994  0.7737467022733401  1.0000
  H   H30       1.0  0.1940247550210444  0.1904536660432486  0.7900683871215888  1.0000
  H   H31       1.0  0.1185602189187786  0.15473568941055243  0.8394697050488312  1.0000
  H   H32       1.0  0.06347208807091342  0.18877546057588895  0.8232036653654339  1.0000
  C   C49       1.0  0.4103922819303986  0.12330778693299971  0.8371422560322295  1.0000
  C   C50       1.0  0.4069557928240365  0.16053032509169501  0.831501046243547  1.0000
  C   C51       1.0  0.42860132638761317  0.18814635523701112  0.8423620229956672  1.0000
  C   C52       1.0  0.4535794704101076  0.1786040781002706  0.8589383962324051  1.0000
  C   C53       1.0  0.4573918915225038  0.14130585866329137  0.8643584310332708  1.0000
  C   C54       1.0  0.4359823493163548  0.11364952712939208  0.8533948824912471  1.0000
  H   H33       1.0  0.3881079844722599  0.16808032877199325  0.8185907034855999  1.0000
  H   H34       1.0  0.4260326911857273  0.21689300904418948  0.8378763012889657  1.0000
  H   H35       1.0  0.4770797579835469  0.13366073646731258  0.876849523804274  1.0000
  H   H36       1.0  0.4391171957756443  0.0848298353378035  0.8576527939404531  1.0000
  C   C55       1.0  0.06362167494924309  0.47014351199805343  0.8047520399802706  1.0000
  C   C56       1.0  0.06962105794105988  0.48960029240242203  0.7861865099151619  1.0000
  C   C57       1.0  0.03736766732862762  0.5040746910555939  0.7751914034523417  1.0000
  C   C58       1.0  0.9991521529290674  0.4983726305995204  0.7825351004052665  1.0000
  C   C59       1.0  0.9932848221651045  0.4781316139871864  0.800808996152666  1.0000
  C   C60       1.0  0.02543531105193675  0.4644456499737169  0.8120005308811235  1.0000
  H   H37       1.0  0.0990985498480994  0.49419350236028375  0.7805646558995373  1.0000
  H   H38       1.0  0.04205854982473589  0.5195813843111378  0.7610151216541448  1.0000
  H   H39       1.0  0.9639981522010276  0.4735574280689766  0.8066111656375881  1.0000
  H   H40       1.0  0.020670687255917697  0.4493981548206693  0.8263402966029562  1.0000
  C   C61       1.0  0.3106937628895027  0.43475451421206224  0.8507141725766265  1.0000
  C   C62       1.0  0.3329658110204423  0.4287548906082332  0.8688890572200051  1.0000
  C   C63       1.0  0.3559691928840457  0.4577410138384531  0.8776935205660218  1.0000
  C   C64       1.0  0.3566981617043077  0.4926718154306391  0.868269203628625  1.0000
  C   C65       1.0  0.3347096521217184  0.4985568733734526  0.8500615015824262  1.0000
  C   C66       1.0  0.3118036759176057  0.469613736299843  0.8413007998937143  1.0000
  H   H41       1.0  0.3319548653031327  0.40188425060763305  0.8762913637427935  1.0000
  H   H42       1.0  0.3725636476002585  0.4531599312010689  0.89192028013152  1.0000
  H   H43       1.0  0.33528458121939364  0.5255079159321663  0.8426841967402714  1.0000
  H   H44       1.0  0.29507960903504754  0.47428620184867537  0.8271988555675306  1.0000
  C   C67       1.0  0.22236125379468002  0.3064305543335652  0.7558145110348857  1.0000
  C   C68       1.0  0.2613750698628927  0.3191350358292868  0.7567881320610185  1.0000
  C   C69       1.0  0.292108471304969  0.29367644806933046  0.7568115877758155  1.0000
  C   C70       1.0  0.28380041991738636  0.2554676719895043  0.7564624829185049  1.0000
  C   C71       1.0  0.24480573221772442  0.24289162461221206  0.7548068939333362  1.0000
  C   C72       1.0  0.21422235269366827  0.26835212854913426  0.7540576392979176  1.0000
  H   H45       1.0  0.26795359235805494  0.3485091968469746  0.7574314654972529  1.0000
  H   H46       1.0  0.32225199013906575  0.303590602950046  0.757788095088493  1.0000
  H   H47       1.0  0.23799194142203683  0.2136490303617946  0.7539087252478824  1.0000
  H   H48       1.0  0.184119375343658  0.2584839930528809  0.7527975228031512  1.0000
  C   C73       1.0  0.6303407886393411  0.19813675160470462  0.566649346386409  1.0000
  C   C74       1.0  0.6345461071772883  0.15961871757375143  0.5675307740526317  1.0000
  C   C75       1.0  0.6048229555299737  0.13735423718756434  0.5761789961277288  1.0000
  C   C76       1.0  0.5710800793445184  0.15351932505173643  0.5842302318880447  1.0000
  C   C77       1.0  0.5671168241559247  0.19211768947275576  0.5836514447444308  1.0000
  C   C78       1.0  0.5967353398682147  0.2143828383418238  0.5748299094457064  1.0000
  H   H49       1.0  0.6603297375176285  0.1468840774850244  0.5611577752665458  1.0000
  H   H50       1.0  0.6076261740493676  0.10749637346288773  0.5762512878521966  1.0000
  H   H51       1.0  0.5415244975672847  0.20479289136541537  0.5902576494950118  1.0000
  H   H52       1.0  0.5939289892826389  0.2441865168928522  0.5745799906826603  1.0000
  C   C79       1.0  0.3551940241587612  0.9554189632476516  0.751424285332869  1.0000
  C   C80       1.0  0.34330120250787416  0.9649717951848571  0.7311835685171643  1.0000
  C   C81       1.0  0.316962118880964  0.9939961722469353  0.7281277141238262  1.0000
  C   C82       1.0  0.3028715834047062  0.013746903706392644  0.745304090268093  1.0000
  C   C83       1.0  0.31379597623185834  0.003375588732653423  0.7655454752142641  1.0000
  C   C84       1.0  0.3394431113095447  0.9738623664586818  0.768615783267594  1.0000
  H   H53       1.0  0.3546713519270822  0.9502441147899546  0.7178418356477553  1.0000
  H   H54       1.0  0.30837533885010715  0.0017409417804414846  0.7124414712187759  1.0000
  H   H55       1.0  0.3025142084059201  0.01806346249504709  0.7788622813336392  1.0000
  H   H56       1.0  0.34816812526556684  0.9662397351316915  0.7842930101157026  1.0000
  C   C85       1.0  0.37835626719088344  0.9957318721482997  0.6515688785365138  1.0000
  C   C86       1.0  0.3727436584155326  0.014259985031038315  0.6705456844726223  1.0000
  C   C87       1.0  0.37023475379792836  0.053047337362760676  0.6711009567440902  1.0000
  C   C88       1.0  0.37272855157237345  0.07335609828860301  0.6526037897487119  1.0000
  C   C89       1.0  0.3745800310818313  0.054563873664818185  0.6334504817609625  1.0000
  C   C90       1.0  0.3774864012776607  0.015725325423225245  0.6329207544870311  1.0000
  H   H57       1.0  0.3707876446301322  0.9987295444134753  0.6848356244508604  1.0000
  H   H58       1.0  0.3677259164955521  0.06720977742592749  0.6859628705654595  1.0000
  H   H59       1.0  0.37459039423321655  0.06991988334659238  0.619066654274394  1.0000
  H   H60       1.0  0.38092569314855346  0.0013791813384673723  0.6181512229778156  1.0000
  C   C91       1.0  0.8133192309888024  0.062094434539759824  0.759151295199806  1.0000
  C   C92       1.0  0.8447021947811656  0.03757046070450332  0.7599002364877145  1.0000
  C   C93       1.0  0.8783978238835906  0.04648851409615751  0.7719247078176648  1.0000
  C   C94       1.0  0.8809350787450685  0.08011923821126272  0.783040359670301  1.0000
  C   C95       1.0  0.8489955284709514  0.10396083505658875  0.7827326550791355  1.0000
  C   C96       1.0  0.81526408833693  0.09495571707799089  0.7709010524209262  1.0000
  H   H61       1.0  0.8428272363282556  0.011460618525470201  0.7515154257060177  1.0000
  H   H62       1.0  0.9026697291086327  0.027504200274960144  0.7724165286119424  1.0000
  H   H63       1.0  0.8497243177599128  0.1290220987395532  0.7919122722170531  1.0000
  H   H64       1.0  0.7908347535620678  0.11376849935690592  0.7706079090678778  1.0000
  C   C97       1.0  0.8402032707160171  0.053054882079546895  0.6319423198674028  1.0000
  C   C98       1.0  0.8396611782093889  0.08730059380437946  0.6217731521739613  1.0000
  C   C99       1.0  0.8165788717094018  0.09156017267706508  0.6036501601712249  1.0000
  C   C100      1.0  0.7946074984989735  0.06137070358828667  0.5955574940431463  1.0000
  C   C101      1.0  0.7964170068194926  0.026886239611578322  0.6052711659107024  1.0000
  C   C102      1.0  0.8189742664542433  0.022825149666392486  0.6234878211558356  1.0000
  H   H65       1.0  0.8560022660602853  0.1108180597832602  0.6282684185831477  1.0000
  H   H66       1.0  0.8153166397984126  0.11836203989775179  0.5962112986031716  1.0000
  H   H67       1.0  0.7798175610141432  0.0033911486929025787  0.5989277489501248  1.0000
  H   H68       1.0  0.8201704577788591  0.9961095108794924  0.6308774450710141  1.0000
  C   C103      1.0  0.6492159248333026  0.9839633610432084  0.6720837133583246  1.0000
  C   C104      1.0  0.6534940412145969  0.0010598783375945775  0.691693733849936  1.0000
  C   C105      1.0  0.6201858638604311  0.009414866890390838  0.7033369340727934  1.0000
  C   C106      1.0  0.5827916695667958  0.00010697612097065878  0.6954717892005081  1.0000
  C   C107      1.0  0.5786419513912685  0.9842465105178912  0.6755470047585157  1.0000
  C   C108      1.0  0.6118152893964272  0.9765119879433537  0.6637469805916671  1.0000
  H   H69       1.0  0.6823979811832638  0.00751067834269592  0.6980475766253235  1.0000
  H   H70       1.0  0.6234910827735374  0.02195993648643535  0.7187088890873382  1.0000
  H   H71       1.0  0.5499097346206099  0.977713089441798  0.6692431988116078  1.0000
  H   H72       1.0  0.608532598332778  0.9636174606330766  0.6484692941983026  1.0000
  C   C109      1.0  0.41256184198131496  0.3719197347710602  0.577683365577581  1.0000
  C   C110      1.0  0.39851178632906614  0.3354192978237732  0.5747614745434563  1.0000
  C   C111      1.0  0.40822408240223895  0.30782598554492946  0.5892197203074121  1.0000
  C   C112      1.0  0.4316094963203362  0.3169322777919669  0.6067220967232811  1.0000
  C   C113      1.0  0.44372072326325507  0.35380114529096524  0.610222035990309  1.0000
  C   C114      1.0  0.43415063131671117  0.38126084838271496  0.5957451105120283  1.0000
  H   H73       1.0  0.3813191743639343  0.32819713869923745  0.560934946738371  1.0000
  H   H74       1.0  0.39849882672058123  0.27939183369685844  0.5865418985493674  1.0000
  H   H75       1.0  0.4614915805960263  0.3609692135393405  0.6238520253975777  1.0000
  H   H76       1.0  0.4439173245108893  0.409563692761146  0.5984913719042555  1.0000
  C   C115      1.0  0.8657541904218822  0.3437653440049609  0.5582411095563361  1.0000
  C   C116      1.0  0.8670047808234146  0.3417612846793587  0.5800564834775559  1.0000
  C   C117      1.0  0.862733555273174  0.3072883376605154  0.5898817920966655  1.0000
  C   C118      1.0  0.8571650305121685  0.27494528699643367  0.577860717445595  1.0000
  C   C119      1.0  0.8578842532525672  0.27683566594638565  0.5560668481745344  1.0000
  C   C120      1.0  0.8622710081843641  0.3112209098396383  0.5462542821398849  1.0000
  H   H77       1.0  0.8708844946415173  0.36673103351046465  0.5893693077823866  1.0000
  H   H78       1.0  0.8624887029764583  0.30582089930431267  0.6067608576896711  1.0000
  H   H79       1.0  0.8548570117279024  0.25176203314808976  0.5467463931673502  1.0000
  H   H80       1.0  0.8617646421269569  0.3126259598784138  0.5293736238204391  1.0000
  C   C121      1.0  0.6713473873316274  0.4535380509707892  0.578207525261004  1.0000
  C   C122      1.0  0.633618220578891  0.4376462550032671  0.5784362147666028  1.0000
  C   C123      1.0  0.6037049318318715  0.4521891015280517  0.5658892137735285  1.0000
  C   C124      1.0  0.6113383118808919  0.4826785968797992  0.5530809774326888  1.0000
  C   C125      1.0  0.6494353927051892  0.4978194100069407  0.5523460688149627  1.0000
  C   C126      1.0  0.6794118207289322  0.48337379317938833  0.5649841272413744  1.0000
  H   H81       1.0  0.6273982016687069  0.41423995789868967  0.5884244476658145  1.0000
  H   H82       1.0  0.5748962985592975  0.4394154975406732  0.5659064780117335  1.0000
  H   H83       1.0  0.6556153693610772  0.5212612980503358  0.5423709547334225  1.0000
  H   H84       1.0  0.7085348066497499  0.4958114670416893  0.5647296264320282  1.0000
  C   C127      1.0  0.3742676048293384  0.5536573442497014  0.7819935217352395  1.0000
  C   C128      1.0  0.3533569080213538  0.5254637528510505  0.7921377008656248  1.0000
  C   C129      1.0  0.316788905415472  0.5131862239344749  0.7842378765836266  1.0000
  C   C130      1.0  0.300681310561751  0.5296043518390163  0.7664675636539681  1.0000
  C   C131      1.0  0.3213872431887249  0.5581170284504334  0.7564388460437761  1.0000
  C   C132      1.0  0.358464524422213  0.5697862069826004  0.7640114621740018  1.0000
  H   H85       1.0  0.36556003738843523  0.5127623790827305  0.8059579103807788  1.0000
  H   H86       1.0  0.30103585838759905  0.4909642112386975  0.7918571072501953  1.0000
  H   H87       1.0  0.3085987128952979  0.5712452024538592  0.7429033085924809  1.0000
  H   H88       1.0  0.374386911153695  0.5917881772025282  0.7562348766243125  1.0000
  C   C133      1.0  0.5224404923935345  0.7962365371618295  0.7124431171039992  1.0000
  C   C134      1.0  0.5123978551846108  0.8069449765541054  0.7327115388199364  1.0000
  C   C135      1.0  0.5176777300490427  0.7823432757497872  0.7493525890529675  1.0000
  C   C136      1.0  0.5322236219839197  0.7468246531590235  0.7456344105773978  1.0000
  C   C137      1.0  0.5431975695167293  0.7365637654079236  0.725453230897702  1.0000
  C   C138      1.0  0.5387893744579823  0.7614276290479701  0.7089319103518813  1.0000
  H   H89       1.0  0.49954104584660397  0.8336739328828962  0.7355472733536439  1.0000
  H   H90       1.0  0.509137494225162  0.7903268527543638  0.7649708788654369  1.0000
  H   H91       1.0  0.5552808615088783  0.7095335017563122  0.7225446963695329  1.0000
  H   H92       1.0  0.546989382664612  0.7532006819780793  0.6932988091088689  1.0000
  C   C139      1.0  0.4484783279684341  0.5916218885277948  0.6745923095287771  1.0000
  C   C140      1.0  0.4328836005932545  0.5861349454511587  0.6544186067025026  1.0000
  C   C141      1.0  0.44925067828396736  0.5596151465969785  0.6409897257005707  1.0000
  C   C142      1.0  0.48078427896901194  0.538331170048171  0.6479169390762827  1.0000
  C   C143      1.0  0.4961505136415936  0.5438320310820894  0.6680743544591689  1.0000
  C   C144      1.0  0.48037495243425393  0.5706925596608423  0.6812522338085517  1.0000
  H   H93       1.0  0.40826284643031174  0.6023201353470127  0.6491485852920827  1.0000
  H   H94       1.0  0.4373453740004449  0.5554844323797863  0.6253721222427497  1.0000
  H   H95       1.0  0.5204188425069645  0.527363397912662  0.6735479526646824  1.0000
  H   H96       1.0  0.4930845107077208  0.5749857487907263  0.6965898010579782  1.0000
  C   C145      1.0  0.7757159320023225  0.63200078409941  0.7700338887434066  1.0000
  C   C146      1.0  0.7730061533444014  0.6342681321159788  0.7917837566682742  1.0000
  C   C147      1.0  0.7719374008610806  0.6018313843958444  0.8036642185909385  1.0000
  C   C148      1.0  0.774513326396785  0.5672105651044591  0.7937965430026694  1.0000
  C   C149      1.0  0.7767821846673835  0.5649099389646587  0.7720254852954016  1.0000
  C   C150      1.0  0.7770013523378799  0.5973351365604878  0.7601128103109903  1.0000
  H   H97       1.0  0.7718916132686096  0.6611281974005778  0.7994541671902613  1.0000
  H   H98       1.0  0.7702692761465999  0.6036414198926575  0.8205003023288169  1.0000
  H   H99       1.0  0.7775433126353531  0.5380739001201117  0.7643655891189005  1.0000
  H   H100      1.0  0.7780473768031114  0.595385474037009  0.7433271421583576  1.0000
  C   C151      1.0  0.7391691278366977  0.7964925970485918  0.6864630886013647  1.0000
  C   C152      1.0  0.7587751873718211  0.7917565752713517  0.7055417732383854  1.0000
  C   C153      1.0  0.7843305851964298  0.8195912183253838  0.713334997954257  1.0000
  C   C154      1.0  0.7891693473318262  0.8527660089201801  0.7024284116274  1.0000
  C   C155      1.0  0.7666453550181367  0.8589137846879964  0.6843751808664602  1.0000
  C   C156      1.0  0.7419283159523843  0.8306152579974675  0.6762648344393792  1.0000
  H   H101      1.0  0.7545986350789345  0.7664421254428857  0.7142135882635247  1.0000
  H   H102      1.0  0.80083457635855  0.8151571559444452  0.7276361162516005  1.0000
  H   H103      1.0  0.769917395998702  0.8845802796005467  0.6759606464048583  1.0000
  H   H104      1.0  0.7265168858123242  0.8345489371717837  0.661578964429181  1.0000
  C   C157      1.0  0.8820502321857868  0.6121121732697669  0.6582934871639842  1.0000
  C   C158      1.0  0.8485977481251126  0.5964633245340341  0.6485554487424326  1.0000
  C   C159      1.0  0.84998757301418  0.561133144183817  0.6392962331994105  1.0000
  C   C160      1.0  0.8845460767481076  0.540876547496205  0.6402938479928925  1.0000
  C   C161      1.0  0.917833231916287  0.5562028429893631  0.6503956624653872  1.0000
  C   C162      1.0  0.9168034812191307  0.5920708119701895  0.6590827416859109  1.0000
  H   H105      1.0  0.821655022110306  0.6116923575375173  0.6478888945443543  1.0000
  H   H106      1.0  0.824008584568722  0.5493128700995854  0.6318334040408299  1.0000
  H   H107      1.0  0.9445296730727141  0.5404104747501842  0.6513326948197927  1.0000
  H   H108      1.0  0.9426914209378978  0.6039270681869257  0.6666984842007584  1.0000
  C   C163      1.0  0.6730385474878988  0.5590440749283768  0.6920407580102077  1.0000
  C   C164      1.0  0.6711928684296907  0.5260625466678536  0.7033457062612507  1.0000
  C   C165      1.0  0.6416140118139336  0.5206801729836881  0.7180759139005631  1.0000
  C   C166      1.0  0.6130978348092573  0.547673392061373  0.7210016527389492  1.0000
  C   C167      1.0  0.61396328639603  0.5798571614163662  0.7089177739643158  1.0000
  C   C168      1.0  0.6444254257766454  0.585944565114163  0.6947809409269085  1.0000
  H   H109      1.0  0.6932028411789288  0.5051584189778765  0.7011969876727522  1.0000
  H   H110      1.0  0.6409540181835489  0.49566097279971355  0.7273312115031109  1.0000
  H   H111      1.0  0.5915667453844234  0.6003084122855735  0.7105698323465979  1.0000
  H   H112      1.0  0.6454730426101758  0.6112339805241553  0.6857722103381378  1.0000
  C   C169      1.0  0.9211664616515296  0.5692006995718816  0.4970284726756506  1.0000
  C   C170      1.0  0.9250269492436091  0.5599155550274659  0.5181346476638723  1.0000
  C   C171      1.0  0.8916712719435276  0.5559979955449167  0.5305695379482378  1.0000
  C   C172      1.0  0.8543126788234406  0.5612219509903347  0.5219022252508574  1.0000
  C   C173      1.0  0.8504603028616197  0.5706277417868879  0.5007991744629907  1.0000
  C   C174      1.0  0.8838623695943376  0.5744159699193869  0.4883301885448054  1.0000
  H   H113      1.0  0.9539216135744982  0.5562776980148528  0.5249634760310848  1.0000
  H   H114      1.0  0.894971360701099  0.5501089411608714  0.5470087715435106  1.0000
  H   H115      1.0  0.8215653350501085  0.5746780188446468  0.4940541520182745  1.0000
  H   H116      1.0  0.8806530888160742  0.5808403525782622  0.471940359489039  1.0000
  C   C175      1.0  0.85705990478119  0.04326569496307431  0.4857414045915952  1.0000
  C   C176      1.0  0.8219751194390511  0.0514237571269025  0.4958058080698586  1.0000
  C   C177      1.0  0.810536991052006  0.08834414633387483  0.4983532490765578  1.0000
  C   C178      1.0  0.8338723057375264  0.11723954510267302  0.49056708797592935  1.0000
  C   C179      1.0  0.8690884071978414  0.1091499600276581  0.4805478698073268  1.0000
  C   C180      1.0  0.8808263696638712  0.07215472273667767  0.47826132322340376  1.0000
  H   H117      1.0  0.8035517818864031  0.029135416410122517  0.5016674691874301  1.0000
  H   H118      1.0  0.783346196433677  0.09437519362685523  0.5061129142635074  1.0000
  H   H119      1.0  0.8875371877268351  0.13152732468531306  0.4748291075491775  1.0000
  H   H120      1.0  0.9083674962252307  0.06604460774616117  0.47088102918758423  1.0000
  C   C181      1.0  0.9918593167417372  0.8427427891734903  0.46655962298414305  1.0000
  C   C182      1.0  0.9519096235079636  0.8463230318267917  0.4706589062037985  1.0000
  C   C183      1.0  0.9267713960374673  0.8152149741038142  0.4693043925739733  1.0000
  C   C184      1.0  0.9415920098782433  0.7806624054772764  0.4636575587166073  1.0000
  C   C185      1.0  0.9817526872606891  0.776796883246847  0.4601940995529656  1.0000
  C   C186      1.0  0.006949653858717486  0.8078661283552426  0.4617661060344735  1.0000
  H   H121      1.0  0.9403904275995236  0.8730955342583406  0.474860621389239  1.0000
  H   H122      1.0  0.8957092723585832  0.8181866044773696  0.47205757241956864  1.0000
  H   H123      1.0  0.9933195880608058  0.7501960064076125  0.45569857680190906  1.0000
  H   H124      1.0  0.03788457099682918  0.8051159195159152  0.458549484250062  1.0000
  C   C187      1.0  0.805107298243475  0.0009502426800185315  0.37271056160589244  1.0000
  C   C188      1.0  0.8162314317804538  0.9928578392560203  0.39329996695525754  1.0000
  C   C189      1.0  0.8534757525594697  0.9784845756608512  0.3976537494393519  1.0000
  C   C190      1.0  0.8792523238740525  0.9713108366213652  0.3813221355807353  1.0000
  C   C191      1.0  0.8678283516030681  0.9786771431505499  0.3607204906422619  1.0000
  C   C192      1.0  0.8309205693894106  0.9936704199669016  0.3564509533640922  1.0000
  H   H125      1.0  0.7960292830315054  0.997670757346815  0.4058764431453232  1.0000
  H   H126      1.0  0.8620051820899913  0.9724788610108043  0.41360239914962615  1.0000
  H   H127      1.0  0.8878070740614759  0.9733825477628193  0.348071587618933  1.0000
  H   H128      1.0  0.8225045321245708  0.9995857788104205  0.34055603358856773  1.0000
  C   C193      1.0  0.8638723590926424  0.7329320151392613  0.35329210307536635  1.0000
  C   C194      1.0  0.8649560197973739  0.7287278149106631  0.3750070124300733  1.0000
  C   C195      1.0  0.8772283879514999  0.6951408650831917  0.38373624899473874  1.0000
  C   C196      1.0  0.887899605886373  0.665606251064601  0.37072915291638026  1.0000
  C   C197      1.0  0.8871996030471496  0.6700366312084483  0.3490634903889905  1.0000
  C   C198      1.0  0.8760456691661388  0.7038971503061863  0.3404026440363539  1.0000
  H   H129      1.0  0.8551137135108521  0.7508991216453288  0.38504636152993393  1.0000
  H   H130      1.0  0.8772998936139932  0.6917198366610381  0.4005129325471153  1.0000
  H   H131      1.0  0.8959550752969553  0.6475374800979308  0.3389958165737232  1.0000
  H   H132      1.0  0.877385573412538  0.7076964035145332  0.3237388659951296  1.0000
  C   C199      1.0  0.748444474879375  0.8753493949153457  0.26480336749371985  1.0000
  C   C200      1.0  0.7891193905338043  0.8752125888338846  0.2620610093034637  1.0000
  C   C201      1.0  0.8106854946841638  0.9088024290823862  0.262181754014596  1.0000
  C   C202      1.0  0.7914112367686007  0.9423902697841614  0.26506201107378796  1.0000
  C   C203      1.0  0.7504611432234835  0.9425972866181593  0.26611240304051403  1.0000
  C   C204      1.0  0.7289933554999125  0.9091106603709378  0.2660525753131075  1.0000
  H   H133      1.0  0.8040487857352183  0.8492782961559351  0.2601500353310044  1.0000
  H   H134      1.0  0.8423432581535372  0.9085900647823522  0.26107035714886917  1.0000
  H   H135      1.0  0.7352746243886017  0.9685620482062843  0.2675909474426538  1.0000
  H   H136      1.0  0.6974512356233497  0.9094243571215066  0.2678043274428159  1.0000
  C   C205      1.0  0.3847041873720092  0.6103339766877022  0.4832784044187326  1.0000
  C   C206      1.0  0.38973336947556514  0.5744620803755696  0.49106261582445815  1.0000
  C   C207      1.0  0.39712415512964494  0.569065970635353  0.5124369743418241  1.0000
  C   C208      1.0  0.39989453419273396  0.5995651649873901  0.5260636852018047  1.0000
  C   C209      1.0  0.3948553944275596  0.6354234345833816  0.5182757814524729  1.0000
  C   C210      1.0  0.38737241252545435  0.6408243875046264  0.49691117053896605  1.0000
  H   H137      1.0  0.387541335674557  0.5507619173270077  0.48056701539419117  1.0000
  H   H138      1.0  0.40001736387784464  0.5412707705014642  0.5183975590779976  1.0000
  H   H139      1.0  0.3971811644918317  0.6591308201363961  0.5287631702628556  1.0000
  H   H140      1.0  0.3845096593294848  0.6686312710693768  0.49097948241517997  1.0000
  C   C211      1.0  0.17489752855112142  0.7037927645170565  0.45289011066429286  1.0000
  C   C212      1.0  0.18004507772904954  0.6966923912796584  0.43160036329596374  1.0000
  C   C213      1.0  0.14782454417881574  0.6858799089064378  0.41896518034823027  1.0000
  C   C214      1.0  0.11039196846938393  0.6820819167989784  0.4275679559862235  1.0000
  C   C215      1.0  0.10521189654943441  0.6894266554606423  0.4488447311190287  1.0000
  C   C216      1.0  0.13744127174963017  0.7003410403033243  0.46149111976105345  1.0000
  H   H141      1.0  0.2087768597981688  0.699655537393973  0.42478444947052474  1.0000
  H   H142      1.0  0.15196910617474768  0.6803697948393093  0.402503845816921  1.0000
  H   H143      1.0  0.07643887648997971  0.6867568324462752  0.4555649709543892  1.0000
  H   H144      1.0  0.13332214763861808  0.7059730176116611  0.47793790115917695  1.0000
  C   C217      1.0  0.3820238037797373  0.0896352382090361  0.500575442447  1.0000
  C   C218      1.0  0.3516863960011882  0.11499372065647098  0.49846733104928886  1.0000
  C   C219      1.0  0.34495880955841507  0.14097476990254132  0.5143879358837334  1.0000
  C   C220      1.0  0.3685837086297236  0.14173124658500807  0.5324514583061629  1.0000
  C   C221      1.0  0.39965808704337485  0.11706541233237835  0.5343481949472709  1.0000
  C   C222      1.0  0.40640304151429335  0.09105483528371774  0.5183750036093384  1.0000
  H   H145      1.0  0.3335774375779866  0.11483492949026033  0.4845046913094741  1.0000
  H   H146      1.0  0.32119111829183844  0.16034468376993183  0.5128032282065864  1.0000
  H   H147      1.0  0.4181183808474826  0.11766382919060568  0.5482174484076485  1.0000
  H   H148      1.0  0.43004213542352976  0.07156644942184043  0.5200022232324104  1.0000
  C   C223      1.0  0.16102126498091088  0.004963388506424415  0.4753140052563195  1.0000
  C   C224      1.0  0.1263598856400848  0.9836740247134692  0.4738490662783731  1.0000
  C   C225      1.0  0.0919440070969979  0.9993394092056962  0.46582501386362885  1.0000
  C   C226      1.0  0.09174605085973675  0.036671139068968905  0.45987969432579723  1.0000
  C   C227      1.0  0.12611331520613178  0.05828887317658782  0.46211349859291667  1.0000
  C   C228      1.0  0.16089640087678783  0.04227786990230853  0.4693845400624929  1.0000
  H   H149      1.0  0.12628896764760736  0.9547442405690332  0.4782975193589218  1.0000
  H   H150      1.0  0.06579094330365809  0.9822148294901742  0.4640080136231779  1.0000
  H   H151      1.0  0.1260161208007966  0.0873287758904675  0.45794994993406424  1.0000
  H   H152      1.0  0.1874836848834276  0.05898941158123083  0.47057165405175705  1.0000
  C   C229      1.0  0.34333501603035177  0.9059447663305319  0.418403715197211  1.0000
  C   C230      1.0  0.3362164682173747  0.870296374005715  0.41026574693346524  1.0000
  C   C231      1.0  0.3488405851122184  0.8391884351448489  0.4213037559865863  1.0000
  C   C232      1.0  0.36930949860526563  0.8437546967651659  0.4402555452187216  1.0000
  C   C233      1.0  0.3778402683725194  0.8795041526232263  0.44793852486213576  1.0000
  C   C234      1.0  0.36453874473617176  0.9106064054722968  0.4371128441874587  1.0000
  H   H153      1.0  0.3197366180941075  0.8667797225164019  0.39579375917464843  1.0000
  H   H154      1.0  0.3424817013724273  0.8117304604775188  0.41521836985342503  1.0000
  H   H155      1.0  0.39384027760777746  0.8831036962650667  0.462561699970303  1.0000
  H   H156      1.0  0.370794376685151  0.9381105205581463  0.44328127261402195  1.0000
  C   C235      1.0  0.6013584831671687  0.6571022194040345  0.2584193868153943  1.0000
  C   C236      1.0  0.6400179479907714  0.659452726679251  0.2513306186833629  1.0000
  C   C237      1.0  0.6714905104103323  0.6603687556816327  0.2657019406525971  1.0000
  C   C238      1.0  0.6642419464636333  0.6587067672605227  0.2871415915540128  1.0000
  C   C239      1.0  0.6257497789565383  0.6541599376230698  0.2941350520144383  1.0000
  C   C240      1.0  0.5943122143547002  0.6535385027288682  0.2797849354941087  1.0000
  H   H157      1.0  0.6455667856018965  0.6617907919031815  0.23477820396926957  1.0000
  H   H158      1.0  0.7012509620701598  0.6629385401738597  0.26018934204488475  1.0000
  H   H159      1.0  0.6201254599468254  0.6522050021568244  0.3106962684233735  1.0000
  H   H160      1.0  0.564632093706942  0.6502270996293726  0.28527668572472614  1.0000
  C   C241      1.0  0.39805155942356785  0.6648099289152659  0.3356125078763158  1.0000
  C   C242      1.0  0.3691707201585171  0.6868827992510612  0.32656414811951506  1.0000
  C   C243      1.0  0.33861286184569495  0.7004615859174985  0.33872674778986495  1.0000
  C   C244      1.0  0.3371990303553838  0.6926288222922338  0.36007745550466586  1.0000
  C   C245      1.0  0.3655939061969058  0.6700036774747026  0.36909894812301675  1.0000
  C   C246      1.0  0.3957940145658398  0.6558357683343586  0.35681434031268533  1.0000
  H   H161      1.0  0.3700839181598561  0.6935542527863824  0.31022799048069233  1.0000
  H   H162      1.0  0.3164735698964577  0.7177194997498254  0.33166819116780333  1.0000
  H   H163      1.0  0.3643307689697295  0.663392715865263  0.38552617178441645  1.0000
  H   H164      1.0  0.417809873626723  0.6384087633148905  0.3638488809321743  1.0000
  C   C247      1.0  0.5256668578791327  0.03963573616595317  0.32378718080948304  1.0000
  C   C248      1.0  0.563258641327377  0.039908768534666406  0.33296204813210023  1.0000
  C   C249      1.0  0.5965565228078634  0.03556181213297083  0.3204981841150578  1.0000
  C   C250      1.0  0.5921835373626796  0.03115357241241523  0.2988507324154725  1.0000
  C   C251      1.0  0.5546473374495225  0.031217478105896257  0.28970077551484374  1.0000
  C   C252      1.0  0.5214671108797369  0.035541501035633916  0.3021249425923223  1.0000
  H   H165      1.0  0.5666070187063953  0.04309665685619812  0.34971603447013266  1.0000
  H   H166      1.0  0.6255026889130468  0.03545091656992705  0.3276389386604369  1.0000
  H   H167      1.0  0.551264417349522  0.02837456803166294  0.2729313046773911  1.0000
  H   H168      1.0  0.4926741808595963  0.03623935241040921  0.294884965276444  1.0000
  C   C253      1.0  0.2802327037455619  0.09075718687098067  0.3430400653778698  1.0000
  C   C254      1.0  0.2892650390971626  0.06402294822928045  0.35799012112388245  1.0000
  C   C255      1.0  0.27868017362704367  0.06936686922288193  0.3788817310221703  1.0000
  C   C256      1.0  0.25915714331089024  0.10154972980740795  0.3848825359789728  1.0000
  C   C257      1.0  0.24912041130772733  0.1277889004242614  0.36983750164423507  1.0000
  C   C258      1.0  0.2595496363058046  0.1223404525096552  0.34892101697679795  1.0000
  H   H169      1.0  0.3037791425136309  0.038914034964109945  0.353433845980229  1.0000
  H   H170      1.0  0.2853387835525203  0.04834301962160237  0.3902412924417726  1.0000
  H   H171      1.0  0.2337349677647003  0.15254777043797163  0.37439487353918494  1.0000
  H   H172      1.0  0.25226559138024246  0.1429703018747952  0.33737927027603437  1.0000
  C   C259      1.0  0.3970860728519174  0.880140091641451  0.3098571639192854  1.0000
  C   C260      1.0  0.3882536631445289  0.850576068037356  0.29619145867526664  1.0000
  C   C261      1.0  0.41858515006187264  0.8298344037491879  0.2875602182485655  1.0000
  C   C262      1.0  0.45769168653716813  0.8383640245351185  0.2928159753899129  1.0000
  C   C263      1.0  0.46653609035460747  0.8679864560215679  0.3064694384342149  1.0000
  C   C264      1.0  0.43623260787118473  0.8888904219259437  0.31498611442763796  1.0000
  H   H173      1.0  0.35798527883752373  0.8440219288633486  0.29206063886814837  1.0000
  H   H174      1.0  0.41163545961592074  0.8076873238025842  0.2765676035446626  1.0000
  H   H175      1.0  0.4967879520855027  0.8747468376768338  0.31049798376644316  1.0000
  H   H176      1.0  0.44310879433902445  0.9117046100634167  0.325601437145525  1.0000
  C   C265      1.0  0.3585008891483485  0.07231769466294424  0.9461240067936729  1.0000
  C   C266      1.0  0.35294832583791086  0.09553949123103767  0.9634001013952604  1.0000
  C   C267      1.0  0.38247742983070776  0.12099571078105378  0.9696438422566783  1.0000
  C   C268      1.0  0.4182281097365116  0.12250508531027497  0.9591267686505998  1.0000
  C   C269      1.0  0.4235869407008765  0.09961010437638951  0.9416569915310351  1.0000
  C   C270      1.0  0.39362928739951003  0.0747304213536355  0.9350583202055265  1.0000
  H   H177      1.0  0.32577915571297794  0.09400049776202946  0.971938343477196  1.0000
  H   H178      1.0  0.377620625138551  0.13939998908408377  0.9827456596445585  1.0000
  H   H179      1.0  0.4512872918959189  0.09995793750584814  0.9337007282523174  1.0000
  H   H180      1.0  0.39845719338154506  0.05624691329488685  0.9219780319337055  1.0000
  C   C271      1.0  0.925715099689596  0.9929730268951135  0.0458694139451199  1.0000
  C   C272      1.0  0.8957066439122393  0.006252716178047457  0.032907011149258425  1.0000
  C   C273      1.0  0.9032502626109132  0.03611293636080015  0.019414237972101178  1.0000
  C   C274      1.0  0.940882866085228  0.0522827719345913  0.018800019266764778  1.0000
  C   C275      1.0  0.9708554480244163  0.038493502551424585  0.03149528016367942  1.0000
  C   C276      1.0  0.9632740671097315  0.009031098341808041  0.04498251492101857  1.0000
  H   H181      1.0  0.8665210167115499  0.9940061858224639  0.03358895635297987  1.0000
  H   H182      1.0  0.879925825212696  0.046721130711939285  0.009639315754306876  1.0000
  H   H183      1.0  0.9999193384478765  0.05093162725200129  0.03127897009211167  1.0000
  H   H184      1.0  0.986592978518364  0.9991410391625977  0.05487438950382062  1.0000
  C   C277      1.0  0.1136016102654882  0.01825219537115541  0.056189267849745095  1.0000
  C   C278      1.0  0.09096415303499317  0.9958598099081181  0.0425601341298012  1.0000
  C   C279      1.0  0.10664361822205336  0.9836123810568291  0.02365257745737881  1.0000
  C   C280      1.0  0.14470474726602164  0.9943809102255102  0.01814202030281642  1.0000
  C   C281      1.0  0.1668414291607138  0.01796867599029439  0.031362628464056685  1.0000
  C   C282      1.0  0.15127430837758382  0.029890723181890344  0.05040014423475614  1.0000
  H   H185      1.0  0.0613257394703155  0.9880751038575438  0.04651929844868796  1.0000
  H   H186      1.0  0.08942232681932816  0.965480329590421  0.013392613178023316  1.0000
  H   H187      1.0  0.1960573021120644  0.0269314596414425  0.027022689188228588  1.0000
  H   H188      1.0  0.1687553254659635  0.0475673615295813  0.0608113484934083  1.0000
  C   C283      1.0  0.3671180170010361  0.12308407661738605  0.21145799933556222  1.0000
  C   C284      1.0  0.385587881412543  0.12390925495532429  0.23111649850304536  1.0000
  C   C285      1.0  0.39612026671241574  0.09071337904634334  0.24081535136074958  1.0000
  C   C286      1.0  0.3892656547309699  0.05670000497605555  0.23060962215720435  1.0000
  C   C287      1.0  0.3720948409073588  0.05596435817979551  0.21060249679306778  1.0000
  C   C288      1.0  0.3605456722910799  0.08912233878935498  0.20112692231639215  1.0000
  H   H189      1.0  0.3909796062572392  0.15017466520830988  0.23906639653795536  1.0000
  H   H190      1.0  0.4102051019697181  0.09154780757498802  0.2560166140020097  1.0000
  H   H191      1.0  0.3669202078181488  0.029705713632884212  0.20260150485115852  1.0000
  H   H192      1.0  0.3466116489715873  0.08839254769178626  0.1858305620660223  1.0000
  C   C289      1.0  0.25712901243402697  0.0687461681816075  0.10310027657831267  1.0000
  C   C290      1.0  0.24474467774879233  0.04432565886341422  0.08707903798544026  1.0000
  C   C291      1.0  0.26309752093764605  0.04515548226293431  0.06756238495851874  1.0000
  C   C292      1.0  0.29429904727917316  0.07003030735369342  0.0641007374346716  1.0000
  C   C293      1.0  0.30665023563480837  0.09442814226921287  0.08012069266195354  1.0000
  C   C294      1.0  0.28803042667522555  0.09387044292861235  0.09954914567426942  1.0000
  H   H193      1.0  0.22068358476117358  0.024999750025268108  0.08970490377963736  1.0000
  H   H194      1.0  0.2529758544599972  0.02664616945463205  0.055256613369494945  1.0000
  H   H195      1.0  0.3306857860523746  0.11378348012177378  0.07752875409477888  1.0000
  H   H196      1.0  0.2980276251645502  0.11250710559663984  0.1118276859993863  1.0000
  C   C295      1.0  0.8858240408658633  0.17164512057125214  0.26684379677289466  1.0000
  C   C296      1.0  0.8550871130772573  0.1929638244588401  0.25899285092501106  1.0000
  C   C297      1.0  0.8172818747219726  0.18907169252379363  0.2672924108046145  1.0000
  C   C298      1.0  0.8102055514852754  0.16365990902718391  0.28330910462984527  1.0000
  C   C299      1.0  0.8413151365299754  0.14350045367762065  0.29162541086763044  1.0000
  C   C300      1.0  0.8790692840629141  0.14760614344546089  0.28349288733495814  1.0000
  H   H197      1.0  0.8602923629227133  0.2122445639612811  0.2464528611855795  1.0000
  H   H198      1.0  0.7934242537252171  0.20511689551033463  0.2609676970834243  1.0000
  H   H199      1.0  0.8364830807056038  0.1250928670935407  0.3045426427064241  1.0000
  H   H200      1.0  0.9029128974639503  0.13157965228319596  0.2898601395837777  1.0000
  C   C301      1.0  0.9320428873453316  0.11239926003638302  0.15561507154295784  1.0000
  C   C302      1.0  0.9541293319245063  0.10356813461394304  0.17339391448058716  1.0000
  C   C303      1.0  0.970436141400449  0.06831058984440785  0.17539633556351264  1.0000
  C   C304      1.0  0.9645722964548428  0.04167478245108258  0.15961137334618414  1.0000
  C   C305      1.0  0.9406064688441748  0.04967474504931557  0.14239076953880425  1.0000
  C   C306      1.0  0.9243219373533066  0.08498617074052195  0.14043451812957639  1.0000
  H   H201      1.0  0.9590180984617326  0.12381601466036536  0.18556222534163513  1.0000
  H   H202      1.0  0.9883694764962933  0.062011065224963684  0.18894826718709412  1.0000
  H   H203      1.0  0.9341877251401618  0.02849539107754362  0.1307351459626407  1.0000
  H   H204      1.0  0.9056050364308851  0.09106322825529811  0.1272317692485565  1.0000
  C   C307      1.0  0.07985974979919863  0.24440633809437687  0.2024950562909548  1.0000
  C   C308      1.0  0.11464155834104361  0.24259096247651046  0.19117363407850055  1.0000
  C   C309      1.0  0.13948241045019602  0.2122750259309283  0.1936271522180741  1.0000
  C   C310      1.0  0.130017476029653  0.18400555567197327  0.20766371054527843  1.0000
  C   C311      1.0  0.09598669206151289  0.18649390090365736  0.21954439244048132  1.0000
  C   C312      1.0  0.0709287276985251  0.2166637693347542  0.21695200626325042  1.0000
  H   H205      1.0  0.1217874223811104  0.26361145741440073  0.17986335681551463  1.0000
  H   H206      1.0  0.16555701725903565  0.210542308037832  0.18431470006917036  1.0000
  H   H207      1.0  0.08860626924475445  0.1647951849545545  0.2304827799994551  1.0000
  H   H208      1.0  0.044508794570165655  0.21823988463245467  0.2260711748435679  1.0000
  C   C313      1.0  0.34949369447828615  0.635197634141252  0.9665039186769507  1.0000
  C   C314      1.0  0.36538556736881483  0.6170354937251894  0.9492749548666914  1.0000
  C   C315      1.0  0.3981940610798263  0.5945144732946005  0.9518795936518847  1.0000
  C   C316      1.0  0.41616462606033094  0.5914906768360667  0.9715616970501812  1.0000
  C   C317      1.0  0.40167713065296007  0.6115383785154158  0.9885150258783912  1.0000
  C   C318      1.0  0.36785665799897227  0.6327357173021746  0.9861033571407724  1.0000
  H   H209      1.0  0.351970995767957  0.6198145687471922  0.9340176074819604  1.0000
  H   H210      1.0  0.40959376525956936  0.5795881130587245  0.9386478911062169  1.0000
  H   H211      1.0  0.41621366015534056  0.6101898319334991  0.0035851317414947736  1.0000
  H   H212      1.0  0.35619550391746135  0.6472622847733545  0.9994238521600259  1.0000
  C   C319      1.0  0.25102976041836716  0.8088072795271974  0.025780096794313145  1.0000
  C   C320      1.0  0.23723217343047168  0.8423635176929244  0.017912302377988798  1.0000
  C   C321      1.0  0.2637720349339193  0.8706851319266447  0.012403590786161933  1.0000
  C   C322      1.0  0.3041596376577292  0.8654810352066133  0.014821237968938528  1.0000
  C   C323      1.0  0.3179192565177155  0.8322620515571018  0.023134888383582686  1.0000
  C   C324      1.0  0.291343076440895  0.8039516400020151  0.028655391431758215  1.0000
  H   H213      1.0  0.2060661127532539  0.8460269981853857  0.015439811484471377  1.0000
  H   H214      1.0  0.2530178825958683  0.8960405659150553  0.005638391785535157  1.0000
  H   H215      1.0  0.34916233503325356  0.8283058235210947  0.025096830892058497  1.0000
  H   H216      1.0  0.3020559857931453  0.7785054136837233  0.0352531605641806  1.0000
  C   C325      1.0  0.8365783045070363  0.5641475185670629  0.05169316964806936  1.0000
  C   C326      1.0  0.8636272311403305  0.5375695518070783  0.05797792251266087  1.0000
  C   C327      1.0  0.8666137999800325  0.5041874551036261  0.04672975768058096  1.0000
  C   C328      1.0  0.8429224367331652  0.4975539622031768  0.02901693725098875  1.0000
  C   C329      1.0  0.8148970756060077  0.5235409423736729  0.023150697602356107  1.0000
  C   C330      1.0  0.8114604529668743  0.5566702230458183  0.03462830418411289  1.0000
  H   H217      1.0  0.8822658247454058  0.5427382431750503  0.0715135131954987  1.0000
  H   H218      1.0  0.8881331342661274  0.48400487285044286  0.05137145772466334  1.0000
  H   H219      1.0  0.7961046731380581  0.5183204083856192  0.009671233787742262  1.0000
  H   H220      1.0  0.790270821162629  0.5770703659847651  0.02984419513195169  1.0000
  C   C331      1.0  0.9718301087585196  0.7622541886085467  0.12131648967804787  1.0000
  C   C332      1.0  0.0003347162811133675  0.7558704659763927  0.10623219119434868  1.0000
  C   C333      1.0  0.027440618236806325  0.7839466093730649  0.10113366512987576  1.0000
  C   C334      1.0  0.02560799650164669  0.818875185569336  0.11072396754016167  1.0000
  C   C335      1.0  0.9969631476471468  0.825509200106636  0.1257160484113522  1.0000
  C   C336      1.0  0.9702994489694264  0.7970963572489058  0.13114079494546216  1.0000
  H   H221      1.0  0.0012710700415741183  0.7295500129952892  0.09817818817611945  1.0000
  H   H222      1.0  0.04931440405140086  0.7787764894667999  0.08939077005923401  1.0000
  H   H223      1.0  0.9957517159133579  0.8523116837868403  0.1333871111999858  1.0000
  H   H224      1.0  0.9482907180897914  0.8022295820683613  0.14280645605242914  1.0000
  C   C337      1.0  0.051755198407296366  0.6471407268865241  0.0350676847219209  1.0000
  C   C338      1.0  0.08182872507192585  0.6637256766504366  0.023618789759020986  1.0000
  C   C339      1.0  0.11814738805242352  0.6464882954576926  0.022094253155480414  1.0000
  C   C340      1.0  0.12405496734886264  0.6120986651947853  0.031448857518524775  1.0000
  C   C341      1.0  0.09362755509550613  0.5949893608888966  0.04252523359943616  1.0000
  C   C342      1.0  0.057623886152307735  0.6128495842560159  0.04465860035005487  1.0000
  H   H225      1.0  0.07732201179644127  0.6902882359141715  0.016261412244764184  1.0000
  H   H226      1.0  0.1413779574808149  0.6597481502155266  0.013488836053790365  1.0000
  H   H227      1.0  0.09807316493276486  0.568260703170442  0.0496593630997586  1.0000
  H   H228      1.0  0.03436640302176208  0.5999627633780823  0.053518402208818205  1.0000
  C   C343      1.0  0.3676283960272136  0.5813752796214832  0.19579390973222519  1.0000
  C   C344      1.0  0.4031765780021551  0.5978416985074214  0.20244256828711382  1.0000
  C   C345      1.0  0.4035463004607664  0.6321930069963886  0.21284905422323508  1.0000
  C   C346      1.0  0.36834958157712366  0.6502949949400996  0.21656171909802957  1.0000
  C   C347      1.0  0.332643556548946  0.6336275694185206  0.21018756049342868  1.0000
  C   C348      1.0  0.3322396243096762  0.5989810197171065  0.19993423928124013  1.0000
  H   H229      1.0  0.4306073000899434  0.584353787259066  0.1991660746972965  1.0000
  H   H230      1.0  0.4312578059750942  0.6452367392691503  0.2173223121386285  1.0000
  H   H231      1.0  0.30534531747928295  0.6476041363064851  0.2130751687695117  1.0000
  H   H232      1.0  0.30467370873077326  0.5863447563786334  0.19480126817064072  1.0000
  C   C349      1.0  0.23969951978544218  0.3566104869646258  0.17705928214803526  1.0000
  C   C350      1.0  0.2458732255979854  0.35975091833148  0.15558395514940318  1.0000
  C   C351      1.0  0.24291786574606675  0.32806677128100753  0.14268628537025838  1.0000
  C   C352      1.0  0.2334797006783733  0.2934137225811757  0.15123964112252997  1.0000
  C   C353      1.0  0.22525597982978432  0.2908419645548053  0.17250403928332078  1.0000
  C   C354      1.0  0.2289514566905274  0.3222452865959204  0.18545791768390762  1.0000
  H   H233      1.0  0.25383568014907393  0.386351187069946  0.14897098355229682  1.0000
  H   H234      1.0  0.2489101508298792  0.3302380116914364  0.12616527144562117  1.0000
  H   H235      1.0  0.21596518893652558  0.2646926144609003  0.17899990646326208  1.0000
  H   H236      1.0  0.22358385380693266  0.3198400968831383  0.20202739054776647  1.0000
  C   C355      1.0  0.27919435422543976  0.5255923427195857  0.09086799588014682  1.0000
  C   C356      1.0  0.25939827405578575  0.5470349729983756  0.0761971268659245  1.0000
  C   C357      1.0  0.2764994858054501  0.5801071382755706  0.06909254404766285  1.0000
  C   C358      1.0  0.3141087351505358  0.5911385327133817  0.07596490800192734  1.0000
  C   C359      1.0  0.33428360897276727  0.5692459839240673  0.09036392762825218  1.0000
  C   C360      1.0  0.3164781115966339  0.5368692950510745  0.09817177771107309  1.0000
  H   H237      1.0  0.23056852880706213  0.5383881397352016  0.07052098735533452  1.0000
  H   H238      1.0  0.2603770033051245  0.5967772205236083  0.05818613021961383  1.0000
  H   H239      1.0  0.36360229250072523  0.5772369343226837  0.09546730492071198  1.0000
  H   H240      1.0  0.3318248863076985  0.5201923247530894  0.10954344799978187  1.0000
  C   C361      1.0  0.9338055981485277  0.6187543554415651  0.2776978692197091  1.0000
  C   C362      1.0  0.9194102630289759  0.6112730942755317  0.2575096887843651  1.0000
  C   C363      1.0  0.8954042361963035  0.6366989191342753  0.24736224972136514  1.0000
  C   C364      1.0  0.8857020458215216  0.6698275956764924  0.2573140666252324  1.0000
  C   C365      1.0  0.9001709067431687  0.6776323531616122  0.27746607675081925  1.0000
  C   C366      1.0  0.9242675188091481  0.6520849654272249  0.28767240223772406  1.0000
  H   H241      1.0  0.9260718812171616  0.5855995322494933  0.2497274501886101  1.0000
  H   H242      1.0  0.8831708005511377  0.6300176153002893  0.2321099756971963  1.0000
  H   H243      1.0  0.8930030825209461  0.7034958570995387  0.2851027376748322  1.0000
  H   H244      1.0  0.9349394842421039  0.6580384903590181  0.3033128258997935  1.0000
  C   C367      1.0  0.8819687221525774  0.3799482059041691  0.2595726057602003  1.0000
  C   C368      1.0  0.8839537817685998  0.34120442692785935  0.2598270463248965  1.0000
  C   C369      1.0  0.8739220848878054  0.32055296497961044  0.24179418175864234  1.0000
  C   C370      1.0  0.8616679276480331  0.338647045989656  0.22364007006443568  1.0000
  C   C371      1.0  0.8561738652765828  0.3770232162865455  0.22412305047534967  1.0000
  C   C372      1.0  0.8671356751508826  0.3977755140750534  0.24191058889291633  1.0000
  H   H245      1.0  0.8946408339823678  0.32728112051328506  0.2736349135175382  1.0000
  H   H246      1.0  0.8758707485564879  0.2906449310471109  0.24191715632648125  1.0000
  H   H247      1.0  0.8448817526717332  0.3909693049981704  0.2105428261395447  1.0000
  H   H248      1.0  0.8646586521096054  0.4276878616440792  0.24186339295752896  1.0000
  C   C373      1.0  0.9220724082782868  0.5294377534439692  0.1779502653704318  1.0000
  C   C374      1.0  0.9043951985504723  0.5409602819938479  0.15934664512490412  1.0000
  C   C375      1.0  0.927110522374568  0.5467865237627748  0.1415807541223797  1.0000
  C   C376      1.0  0.9677934010705996  0.5427043281746108  0.14255091263409758  1.0000
  C   C377      1.0  0.9854635620238761  0.5302999952392794  0.16104096838137538  1.0000
  C   C378      1.0  0.9625218555808638  0.523426940659028  0.17871830898614438  1.0000
  H   H249      1.0  0.8730031517590395  0.5450345620090059  0.15857577870939732  1.0000
  H   H250      1.0  0.9130032297602741  0.5539996563077874  0.12703022493960137  1.0000
  H   H251      1.0  0.016931191253480637  0.5267153737701649  0.1618230514660397  1.0000
  H   H252      1.0  0.9762049755305441  0.5138370718601238  0.19294277712560093  1.0000
  C   C379      1.0  0.09022062337370906  0.4815461888237805  0.21852918453738143  1.0000
  C   C380      1.0  0.07348633588027154  0.5111571983756547  0.2077769080831772  1.0000
  C   C381      1.0  0.09680601103679032  0.5339860505818254  0.19508133736633343  1.0000
  C   C382      1.0  0.13676864739239739  0.5267973802575284  0.19287929942075485  1.0000
  C   C383      1.0  0.15318369670961188  0.49675802259168444  0.20335234612946754  1.0000
  C   C384      1.0  0.13007075386277323  0.4743520296322739  0.21624986190227444  1.0000
  H   H253      1.0  0.042576293640345764  0.5162771444712851  0.20897696545833333  1.0000
  H   H254      1.0  0.08381015733816488  0.5568978134516802  0.18681741994121753  1.0000
  H   H255      1.0  0.18380527762711313  0.49077107168470285  0.201683024433898  1.0000
  H   H256      1.0  0.14328316560778198  0.45162461635025775  0.22456918984479968  1.0000
  N   N1        1.0  0.4362029023678465  0.07275420767133434  0.02107881634960984  1.0000
  C   C385      1.0  0.4188929305565552  0.04349124078042266  0.03434623282762028  1.0000
  C   C386      1.0  0.409688818750273  0.10476150918472005  0.02036556688889446  1.0000
  C   C387      1.0  0.44160770180081294  0.05801779460331269  0.999687027453643  1.0000
  C   C388      1.0  0.4746462566648782  0.08492331974152312  0.02990925340591022  1.0000
  H   H257      1.0  0.38997788648722603  0.033669688868733116  0.028007153408343477  1.0000
  H   H258      1.0  0.4134359241654371  0.05394060282225688  0.05045686627817392  1.0000
  H   H259      1.0  0.4380972186622694  0.01891863848632469  0.03545052812353289  1.0000
  H   H260      1.0  0.4034382424381794  0.11562988971147536  0.03628661861689131  1.0000
  H   H261      1.0  0.4224559057061843  0.12792875064403963  0.011088308116372403  1.0000
  H   H262      1.0  0.38080696530895186  0.0968352855749397  0.013117261947322323  1.0000
  H   H263      1.0  0.4566409313932988  0.07873880658650179  0.9896129417188738  1.0000
  H   H264      1.0  0.4129723112792975  0.05096992556746893  0.991937824676284  1.0000
  H   H265      1.0  0.45955578573423944  0.03252893780958943  0.9996799328364933  1.0000
  H   H266      1.0  0.4882534387492579  0.10717919953216493  0.02022083701254518  1.0000
  H   H267      1.0  0.4955202259368947  0.06152617460128651  0.030545442764811748  1.0000
  H   H268      1.0  0.47161145795587744  0.09623223588189433  0.04603432747172098  1.0000
  N   N2        1.0  0.8848787082436159  0.6859325082479457  0.5120492342213427  1.0000
  C   C389      1.0  0.8835995117968569  0.7260494158173362  0.5170358038074178  1.0000
  C   C390      1.0  0.8554333685719302  0.6767871099616312  0.4955385488574189  1.0000
  C   C391      1.0  0.8760293378694695  0.6642397140646966  0.5309712674131504  1.0000
  C   C392      1.0  0.9244661531780919  0.6766470472143381  0.5046352214299326  1.0000
  H   H269      1.0  0.9057858687784568  0.7340580396423141  0.5292390126484545  1.0000
  H   H270      1.0  0.8541892881751443  0.7340368838958584  0.5227414705635384  1.0000
  H   H271      1.0  0.889916736150907  0.7431653332651162  0.503002201681211  1.0000
  H   H272      1.0  0.8558764687798394  0.6468793911421189  0.49119387941337667  1.0000
  H   H273      1.0  0.8251705103837842  0.6831175510248156  0.5006343596140299  1.0000
  H   H274      1.0  0.8610735635335303  0.6927223481229143  0.481035100876452  1.0000
  H   H275      1.0  0.8776711168191007  0.6339394832388314  0.5277941001241547  1.0000
  H   H276      1.0  0.8459225469435879  0.669579538722496  0.5367067993282272  1.0000
  H   H277      1.0  0.8972072462372354  0.6708175380294736  0.5439095530968441  1.0000
  H   H278      1.0  0.9325093164115809  0.6932835262668503  0.4907383087891934  1.0000
  H   H279      1.0  0.9262532494210188  0.6468689189491549  0.5000389196822704  1.0000
  H   H280      1.0  0.9473754219634768  0.6821909751761758  0.5168539873457769  1.0000
  N   N3        1.0  0.9362166884139915  0.83527576918439  0.40025080516180594  1.0000
  C   C393      1.0  0.9015577057064821  0.8470699476054079  0.4120959330839603  1.0000
  C   C394      1.0  0.9287525545291317  0.8404892913304679  0.3776691804763572  1.0000
  C   C395      1.0  0.9436813944258662  0.795646420840999  0.4043063948360088  1.0000
  C   C396      1.0  0.9708101707202952  0.857962300613612  0.40695556250904735  1.0000
  H   H281      1.0  0.895057951925377  0.8768686470478785  0.4092919119911754  1.0000
  H   H282      1.0  0.9063585249538181  0.8438013378838585  0.4292182287144717  1.0000
  H   H283      1.0  0.8749613096025595  0.8302750636916718  0.40765313260237473  1.0000
  H   H284      1.0  0.9228607366514944  0.8701423047658535  0.374116154782876  1.0000
  H   H285      1.0  0.95444147498297  0.8321223241072513  0.36827360127058134  1.0000
  H   H286      1.0  0.9030118007224925  0.8234288788370365  0.3720780315325142  1.0000
  H   H287      1.0  0.9493757643239248  0.7907496236900259  0.42116732808270346  1.0000
  H   H288      1.0  0.9696650180191437  0.7857228305304518  0.39566243343407964  1.0000
  H   H289      1.0  0.9181206551790073  0.7776575148706015  0.39963288877215647  1.0000
  H   H290      1.0  0.9770013591600567  0.854985328074016  0.42397654061973816  1.0000
  H   H291      1.0  0.9662670681705232  0.888036040110623  0.40403918805548  1.0000
  H   H292      1.0  0.997697834030685  0.8497143831048397  0.3985466813750975  1.0000
  N   N4        1.0  0.09523416650715988  0.07505757537573032  0.14806974715567844  1.0000
  C   C397      1.0  0.09722753384888794  0.11113029077840464  0.15929234388196303  1.0000
  C   C398      1.0  0.08733270997655396  0.04504560962383786  0.16313791367508934  1.0000
  C   C399      1.0  0.1329893522310337  0.06840138288570952  0.1376403941876482  1.0000
  C   C400      1.0  0.06332914602235284  0.07554436570201162  0.13221700651776808  1.0000
  H   H293      1.0  0.10343155505331647  0.13445547077333186  0.1484545190676833  1.0000
  H   H294      1.0  0.12090445935811722  0.11161390987966158  0.1714735119571215  1.0000
  H   H295      1.0  0.06916797746260794  0.11709095504750766  0.16730280302131428  1.0000
  H   H296      1.0  0.08531233503913183  0.017424927342100105  0.1552194768244337  1.0000
  H   H297      1.0  0.11087833229527577  0.04378047300381471  0.17531214630288092  1.0000
  H   H298      1.0  0.05898666628988791  0.04914570054699552  0.1712447630907967  1.0000
  H   H299      1.0  0.1324350737414497  0.04167811003441568  0.12872620774777843  1.0000
  H   H300      1.0  0.15780446904462897  0.06740599430131877  0.14910005590352937  1.0000
  H   H301      1.0  0.14025885614950906  0.09063782175486335  0.1262593414576807  1.0000
  H   H302      1.0  0.06119421856647267  0.04867339162299689  0.12352931211186301  1.0000
  H   H303      1.0  0.06852752504544268  0.09761368981062124  0.12045407680672438  1.0000
  H   H304      1.0  0.034311643173874584  0.08031221815399392  0.13950443036122892  1.0000
  N   N5        1.0  0.11502816016592843  0.3750391573451797  0.17841380928567097  1.0000
  C   C401      1.0  0.11702188397638658  0.3432699786148664  0.16370315474754576  1.0000
  C   C402      1.0  0.13972683768616023  0.4059538173627546  0.17065299890767222  1.0000
  C   C403      1.0  0.12945622086759823  0.36374162583268843  0.19924853752354532  1.0000
  C   C404      1.0  0.07396383985127941  0.38720064360377876  0.1800809766162869  1.0000
  H   H305      1.0  0.10824568051440941  0.35126681824042805  0.14758006090926654  1.0000
  H   H306      1.0  0.09708287515538427  0.3201220698579422  0.16843226005457798  1.0000
  H   H307      1.0  0.14733439154549033  0.3321767196609498  0.16296034823362315  1.0000
  H   H308      1.0  0.13969485532173498  0.4301538403428831  0.18150656060269968  1.0000
  H   H309      1.0  0.17079623092623808  0.39754049767739846  0.1690133663492591  1.0000
  H   H310      1.0  0.12942056800887736  0.4156798461789377  0.1551086713555031  1.0000
  H   H311      1.0  0.1609994980369569  0.3564252148855697  0.19885924685662548  1.0000
  H   H312      1.0  0.11285256280360123  0.33903149834762436  0.20500375059650505  1.0000
  H   H313      1.0  0.1267530746294323  0.38661911801913895  0.2109307343641648  1.0000
  H   H314      1.0  0.062000646139044324  0.39580227208750635  0.16464544895025104  1.0000
  H   H315      1.0  0.0716365542317885  0.41135169907501656  0.19100469416591118  1.0000
  H   H316      1.0  0.05466912670315427  0.3644293791963631  0.18603194931875025  1.0000
  N   N6        1.0  0.6262223876537023  0.4181322380672562  0.9645189355559645  1.0000
  C   C405      1.0  0.6484173434910985  0.3854643674777106  0.9574875538130146  1.0000
  C   C406      1.0  0.6070232561718082  0.4355612659918684  0.9463589443926084  1.0000
  C   C407      1.0  0.653447286314743  0.4454529916078964  0.9745742117440904  1.0000
  C   C408      1.0  0.5960519573534648  0.4063433700573084  0.9795930492599492  1.0000
  H   H317      1.0  0.6287449967792317  0.36421497420797116  0.9498421703045246  1.0000
  H   H318      1.0  0.663577568843844  0.37185788592927643  0.9708090230629777  1.0000
  H   H319      1.0  0.6714401552476298  0.39336838085205095  0.9460405712204122  1.0000
  H   H320      1.0  0.591319079501541  0.4610947645570764  0.951020016721403  1.0000
  H   H321      1.0  0.6287956422546378  0.44346182987806  0.934345917462526  1.0000
  H   H322      1.0  0.5850851671627944  0.41671288871069073  0.9387096707947377  1.0000
  H   H323      1.0  0.6687128203211327  0.4336105471344326  0.988402929711498  1.0000
  H   H324      1.0  0.6379408082899712  0.4707915325118849  0.979845203843341  1.0000
  H   H325      1.0  0.6763469649917376  0.454954682356881  0.9634934789648418  1.0000
  H   H326      1.0  0.5752039989361062  0.3854714842909866  0.9725118935674872  1.0000
  H   H327      1.0  0.5784532556830159  0.4303121721999695  0.9849515326079833  1.0000
  H   H328      1.0  0.6095543437477765  0.3934717537558083  0.9936376607073986  1.0000
  N   N7        1.0  0.6885264560728678  0.07519402432688449  0.6275983059931228  1.0000
  C   C409      1.0  0.6729909576721865  0.07108393469937324  0.6489217652046453  1.0000
  C   C410      1.0  0.6981538931663136  0.03818826162207256  0.6191231913719656  1.0000
  C   C411      1.0  0.7243055263612123  0.09901112459525718  0.6283305681000529  1.0000
  C   C412      1.0  0.6587616970306093  0.09245128981366624  0.6139553824675675  1.0000
  H   H329      1.0  0.6459485067190425  0.05331946172507562  0.6489290626800218  1.0000
  H   H330      1.0  0.6657151365647375  0.0984128495773764  0.6559680306398885  1.0000
  H   H331      1.0  0.694722238961449  0.05761522670780428  0.6594356722008631  1.0000
  H   H332      1.0  0.7081374761022468  0.03986656663760102  0.6026866042779754  1.0000
  H   H333      1.0  0.7220431015738362  0.02511588058433656  0.6283831419719029  1.0000
  H   H334      1.0  0.6723885108193354  0.01878675762073634  0.6193777520236559  1.0000
  H   H335      1.0  0.7354709256452442  0.10425010490302933  0.6123505625605018  1.0000
  H   H336      1.0  0.7483727740543918  0.08587614077402783  0.6374492551394769  1.0000
  H   H337      1.0  0.7185958119237427  0.12658243599504693  0.6355231083753428  1.0000
  H   H338      1.0  0.6699444527338775  0.09598891721536118  0.5977746960846838  1.0000
  H   H339      1.0  0.6506763571187199  0.12048100098329417  0.6197864846207175  1.0000
  H   H340      1.0  0.6314178663642068  0.0751719945113849  0.6127994322889406  1.0000
  N   N8        1.0  0.8121590114273666  0.4775298582124146  0.6848242999194891  1.0000
  C   C413      1.0  0.8256479019927233  0.4389588927819899  0.6822834297476142  1.0000
  C   C414      1.0  0.791517658048571  0.4891026906527805  0.6655437414844404  1.0000
  C   C415      1.0  0.8464776288192908  0.502396504117221  0.6887921529820648  1.0000
  C   C416      1.0  0.785126615927425  0.47965355319775727  0.7026679694852785  1.0000
  H   H341      1.0  0.8418476369500917  0.42949081372259773  0.6964533804782341  1.0000
  H   H342      1.0  0.8457598607208707  0.43634918401963646  0.6687558230280067  1.0000
  H   H343      1.0  0.8005634611949575  0.4192029680206254  0.6796414378527899  1.0000
  H   H344      1.0  0.7815994158105182  0.5183683246480041  0.6667247313235748  1.0000
  H   H345      1.0  0.8109227114210928  0.48725748016825665  0.6517219414960753  1.0000
  H   H346      1.0  0.7651348886215201  0.4712904295611533  0.6622153791276101  1.0000
  H   H347      1.0  0.8618303693374249  0.49528396224478605  0.7036498280101926  1.0000
  H   H348      1.0  0.8377546373625954  0.5320148701889971  0.6896575621252089  1.0000
  H   H349      1.0  0.8682926829920585  0.5000026185700966  0.6760698798460165  1.0000
  H   H350      1.0  0.7742005648582341  0.5083780978041751  0.7049213310159378  1.0000
  H   H351      1.0  0.7997389880704833  0.4709545086667776  0.7174812280817914  1.0000
  H   H352      1.0  0.7590776847144642  0.4609436792095798  0.7002697914645925  1.0000
  N   N9        1.0  0.813896049119715  0.10100959578845975  0.4228701963945285  1.0000
  C   C417      1.0  0.8544780700910796  0.08789241671541  0.4203830157932366  1.0000
  C   C418      1.0  0.7925955978789743  0.07619158980498297  0.437289971605384  1.0000
  C   C419      1.0  0.7936957129004434  0.10057980904279538  0.4023002565306036  1.0000
  C   C420      1.0  0.8147357302407069  0.13927848066651627  0.43144937022690283  1.0000
  H   H353      1.0  0.8713446636084454  0.1056778383363694  0.409418384201242  1.0000
  H   H354      1.0  0.8548332249753925  0.05892020105683571  0.41413682246714417  1.0000
  H   H355      1.0  0.8707447257349472  0.08805263664891616  0.435557128303151  1.0000
  H   H356      1.0  0.8071349862394126  0.07570989705808007  0.4529151228619012  1.0000
  H   H357      1.0  0.7618978388085154  0.08526141738006716  0.43963550708573096  1.0000
  H   H358      1.0  0.7913516104954534  0.04708011679051327  0.4313320072118949  1.0000
  H   H359      1.0  0.762677265865311  0.10944003914667232  0.40353620748183056  1.0000
  H   H360      1.0  0.793136220032297  0.0722424189656643  0.395310479672518  1.0000
  H   H361      1.0  0.8086737782029666  0.11919326933918419  0.3910002988622777  1.0000
  H   H362      1.0  0.784567220820688  0.14986972952499092  0.4337014743636652  1.0000
  H   H363      1.0  0.8305435864957456  0.15881371830557592  0.4209825297774302  1.0000
  H   H364      1.0  0.829741336095781  0.14073368340402773  0.44697951819403536  1.0000
  N   N10       1.0  0.27960324173585915  0.5562694175087856  0.910351722460762  1.0000
  C   C421      1.0  0.279938085230913  0.5500686856979125  0.887481646602385  1.0000
  C   C422      1.0  0.2742416116712083  0.5961870336742018  0.9148633442527948  1.0000
  C   C423      1.0  0.3172606976439063  0.5442845983680639  0.9195793761196568  1.0000
  C   C424      1.0  0.24701585420834182  0.5344677343695494  0.91948479837939  1.0000
  H   H365      1.0  0.2830111439914511  0.5200836972734607  0.8835358431319954  1.0000
  H   H366      1.0  0.30499586915497146  0.5651161734037902  0.8801229777794447  1.0000
  H   H367      1.0  0.25242196557785945  0.559593358994706  0.8798347466621532  1.0000
  H   H368      1.0  0.2979611357356202  0.6134626925918966  0.9078169221233113  1.0000
  H   H369      1.0  0.24575610474437526  0.6060692286046824  0.9085084977478047  1.0000
  H   H370      1.0  0.27478975814451  0.6020384754024551  0.9320059121249386  1.0000
  H   H371      1.0  0.31785375558402684  0.5477079181186176  0.9368819604127254  1.0000
  H   H372      1.0  0.3423939165088701  0.5608469571842111  0.9134141437623688  1.0000
  H   H373      1.0  0.32302594213667857  0.5146344559476719  0.9158138713570244  1.0000
  H   H374      1.0  0.24558482159135586  0.5388715004592639  0.9367042022870395  1.0000
  H   H375      1.0  0.2504869649536914  0.5041666474690235  0.9165529267427607  1.0000
  H   H376      1.0  0.21817130401742668  0.5424226054344922  0.9126440510086955  1.0000
  N   N11       1.0  0.35382621778074036  0.5916517108506388  0.27962808965812613  1.0000
  C   C425      1.0  0.3561334403270165  0.6319513529510846  0.2756872972440267  1.0000
  C   C426      1.0  0.32443969930191574  0.5742817990152033  0.26523425648666626  1.0000
  C   C427      1.0  0.3423024376176565  0.5854555959149115  0.30153430830501987  1.0000
  C   C428      1.0  0.39263448487868446  0.5751778322949808  0.2760200993486997  1.0000
  H   H377      1.0  0.37872127774813646  0.6457513455496453  0.2858800355532432  1.0000
  H   H378      1.0  0.32766822738304696  0.6456748747333226  0.2785371736340947  1.0000
  H   H379      1.0  0.36429822453004324  0.6376332676549653  0.2592856249802748  1.0000
  H   H380      1.0  0.3218107534346506  0.5437946992371296  0.2677126996745544  1.0000
  H   H381      1.0  0.29487765615853395  0.5863280532586526  0.2673858755188131  1.0000
  H   H382      1.0  0.3325568783508874  0.5786111058119994  0.24858283612161075  1.0000
  H   H383      1.0  0.31344879572342904  0.598060785209245  0.3049329277926747  1.0000
  H   H384      1.0  0.3642147184051753  0.5982126040371335  0.3126745448278982  1.0000
  H   H385      1.0  0.34010549501300785  0.5553333177902345  0.30513563933763604  1.0000
  H   H386      1.0  0.39204585808539477  0.5447262814305631  0.27879259356334973  1.0000
  H   H387      1.0  0.41552598565510074  0.587735686378916  0.2866634275408933  1.0000
  H   H388      1.0  0.402425070402761  0.5796869488277745  0.2596668796316484  1.0000
  N   N12       1.0  0.903330603784794  0.6088909185699051  0.7401687536206457  1.0000
  C   C429      1.0  0.8795067280210793  0.6410857461983377  0.7462251266902623  1.0000
  C   C430      1.0  0.9414188289583747  0.6105066752546919  0.7515107645652668  1.0000
  C   C431      1.0  0.9102370662880924  0.6095065165957304  0.7174095101111482  1.0000
  C   C432      1.0  0.88213722697923  0.5742308722672138  0.745560043034958  1.0000
  H   H389      1.0  0.8507031279025618  0.6408429861472386  0.7378261211554172  1.0000
  H   H390      1.0  0.8946271040961915  0.6678336293353195  0.7425851434623427  1.0000
  H   H391      1.0  0.873101884483628  0.6410847759350476  0.7632546012213882  1.0000
  H   H392      1.0  0.9580595468858173  0.6365872421237455  0.7481836078494594  1.0000
  H   H393      1.0  0.9374149356770753  0.6087996495277334  0.7687290421948267  1.0000
  H   H394      1.0  0.9602931628096301  0.5868073429529841  0.7470490367378964  1.0000
  H   H395      1.0  0.8822118604948348  0.6076300734863181  0.7083257535348375  1.0000
  H   H396      1.0  0.928568308134561  0.5858393465028059  0.7123497633311126  1.0000
  H   H397      1.0  0.9255130204696742  0.6355944906839134  0.7126194421831638  1.0000
  H   H398      1.0  0.8992784495233472  0.5493579623408181  0.7411447289891712  1.0000
  H   H399      1.0  0.8530354905406671  0.5721177089631574  0.7375136760107697  1.0000
  H   H400      1.0  0.8769495318404184  0.572589874497455  0.7626909612253462  1.0000
  N   N13       1.0  0.34871573940060807  0.27584534114043696  0.18135165905758388  1.0000
  C   C433      1.0  0.32441346807204985  0.26970063838459146  0.20001851497436984  1.0000
  C   C434      1.0  0.39028215815992234  0.2690010476349933  0.1866761996788967  1.0000
  C   C435      1.0  0.3443346586605389  0.3145179488682133  0.17423355308840166  1.0000
  C   C436      1.0  0.3357529514337241  0.2500032243171727  0.1644789855022286  1.0000
  H   H401      1.0  0.2928371317573418  0.27430035896708643  0.19652499716300517  1.0000
  H   H402      1.0  0.3332024605576126  0.28887548051167694  0.21303694292583134  1.0000
  H   H403      1.0  0.32698481721742495  0.24075948638340222  0.20580893117994464  1.0000
  H   H404      1.0  0.4094299613028823  0.2730150166666776  0.17289157745940986  1.0000
  H   H405      1.0  0.40114529277139443  0.2880477790692609  0.19933771602719533  1.0000
  H   H406      1.0  0.39425270895689724  0.23994804469401182  0.1921665546606168  1.0000
  H   H407      1.0  0.362507164832527  0.32035083972007716  0.16027867956225123  1.0000
  H   H408      1.0  0.3529412156272808  0.33494635324342215  0.1866906193284805  1.0000
  H   H409      1.0  0.3133545108681496  0.32010956493100295  0.1697740580368736  1.0000
  H   H410      1.0  0.3395876091227556  0.2205762781388641  0.16910243078514217  1.0000
  H   H411      1.0  0.35253426106593677  0.25450742234523055  0.14989686933172508  1.0000
  H   H412      1.0  0.3042067534454675  0.25349661929611034  0.16049876150658382  1.0000
  N   N14       1.0  0.7331012368164919  0.32426232231623164  0.5701879187740873  1.0000
  C   C437      1.0  0.7569772302165299  0.357649505505907  0.5756460152565686  1.0000
  C   C438      1.0  0.6913854679252439  0.3314430083135599  0.5744872502882845  1.0000
  C   C439      1.0  0.7463556598518294  0.2925618896748858  0.5828274690568622  1.0000
  C   C440      1.0  0.737762763351823  0.3154691533245258  0.5477695088400458  1.0000
  H   H413      1.0  0.7545738389628336  0.36498071961853906  0.5925072363295258  1.0000
  H   H414      1.0  0.7474772170851756  0.38220732739062296  0.5665578174535463  1.0000
  H   H415      1.0  0.7885048607162881  0.35344775646766513  0.5723329648497071  1.0000
  H   H416      1.0  0.6725257945008462  0.3067025383857583  0.5705451882572269  1.0000
  H   H417      1.0  0.6870495672500889  0.33839746871452697  0.5912764970220568  1.0000
  H   H418      1.0  0.6805733030212541  0.3553781771790957  0.5652700171633136  1.0000
  H   H419      1.0  0.7440124732494672  0.2983809206537676  0.5998540209548385  1.0000
  H   H420      1.0  0.7775362106307394  0.2860798974827875  0.5797243937089255  1.0000
  H   H421      1.0  0.7287078846731941  0.2669278375019817  0.5792344073445277  1.0000
  H   H422      1.0  0.7690138010452526  0.3098703544110541  0.54407912433972  1.0000
  H   H423      1.0  0.7282654833709882  0.3388576361411097  0.53776309238023  1.0000
  H   H424      1.0  0.7200530413743732  0.29037754483184713  0.5430847618159519  1.0000
  N   N15       1.0  0.30608302101637547  0.08204444773059949  0.8757448864675296  1.0000
  C   C441      1.0  0.2953249009518579  0.053478119427000204  0.8598610545638544  1.0000
  C   C442      1.0  0.27791753126774166  0.08031816487833221  0.8931039242137458  1.0000
  C   C443      1.0  0.30506950200155536  0.11919125163895417  0.8661081580121257  1.0000
  C   C444      1.0  0.3460520643382397  0.0751181381192112  0.8839098753724942  1.0000
  H   H425      1.0  0.31618919397016143  0.053909265335779555  0.8466013573484998  1.0000
  H   H426      1.0  0.26540181907030164  0.05800992920429948  0.8532432376483996  1.0000
  H   H427      1.0  0.29575401074349716  0.025092687680078773  0.8665993061257298  1.0000
  H   H428      1.0  0.27729728441577334  0.05230297072190493  0.900374370296209  1.0000
  H   H429      1.0  0.28611345268269495  0.10046600427571839  0.9057965234060685  1.0000
  H   H430      1.0  0.24756200618821586  0.08641665978354851  0.8876732416719488  1.0000
  H   H431      1.0  0.27546647221450216  0.12506410487901376  0.8594075567567477  1.0000
  H   H432      1.0  0.3264896447562651  0.12150631590535355  0.8531773624205728  1.0000
  H   H433      1.0  0.31268024809225564  0.14144646096632751  0.8777013662407953  1.0000
  H   H434      1.0  0.3679530119934057  0.07506988224468514  0.8711565325712579  1.0000
  H   H435      1.0  0.3474992385613408  0.04781648978360953  0.891924334873757  1.0000
  H   H436      1.0  0.3555975510886798  0.09675326047520572  0.8955219314035566  1.0000
  N   N16       1.0  0.16839488080914575  0.9007516758858156  0.06498801317437475  1.0000
  C   C445      1.0  0.1616778119900241  0.8613442468719688  0.059029847904767285  1.0000
  C   C446      1.0  0.1302868427691867  0.9184322773682432  0.06874799280071642  1.0000
  C   C447      1.0  0.18892802142783846  0.9203471486941598  0.04798783701332421  1.0000
  C   C448      1.0  0.1926592335647307  0.9029667272514487  0.08428450094210316  1.0000
  H   H437      1.0  0.1898452172923724  0.846779922683282  0.05651365810713593  1.0000
  H   H438      1.0  0.1441458918039406  0.8586129336626198  0.04428462427772906  1.0000
  H   H439      1.0  0.14541159324749  0.8459643636256253  0.07134792962386616  1.0000
  H   H440      1.0  0.13427428876498196  0.9480441868563523  0.0736159242711194  1.0000
  H   H441      1.0  0.11136634382417099  0.9177401717095687  0.054443755119374604  1.0000
  H   H442      1.0  0.11380291229182087  0.9040860718310787  0.08134443733704444  1.0000
  H   H443      1.0  0.2180575196549314  0.9080537465083083  0.04491163666591724  1.0000
  H   H444      1.0  0.19404194030732164  0.9502547737642087  0.05191574565036272  1.0000
  H   H445      1.0  0.17168195965200087  0.919095316462161  0.03308012977161634  1.0000
  H   H446      1.0  0.2216453255203417  0.8897824915987782  0.0820386788274734  1.0000
  H   H447      1.0  0.17785911945984056  0.8886235346488783  0.09746290061275209  1.0000
  H   H448      1.0  0.19834975290666892  0.932373779457952  0.08917885317573626  1.0000
  N   N17       1.0  0.6139773097446263  0.7775103125403561  0.27353406176099165  1.0000
  C   C449      1.0  0.5868553669074272  0.7658123445967422  0.25641645138061303  1.0000
  C   C450      1.0  0.653233459431458  0.7624577943974753  0.26961132294471607  1.0000
  C   C451      1.0  0.5993392386372052  0.7631254501094511  0.29359329830517333  1.0000
  C   C452      1.0  0.6166313822133712  0.8184930649333684  0.27452323447246246  1.0000
  H   H449      1.0  0.556918503322631  0.7767777755814465  0.25876213177803226  1.0000
  H   H450      1.0  0.5839775592858754  0.7350290623467126  0.2554207484604774  1.0000
  H   H451      1.0  0.5973748113455818  0.7755913995079036  0.24099637422016118  1.0000
  H   H452      1.0  0.674307542942572  0.7700769866552395  0.2824085692867444  1.0000
  H   H453      1.0  0.6521365598926582  0.7317464703932411  0.2684907206627417  1.0000
  H   H454      1.0  0.6656741334594894  0.7730969675161721  0.25476593338567877  1.0000
  H   H455      1.0  0.6192646762109217  0.7712711883574506  0.30682616889519676  1.0000
  H   H456      1.0  0.5972343507196513  0.7322214406352429  0.29334939372576463  1.0000
  H   H457      1.0  0.5696217513806688  0.7738261195462256  0.2970460653639413  1.0000
  H   H458      1.0  0.6372318672825784  0.8281340713022067  0.2871757111032768  1.0000
  H   H459      1.0  0.587431781480812  0.8307662497777689  0.27751136400229354  1.0000
  H   H460      1.0  0.628040531270418  0.8301617220226438  0.2596801803714139  1.0000
  N   N18       1.0  0.2972814494833046  0.14571619467434418  0.7014954909624754  1.0000
  C   C453      1.0  0.3339879187613198  0.13537497219262826  0.7123558017564465  1.0000
  C   C454      1.0  0.30469626125571586  0.17897359012617292  0.6886454998831018  1.0000
  C   C455      1.0  0.26702443741612775  0.15398863768385376  0.7170934457234529  1.0000
  C   C456      1.0  0.2833964103260182  0.11449519072089558  0.6880174523582292  1.0000
  H   H461      1.0  0.3296216123327138  0.10979480005406755  0.7217817376789473  1.0000
  H   H462      1.0  0.3446075573882718  0.15795582762366286  0.7231498895838723  1.0000
  H   H463      1.0  0.35775178802022817  0.12996180538074717  0.7009959286171277  1.0000
  H   H464      1.0  0.3276577841091379  0.17378868624633484  0.6767796719918855  1.0000
  H   H465      1.0  0.27773626723864836  0.18747719178581254  0.6800877253922978  1.0000
  H   H466      1.0  0.31501083327901214  0.20300186848721496  0.6984784942722833  1.0000
  H   H467      1.0  0.23919894597262858  0.16291139296266471  0.7095403155480953  1.0000
  H   H468      1.0  0.27701505807343835  0.17663119646703207  0.7279737114959358  1.0000
  H   H469      1.0  0.2600104208305902  0.12904910239709444  0.7265948898282677  1.0000
  H   H470      1.0  0.2553857491090346  0.1210571953876153  0.6798638271663611  1.0000
  H   H471      1.0  0.27832337595208834  0.08878858349264512  0.6972834466925067  1.0000
  H   H472      1.0  0.3051780594539424  0.10781421078964817  0.6758298795690459  1.0000
  N   N19       1.0  0.6908975736149294  0.23520338491233422  0.9540903358367003  1.0000
  C   C457      1.0  0.6972051477993131  0.2758740879272636  0.9531802685452554  1.0000
  C   C458      1.0  0.6703102844448279  0.2222598190503672  0.9348422617003415  1.0000
  C   C459      1.0  0.6667286092632331  0.22595780587320421  0.9724046664942771  1.0000
  C   C460      1.0  0.7291429448886138  0.21666857480200674  0.9559016353986354  1.0000
  H   H473      1.0  0.6688098161123124  0.29068550016901545  0.9526936962787528  1.0000
  H   H474      1.0  0.7135400569276008  0.28400876217489834  0.9389538272343305  1.0000
  H   H475      1.0  0.7144137904262778  0.28649900171438597  0.9669477909387816  1.0000
  H   H476      1.0  0.6417710422788879  0.23635869965972056  0.9327846462681255  1.0000
  H   H477      1.0  0.6880127200822603  0.22775361006275033  0.9206899155672725  1.0000
  H   H478      1.0  0.6639955915263063  0.19187479158606738  0.9352133791950328  1.0000
  H   H479      1.0  0.6374837298273776  0.23927552046541922  0.9714472891075143  1.0000
  H   H480      1.0  0.6813713391454401  0.23523098540186843  0.9872323099438208  1.0000
  H   H481      1.0  0.6613611928493436  0.19545789821493945  0.9734995851181097  1.0000
  H   H482      1.0  0.7252673377567442  0.18599895183439777  0.9568294343663662  1.0000
  H   H483      1.0  0.7457723443347782  0.22588277479309918  0.9701751939159978  1.0000
  H   H484      1.0  0.7479441535019494  0.22248757658067073  0.9421995784411364  1.0000
  N   N20       1.0  0.47622763337816293  0.9265863664092314  0.24700982659290058  1.0000
  C   C461      1.0  0.5026742283534792  0.894756076102906  0.24941236741177553  1.0000
  C   C462      1.0  0.47044543219030294  0.9346959862941212  0.22459178117634188  1.0000
  C   C463      1.0  0.493919625955229  0.959512348909167  0.2577075242527558  1.0000
  C   C464      1.0  0.4378478414026517  0.9173526246267906  0.256342734042838  1.0000
  H   H485      1.0  0.5315926434397585  0.9002600897363424  0.24207104375342445  1.0000
  H   H486      1.0  0.48974788120888624  0.8689622940398125  0.2422316008054859  1.0000
  H   H487      1.0  0.508314967401005  0.8887014161981743  0.2662089026950579  1.0000
  H   H488      1.0  0.45049851637490196  0.9586248137891373  0.22236465228891966  1.0000
  H   H489      1.0  0.4987037024565068  0.9419612380059791  0.21698501984600732  1.0000
  H   H490      1.0  0.4570628321986089  0.9104722025748933  0.21605645713631214  1.0000
  H   H491      1.0  0.4746736545133822  0.984073884581848  0.2563611289817574  1.0000
  H   H492      1.0  0.5228143483604415  0.9673586639689192  0.25096571943242596  1.0000
  H   H493      1.0  0.4988459451647847  0.9543892319267775  0.27466974008451617  1.0000
  H   H494      1.0  0.4241795426126458  0.891993000957923  0.24909134196749358  1.0000
  H   H495      1.0  0.41673424955850863  0.9403441241927185  0.2544498857360838  1.0000
  H   H496      1.0  0.4408463041176158  0.9121229118371745  0.27332693560368776  1.0000
  N   N21       1.0  0.06607014888894969  0.0724085058146604  0.984737051268329  1.0000
  C   C465      1.0  0.10627297431227767  0.06518514475515147  0.9774908313995772  1.0000
  C   C466      1.0  0.0679111230701579  0.08706376629222445  0.006387264457875075  1.0000
  C   C467      1.0  0.042669017604292314  0.03744153239035164  0.9841339050263411  1.0000
  C   C468      1.0  0.047405117647619566  0.0999095044277345  0.9709454711212517  1.0000
  H   H497      1.0  0.12467940578875569  0.09101269281277435  0.9774187190281192  1.0000
  H   H498      1.0  0.10611914815218348  0.05309210337453951  0.9614293479616345  1.0000
  H   H499      1.0  0.12139666045250186  0.04516753268935125  0.987834740416772  1.0000
  H   H500      1.0  0.0864963318178229  0.11272616236456146  0.007576195063815794  1.0000
  H   H501      1.0  0.03818136353871715  0.09415250798335362  0.012045273301773518  1.0000
  H   H502      1.0  0.08054005238886597  0.0664396882768159  0.017371322981711623  1.0000
  H   H503      1.0  0.01209973239800144  0.04188796759644009  0.9894251940959782  1.0000
  H   H504      1.0  0.05571012527075525  0.01613512963630903  0.9944500244406197  1.0000
  H   H505      1.0  0.040799430109005774  0.025476701283368763  0.9680617604789574  1.0000
  H   H506      1.0  0.016864904761711763  0.10575350178927945  0.9759155029069176  1.0000
  H   H507      1.0  0.04557738792838295  0.08976537071397539  0.9544797626032077  1.0000
  H   H508      1.0  0.06399746408313667  0.1267972504795687  0.9711513315870403  1.0000
  N   N22       1.0  0.9026637832338685  0.052012439176639225  0.5483142999393693  1.0000
  C   C469      1.0  0.8744000972981519  0.059456796775785525  0.5650840546012155  1.0000
  C   C470      1.0  0.8908600128382735  0.01739212188521222  0.5371597874707489  1.0000
  C   C471      1.0  0.9423653949817049  0.04793557185766417  0.5574749347262745  1.0000
  C   C472      1.0  0.9028844782894206  0.08331868583796243  0.5335293751627792  1.0000
  H   H509      1.0  0.8732852274017996  0.03655089063582562  0.5766482168437244  1.0000
  H   H510      1.0  0.8441207895103368  0.062459103755352796  0.5585971676849566  1.0000
  H   H511      1.0  0.881992820519767  0.08560142038701657  0.5737522890483386  1.0000
  H   H512      1.0  0.9108879468488833  0.011275296602736962  0.5239874318277136  1.0000
  H   H513      1.0  0.8908686613534418  0.9930645531302971  0.5477463841894379  1.0000
  H   H514      1.0  0.8607089684954319  0.019270634270156073  0.5303832302172403  1.0000
  H   H515      1.0  0.9643337222645688  0.04228878272950265  0.5451530285087703  1.0000
  H   H516      1.0  0.9431931538368248  0.02459541408936783  0.5687605200431459  1.0000
  H   H517      1.0  0.9520988229770782  0.07360745479322883  0.566033789196105  1.0000
  H   H518      1.0  0.9125128507060531  0.10979823359217145  0.5412740577220413  1.0000
  H   H519      1.0  0.8730541376567837  0.08790942619985431  0.5269438613399821  1.0000
  H   H520      1.0  0.9226882741775032  0.07814345133298706  0.5201481318388442  1.0000
  N   N23       1.0  0.8337578249943367  0.05262475689441071  0.8428873591246211  1.0000
  C   C473      1.0  0.8423271696103738  0.02998512696652611  0.8241706945751706  1.0000
  C   C474      1.0  0.8376086863336646  0.09246072391784677  0.8377686494468615  1.0000
  C   C475      1.0  0.8618345599937378  0.04362756858681327  0.8598258698062191  1.0000
  C   C476      1.0  0.7933085083476535  0.044501022045470906  0.8498152162925426  1.0000
  H   H521      1.0  0.8386556639590832  0.9997827672183216  0.8272376687136404  1.0000
  H   H522      1.0  0.8731102349577275  0.034727041308331597  0.8190052856614346  1.0000
  H   H523      1.0  0.8226811075059514  0.036963170985272464  0.810766176602836  1.0000
  H   H524      1.0  0.8170793649241269  0.10015765244998476  0.8249297419439345  1.0000
  H   H525      1.0  0.8311748005964273  0.1103517886720522  0.8515397665351856  1.0000
  H   H526      1.0  0.8678914671530938  0.09968063835765162  0.8325904889913399  1.0000
  H   H527      1.0  0.8559543712611363  0.05990186187708213  0.8742924299526275  1.0000
  H   H528      1.0  0.892648676285591  0.050055532945466386  0.8552537310026266  1.0000
  H   H529      1.0  0.8600945414800029  0.013724383637661264  0.863978995597629  1.0000
  H   H530      1.0  0.7860435117639238  0.06124525258609492  0.8639418668752172  1.0000
  H   H531      1.0  0.7893309150543427  0.014712424279532232  0.8539205506875037  1.0000
  H   H532      1.0  0.771359923517135  0.050953109633049554  0.8373819055996011  1.0000
  N   N24       1.0  0.8833993803722575  0.41538199428330663  0.16161893141581032  1.0000
  C   C477      1.0  0.8427814981835208  0.40186102078026703  0.1650360653860575  1.0000
  C   C478      1.0  0.8823716084679964  0.4504802510226667  0.14984966458546461  1.0000
  C   C479      1.0  0.9049528826946401  0.3872170401972002  0.14962653058370973  1.0000
  C   C480      1.0  0.9034154929369824  0.4220055262904188  0.18198348146970109  1.0000
  H   H533      1.0  0.8423508546227986  0.3748886660520059  0.17338971816108448  1.0000
  H   H534      1.0  0.8265618309843448  0.3974150709180655  0.14999663054171372  1.0000
  H   H535      1.0  0.8259543035601746  0.4219297009996827  0.17458696754354716  1.0000
  H   H536      1.0  0.9124719303853569  0.46195509873004315  0.1472180474845761  1.0000
  H   H537      1.0  0.8678831237711975  0.44665538580866315  0.1342756002845185  1.0000
  H   H538      1.0  0.8658424161504966  0.4719991376293577  0.15851564442871516  1.0000
  H   H539      1.0  0.905870660573565  0.36030005057013054  0.15812863598235688  1.0000
  H   H540      1.0  0.9357686723169288  0.39646183968526855  0.14683604516982338  1.0000
  H   H541      1.0  0.8907312456593294  0.3815958503854808  0.134134821599762  1.0000
  H   H542      1.0  0.933337799176473  0.4342798013696385  0.18002006785559835  1.0000
  H   H543      1.0  0.9064453144694015  0.3957411851690852  0.19088071925212863  1.0000
  H   H544      1.0  0.886881676984912  0.44175149979485  0.19190773264828923  1.0000
  N   N25       1.0  0.48411893939830586  0.5259764998006056  0.8396893051565975  1.0000
  C   C481      1.0  0.49928246460354275  0.5524200417497543  0.8240857599344509  1.0000
  C   C482      1.0  0.509845831720763  0.49339472957638025  0.8407037914996317  1.0000
  C   C483      1.0  0.44379675144362907  0.5137608193478974  0.8337464192993688  1.0000
  C   C484      1.0  0.4834950591730363  0.5443838820458887  0.860367257356144  1.0000
  H   H545      1.0  0.48083451267466737  0.5776266719148394  0.823279462801981  1.0000
  H   H546      1.0  0.49904460042580445  0.5398440384752129  0.8081193506411346  1.0000
  H   H547      1.0  0.529852508665996  0.5617050414436237  0.8279097218169817  1.0000
  H   H548      1.0  0.4992712685805615  0.47303039286129184  0.8524478297386435  1.0000
  H   H549      1.0  0.5110929928189364  0.4788787381671869  0.8253113348410985  1.0000
  H   H550      1.0  0.5403879195437433  0.5016008478900066  0.8454600104656893  1.0000
  H   H551      1.0  0.4425761396076105  0.5012950953118115  0.817772790705958  1.0000
  H   H552      1.0  0.42322755158099185  0.5375049093653324  0.8337694050753501  1.0000
  H   H553      1.0  0.4318699457701584  0.4929129645781682  0.8448293270059624  1.0000
  H   H554      1.0  0.4713822686560511  0.5253015671122818  0.8722439027312646  1.0000
  H   H555      1.0  0.4645075475367535  0.5692582637381159  0.8602069172456164  1.0000
  H   H556      1.0  0.5134736927452995  0.5532069134765843  0.8657552539378512  1.0000
  N   N26       1.0  0.5193534622924694  0.582684216884561  0.5019899395827887  1.0000
  C   C485      1.0  0.5032832020266571  0.5455365927416107  0.49623770099359804  1.0000
  C   C486      1.0  0.4990006583236836  0.6112709159179391  0.4896833685912298  1.0000
  C   C487      1.0  0.5618396551240753  0.58416289832148  0.49759907219689087  1.0000
  C   C488      1.0  0.5133000139304635  0.5896730258940746  0.5244975493672579  1.0000
  H   H557      1.0  0.5074092502057349  0.5392483230687329  0.4793702576282339  1.0000
  H   H558      1.0  0.4712819637072096  0.5433913699722427  0.4993401590961446  1.0000
  H   H559      1.0  0.5178599637810166  0.5233034482262303  0.5053427576886219  1.0000
  H   H560      1.0  0.5106715967465217  0.6396480960147612  0.4933987754304267  1.0000
  H   H561      1.0  0.5020258225569849  0.6064501857221296  0.4725802190622491  1.0000
  H   H562      1.0  0.46705263364023614  0.6112421848042613  0.49302724128645575  1.0000
  H   H563      1.0  0.5675470128888024  0.579122816725564  0.48074050496968107  1.0000
  H   H564      1.0  0.577865030948735  0.5626503056350337  0.5066123372306581  1.0000
  H   H565      1.0  0.5750867329389118  0.6116423690358122  0.5019866136940019  1.0000
  H   H566      1.0  0.5238301551309371  0.6179075082357168  0.5293217277243761  1.0000
  H   H567      1.0  0.5292592125122066  0.5693159650511657  0.5342506658081  1.0000
  H   H568      1.0  0.4817372949774893  0.5873669324237183  0.5285797370682795  1.0000
  N   N27       1.0  0.6489555649446057  0.6441162880573263  0.7637120858413817  1.0000
  C   C489      1.0  0.6750536121179693  0.6772282238113774  0.7654969530577396  1.0000
  C   C490      1.0  0.672419575259932  0.610906416973041  0.7591650176741263  1.0000
  C   C491      1.0  0.6201749137882909  0.6495099574387994  0.7466278454410611  1.0000
  C   C492      1.0  0.6278484457197224  0.6387929990193729  0.7835224763985591  1.0000
  H   H569      1.0  0.6582220182062616  0.702661838853512  0.7691311722573836  1.0000
  H   H570      1.0  0.6909909997576666  0.6823489143144582  0.7506926955684341  1.0000
  H   H571      1.0  0.6976898935099589  0.6739261387000358  0.7780085652387265  1.0000
  H   H572      1.0  0.6937244226111722  0.605326783318517  0.7720306566854973  1.0000
  H   H573      1.0  0.6533795241253345  0.5856046142455625  0.7571286463418692  1.0000
  H   H574      1.0  0.6894213339937388  0.6142908543343286  0.7445378920314258  1.0000
  H   H575      1.0  0.6348333861720187  0.6526346461699596  0.7312830886460134  1.0000
  H   H576      1.0  0.6023812403395871  0.674724346506797  0.7492985547518992  1.0000
  H   H577      1.0  0.599504223160317  0.625354782085947  0.74537685725606  1.0000
  H   H578      1.0  0.6085355224029254  0.6627420670797332  0.7869453591657748  1.0000
  H   H579      1.0  0.6486590563310413  0.6358153084266791  0.7969207262017447  1.0000
  H   H580      1.0  0.6088084865471586  0.61333211216571  0.7828274954930362  1.0000
  N   N28       1.0  0.3934702986062501  0.8008265234211615  0.36145528032278346  1.0000
  C   C493      1.0  0.35053059946128046  0.8032754892280775  0.3582841048778655  1.0000
  C   C494      1.0  0.40205562902811204  0.7752659092251509  0.37881885124217507  1.0000
  C   C495      1.0  0.40980944525619595  0.8381841447865842  0.3664939959981137  1.0000
  C   C496      1.0  0.41146248558922854  0.7866023262472364  0.34215103717727563  1.0000
  H   H581      1.0  0.3430552835333106  0.8234269070094072  0.3457666434181383  1.0000
  H   H582      1.0  0.33572507360266113  0.8122904207947793  0.37280408290756445  1.0000
  H   H583      1.0  0.3372637139215658  0.7759582319965556  0.35366879550610525  1.0000
  H   H584      1.0  0.4341945595866265  0.772046948929518  0.3812688324825964  1.0000
  H   H585      1.0  0.38972742992069975  0.7852835173261783  0.39378355800334336  1.0000
  H   H586      1.0  0.3891683716690843  0.7471272564101084  0.3757382936732805  1.0000
  H   H587      1.0  0.3971657387063976  0.849459651723716  0.3811405218621985  1.0000
  H   H588      1.0  0.40306712904592007  0.8582747463437985  0.35385165812334085  1.0000
  H   H589      1.0  0.44225196423093277  0.837687885352902  0.36858000849462885  1.0000
  H   H590      1.0  0.4045862898991775  0.8045011837399331  0.3286235173598512  1.0000
  H   H591      1.0  0.40046119715590234  0.7580965160647256  0.3381943526766073  1.0000
  H   H592      1.0  0.4439846933005016  0.7853954539128886  0.34365220467505436  1.0000
  N   N29       1.0  0.5142187727519513  0.30174481638723777  0.5532883245297614  1.0000
  C   C497      1.0  0.5521735490893801  0.3211969650415012  0.550032444836785  1.0000
  C   C498      1.0  0.5136853263402203  0.2657052876770321  0.5420160559329439  1.0000
  C   C499      1.0  0.48194313833214175  0.3248367904225931  0.5453066759284236  1.0000
  C   C500      1.0  0.5089207851838423  0.2952568481853481  0.575848969836683  1.0000
  H   H593      1.0  0.5533711132197582  0.3484122806042135  0.5584650844221133  1.0000
  H   H594      1.0  0.557010798584919  0.3267916971851093  0.5331750165247807  1.0000
  H   H595      1.0  0.5771735059380448  0.3044009086505859  0.5557707358040428  1.0000
  H   H596      1.0  0.5373325443809984  0.24729023865520064  0.5477634517039577  1.0000
  H   H597      1.0  0.48525944157287476  0.25047715512941005  0.5441237707328863  1.0000
  H   H598      1.0  0.5177266752232045  0.2694584119731902  0.5249367108801903  1.0000
  H   H599      1.0  0.48049365725315624  0.3518230965473334  0.5539092220530301  1.0000
  H   H600      1.0  0.45294942788610093  0.3105541546059366  0.5470578801455944  1.0000
  H   H601      1.0  0.48531630410095206  0.3312005263675338  0.5284467454280406  1.0000
  H   H602      1.0  0.4809366379650979  0.28004040301431565  0.5788000975971649  1.0000
  H   H603      1.0  0.5079406195711839  0.32180934765883235  0.5848686184517269  1.0000
  H   H604      1.0  0.5328495831691291  0.2783702623129852  0.5826264251156164  1.0000
  N   N30       1.0  0.4988871883960875  0.05047807853571595  0.6409336663183788  1.0000
  C   C501      1.0  0.48240393536714826  0.02484373264813766  0.6565841920022754  1.0000
  C   C502      1.0  0.5418675880735075  0.04619172158692564  0.6399511801753263  1.0000
  C   C503      1.0  0.49005279068229546  0.08906946118042257  0.6470026606647948  1.0000
  C   C504      1.0  0.4812408676696003  0.04196617481778242  0.6201788008422728  1.0000
  H   H605      1.0  0.4967036541393279  0.028914561834407992  0.6722005800956055  1.0000
  H   H606      1.0  0.48573453045172454  0.9953172213460859  0.6518106671860431  1.0000
  H   H607      1.0  0.45055382160661467  0.029353269312313968  0.6586507524258013  1.0000
  H   H608      1.0  0.554917380410536  0.06531423422134863  0.6282152874595317  1.0000
  H   H609      1.0  0.5561618061976966  0.05255525329135424  0.6553461702449034  1.0000
  H   H610      1.0  0.5495379060019753  0.017351137636796743  0.635406525132773  1.0000
  H   H611      1.0  0.5017457122960003  0.09603790609265422  0.6628961646058039  1.0000
  H   H612      1.0  0.45782341547188676  0.09378559749409349  0.6471321160840406  1.0000
  H   H613      1.0  0.5032270785380414  0.10919586522809198  0.6359223740285774  1.0000
  H   H614      1.0  0.449074748290631  0.04607059161155002  0.6201187458080548  1.0000
  H   H615      1.0  0.4863112643366399  0.01270354803774687  0.6153558551276793  1.0000
  H   H616      1.0  0.49352582619559215  0.06031884599331817  0.6078970897010344  1.0000
  N   N31       1.0  0.6316638021846076  0.8678380559020761  0.6965640561714036  1.0000
  C   C505      1.0  0.6034784642514118  0.8885780504173816  0.6836267431679356  1.0000
  C   C506      1.0  0.6693385722719889  0.8888329439147906  0.6978507370079521  1.0000
  C   C507      1.0  0.6378996898902318  0.8309150438980379  0.6870135951056674  1.0000
  C   C508      1.0  0.6157190857091371  0.8631375509092682  0.7177684197168462  1.0000
  H   H617      1.0  0.5963306133791009  0.9155374612481885  0.6911167237498756  1.0000
  H   H618      1.0  0.5753668817033003  0.8728304823199649  0.6813695086011425  1.0000
  H   H619      1.0  0.6153976362677721  0.894421366792085  0.6678554745531281  1.0000
  H   H620      1.0  0.6915053026846111  0.8740604531137763  0.7074703182550368  1.0000
  H   H621      1.0  0.6820917063577929  0.8930968634745626  0.6820830531813746  1.0000
  H   H622      1.0  0.6655276786959  0.9169194839105171  0.7048875125574453  1.0000
  H   H623      1.0  0.6502538033766517  0.8332693756675678  0.6710533479983803  1.0000
  H   H624      1.0  0.6098793366223542  0.8145587425615166  0.6856570603434452  1.0000
  H   H625      1.0  0.6587337629219442  0.8142757884483822  0.6964718179764129  1.0000
  H   H626      1.0  0.6360221216057824  0.8471972801302279  0.7279201225470979  1.0000
  H   H627      1.0  0.5870082332859012  0.8478701323768403  0.7172551556651393  1.0000
  H   H628      1.0  0.6107761797331339  0.8904513499969243  0.7255005117224431  1.0000
  N   N32       1.0  0.3697629908237268  0.644084785583656  0.14029055084160358  1.0000
  C   C509      1.0  0.37446340924944777  0.6710998601400661  0.15769613698535065  1.0000
  C   C510      1.0  0.3316758987395326  0.6241621218802922  0.1421107453644863  1.0000
  C   C511      1.0  0.4019391066689407  0.6170893125232049  0.14120297840724044  1.0000
  C   C512      1.0  0.3709501146006789  0.6639371881529539  0.12018497166096664  1.0000
  H   H629      1.0  0.40303399441198134  0.6864643917404051  0.15699439092264794  1.0000
  H   H630      1.0  0.3735855223688457  0.6569812724484242  0.17304546071835136  1.0000
  H   H631      1.0  0.3506355923278112  0.6918532629499818  0.15760778191391592  1.0000
  H   H632      1.0  0.32669141283553843  0.6041381704989939  0.12899006225277332  1.0000
  H   H633      1.0  0.3303248595241572  0.6079334255820313  0.15679684229455693  1.0000
  H   H634      1.0  0.3066848382445772  0.6436363766673532  0.14208408557574753  1.0000
  H   H635      1.0  0.3988352454728302  0.595738774292838  0.12859619076417417  1.0000
  H   H636      1.0  0.4021826631369607  0.6019478452373845  0.15629702403902176  1.0000
  H   H637      1.0  0.43115509202668245  0.63100344392037  0.13964819833758327  1.0000
  H   H638      1.0  0.3989336445285678  0.6799303006077738  0.11842491467149152  1.0000
  H   H639      1.0  0.34635698174383683  0.6837300833079797  0.1186580082242994  1.0000
  H   H640      1.0  0.3684061879167104  0.6442889239915152  0.10672278754254738  1.0000
  N   N33       1.0  0.9158231152877596  0.33123410109131496  0.9144240096007592  1.0000
  C   C513      1.0  0.9195708741883836  0.3262434219855344  0.9372699738696332  1.0000
  C   C514      1.0  0.939629347071022  0.30326447778962434  0.9035409896002442  1.0000
  C   C515      1.0  0.9298045997705356  0.36891897133746204  0.9088486299411302  1.0000
  C   C516      1.0  0.8741943757404163  0.3264835364368496  0.9080233550956328  1.0000
  H   H641      1.0  0.9007773845670719  0.3459342763701781  0.9459854761735013  1.0000
  H   H642      1.0  0.9503651907075387  0.3306756484530707  0.9428405926271751  1.0000
  H   H643      1.0  0.91047167764482  0.29765291264910615  0.9419258492982832  1.0000
  H   H644      1.0  0.971390530550766  0.306767505879127  0.9074491850115838  1.0000
  H   H645      1.0  0.9308169890442582  0.27449213117858146  0.9079532923956979  1.0000
  H   H646      1.0  0.93626647379844  0.3051926947246133  0.8862236280217992  1.0000
  H   H647      1.0  0.9124538728549734  0.3907256993320612  0.9167845376896477  1.0000
  H   H648      1.0  0.927382476051516  0.3735813534743186  0.8916904942263807  1.0000
  H   H649      1.0  0.9611136240045416  0.37358150850646843  0.9134495355201949  1.0000
  H   H650      1.0  0.8704078899442624  0.3291560696614283  0.8907999916505981  1.0000
  H   H651      1.0  0.8553961034877335  0.3475493528547006  0.9156627827119302  1.0000
  H   H652      1.0  0.8625410726901768  0.2986578242299591  0.912446148249978  1.0000
  N   N34       1.0  0.305881899920846  0.7752858732924559  0.9636805781922383  1.0000
  C   C517      1.0  0.33816004781281783  0.7635334386619063  0.9776570537280341  1.0000
  C   C518      1.0  0.2680878432539817  0.7607275189237672  0.9715870019726756  1.0000
  C   C519      1.0  0.3123136170342904  0.7605333049351969  0.9424034393313621  1.0000
  C   C520      1.0  0.3049763353339921  0.8162902141861282  0.9630737547902409  1.0000
  H   H653      1.0  0.33986621613081863  0.732685627180688  0.9783070723363188  1.0000
  H   H654      1.0  0.3340424749729676  0.7738352090285397  0.9939007072092435  1.0000
  H   H655      1.0  0.3671096714375458  0.7743757154156907  0.9723519398843724  1.0000
  H   H656      1.0  0.2626734810083642  0.7706031745208065  0.9878090109387936  1.0000
  H   H657      1.0  0.24289591793641727  0.7696525191876307  0.9617310198369948  1.0000
  H   H658      1.0  0.2674981738737127  0.7298463375234805  0.9718817323042738  1.0000
  H   H659      1.0  0.3405337229130949  0.7710966443806603  0.9359640602058817  1.0000
  H   H660      1.0  0.2883018235079196  0.7685265746498698  0.9314765588848025  1.0000
  H   H661      1.0  0.3134353502041164  0.7296303976129298  0.9423588065448316  1.0000
  H   H662      1.0  0.2815478840375301  0.826239151113633  0.9523374120465518  1.0000
  H   H663      1.0  0.33347941793741764  0.8285048339346288  0.9579543113062712  1.0000
  H   H664      1.0  0.2990248563974266  0.8281685440516964  0.9787391913200694  1.0000
  N   N35       1.0  0.7808810443964549  0.5390199451611372  0.8748388579568621  1.0000
  C   C521      1.0  0.8186998564912659  0.5490835137829876  0.8651076451938654  1.0000
  C   C522      1.0  0.7741786203676576  0.49847600376669504  0.8728564715877234  1.0000
  C   C523      1.0  0.7485835615490263  0.5585252032778573  0.8641889937833749  1.0000
  C   C524      1.0  0.7820673207288961  0.5499261722863512  0.8971719757573157  1.0000
  H   H665      1.0  0.8247135749920271  0.5795025451543905  0.8660025563888011  1.0000
  H   H666      1.0  0.8190460276370753  0.5407192152417627  0.8483059173334654  1.0000
  H   H667      1.0  0.843661941380862  0.5350219824114568  0.8729911116824525  1.0000
  H   H668      1.0  0.7733355442349751  0.4894660615726894  0.8561342314957564  1.0000
  H   H669      1.0  0.7980938628820546  0.4829580886943216  0.8806886129775786  1.0000
  H   H670      1.0  0.745966547731179  0.48967236756446003  0.8800263381552941  1.0000
  H   H671      1.0  0.7463730489556939  0.5504925335357926  0.8473856465054715  1.0000
  H   H672      1.0  0.7530535331771212  0.5891801408567996  0.8649915074381977  1.0000
  H   H673      1.0  0.7197344960484757  0.5517575250995138  0.8713511124626191  1.0000
  H   H674      1.0  0.75397863610438  0.5429585071382416  0.9050554609364906  1.0000
  H   H675      1.0  0.7875550954500776  0.5802908755980926  0.8992071576223573  1.0000
  H   H676      1.0  0.8058626143170615  0.5355364844800228  0.9057612038452665  1.0000
  N   N36       1.0  0.9086698189238632  0.11794623533838283  0.07355797086127747  1.0000
  C   C525      1.0  0.9339770799406876  0.1434881082621324  0.08622139284076713  1.0000
  C   C526      1.0  0.8675386829598603  0.12088147934229743  0.08037318251798209  1.0000
  C   C527      1.0  0.9218535590049625  0.07938715484787268  0.07631475067348648  1.0000
  C   C528      1.0  0.9112658937322321  0.12796760172550992  0.05125030903819927  1.0000
  H   H677      1.0  0.9652928800700291  0.14165156125601902  0.08163671575289744  1.0000
  H   H678      1.0  0.932380597883168  0.13709720346059712  0.10320387453098356  1.0000
  H   H679      1.0  0.925036931676856  0.17287511242181008  0.08436220892525492  1.0000
  H   H680      1.0  0.8476967548363926  0.10180495667975696  0.0711740081269645  1.0000
  H   H681      1.0  0.8645029425681621  0.11372800308578661  0.0971795345530806  1.0000
  H   H682      1.0  0.8565552438350548  0.14958613336324966  0.07835516772177376  1.0000
  H   H683      1.0  0.9031143937078395  0.05938668966504013  0.0671323876173564  1.0000
  H   H684      1.0  0.9206865273892173  0.07071723279632347  0.09291987552257175  1.0000
  H   H685      1.0  0.9526172979075069  0.07601948540361225  0.07106993221308278  1.0000
  H   H686      1.0  0.9015460389762341  0.1568690843945963  0.04843644440715322  1.0000
  H   H687      1.0  0.892560986913794  0.10920284573310604  0.04121880952693435  1.0000
  H   H688      1.0  0.9418469651018903  0.12583926897408035  0.04547287730364724  1.0000
  N   N37       1.0  0.016758227116731916  0.3475728010337256  0.2540329442035089  1.0000
  C   C529      1.0  0.0589348781991601  0.34644493528506015  0.24897387388121378  1.0000
  C   C530      1.0  0.004210978147169309  0.3115175391020587  0.2628369326359174  1.0000
  C   C531      1.0  0.9937838338358708  0.3549603007585526  0.23480739029628775  1.0000
  C   C532      1.0  0.010090642420406803  0.37743476134053466  0.2694928158163517  1.0000
  H   H689      1.0  0.06937650359527114  0.37333758558216384  0.24240600528978526  1.0000
  H   H690      1.0  0.06480480727623328  0.3242359831416077  0.23724130268534432  1.0000
  H   H691      1.0  0.0771688537090478  0.34086649073913367  0.2631083296308451  1.0000
  H   H692      1.0  0.9720514720460487  0.31074273840031674  0.26587303344244156  1.0000
  H   H693      1.0  0.010699332052352295  0.28811764954038965  0.25200032766237995  1.0000
  H   H694      1.0  0.01961288768655578  0.3059093661927166  0.2778827719623082  1.0000
  H   H695      1.0  0.9617265282105392  0.3559863108994536  0.2380299700425918  1.0000
  H   H696      1.0  0.9981751023580351  0.3330192517999744  0.2227519605671797  1.0000
  H   H697      1.0  0.0026323880550229717  0.38203127136818105  0.22786223924208493  1.0000
  H   H698      1.0  0.9785470849877766  0.3788376795920411  0.2736929437141932  1.0000
  H   H699      1.0  0.018923505898165827  0.40507453211896416  0.26330203941687086  1.0000
  H   H700      1.0  0.027125360720044567  0.373120085260001  0.2841811353258148  1.0000
  N   N38       1.0  0.22407109581032522  0.28310829046253805  0.8228476498724786  1.0000
  C   C533      1.0  0.18824830991151795  0.2821840577396288  0.8095670891242663  1.0000
  C   C534      1.0  0.21675514539627902  0.3045017009171257  0.8421737282733938  1.0000
  C   C535      1.0  0.2566121614292987  0.3009129761058874  0.8113610119362158  1.0000
  C   C536      1.0  0.23469409443853226  0.24468729446896886  0.8282194274587126  1.0000
  H   H701      1.0  0.17943446165487834  0.31046998025811967  0.8048333336416014  1.0000
  H   H702      1.0  0.16300915083306358  0.2687972385944849  0.8176460132510033  1.0000
  H   H703      1.0  0.19293991047134926  0.2662492952108603  0.7949098112887043  1.0000
  H   H704      1.0  0.24316979642289507  0.3055530547313027  0.8525877621117233  1.0000
  H   H705      1.0  0.2094167850591624  0.33380408163096853  0.8386605366925192  1.0000
  H   H706      1.0  0.1919839549920761  0.2921807087967534  0.8510893235390522  1.0000
  H   H707      1.0  0.2836260390263702  0.30387978578702235  0.8212225980036494  1.0000
  H   H708      1.0  0.24885861776614338  0.32924585477948987  0.8060066239094998  1.0000
  H   H709      1.0  0.264196211482624  0.2843739224134784  0.7972924478889263  1.0000
  H   H710      1.0  0.26176497698027534  0.24404111033877807  0.8380840004969582  1.0000
  H   H711      1.0  0.24013092060837474  0.22779548608164496  0.8139180439449323  1.0000
  H   H712      1.0  0.2107092312031198  0.2302480493766795  0.8368091362906228  1.0000
  N   N39       1.0  0.44167780818674646  0.03973067922177198  0.7699731624081386  1.0000
  C   C537      1.0  0.4253390449049753  0.016816534513534265  0.7869475526378852  1.0000
  C   C538      1.0  0.44939915852333695  0.07788787755874993  0.7778839244779105  1.0000
  C   C539      1.0  0.41319619493567716  0.04075008120696233  0.7523825453189183  1.0000
  C   C540      1.0  0.47864058726073366  0.023357804252154946  0.7626738720975913  1.0000
  H   H713      1.0  0.4202926215308372  0.9875105506897552  0.7817513062016063  1.0000
  H   H714      1.0  0.3967054795907954  0.027632856780699155  0.7923378312918624  1.0000
  H   H715      1.0  0.44540514416891086  0.01647203669160291  0.8007947040369353  1.0000
  H   H716      1.0  0.46199864939181534  0.09601056511258088  0.7655837404930712  1.0000
  H   H717      1.0  0.4219475712614037  0.09090732373688937  0.7834126474215904  1.0000
  H   H718      1.0  0.4702870504537254  0.07813239327424659  0.7914140849976711  1.0000
  H   H719      1.0  0.42404375207668066  0.058501914473302996  0.7394701641884446  1.0000
  H   H720      1.0  0.38436440003633293  0.05152580318902955  0.7574185595196017  1.0000
  H   H721      1.0  0.4076198206135892  0.01251419900945483  0.7457573776106672  1.0000
  H   H722      1.0  0.4916144439264665  0.039561288620769464  0.7496280542985513  1.0000
  H   H723      1.0  0.47366893046293995  0.9944038386408041  0.756766947274648  1.0000
  H   H724      1.0  0.5009844188624968  0.02229327903690481  0.7754776948504946  1.0000
  N   N40       1.0  0.058791459586183814  0.35427879086823655  0.7740415169552918  1.0000
  C   C541      1.0  0.04693430566234458  0.39030676533753095  0.7652657253648559  1.0000
  C   C542      1.0  0.07221782806208199  0.32963554688973695  0.7570714813669045  1.0000
  C   C543      1.0  0.025028540447476377  0.3366859340247581  0.7846169192592773  1.0000
  C   C544      1.0  0.09119036088243204  0.36049370148627524  0.7892849794638834  1.0000
  H   H725      1.0  0.03633512166362651  0.40937060564448213  0.7776849086383242  1.0000
  H   H726      1.0  0.022822474656457592  0.3867263248738757  0.7534939971684118  1.0000
  H   H727      1.0  0.0720003892767136  0.40470301579821877  0.7575545732578277  1.0000
  H   H728      1.0  0.08205400282582498  0.30244085874557225  0.7632678634645996  1.0000
  H   H729      1.0  0.048437458805090206  0.3237051131009565  0.745388971475241  1.0000
  H   H730      1.0  0.09761446453930334  0.3421755397845925  0.7487042812110756  1.0000
  H   H731      1.0  0.0331741572349975  0.3095839741521067  0.7915658438821732  1.0000
  H   H732      1.0  0.0001521332069662762  0.33115312704851885  0.7735168298812574  1.0000
  H   H733      1.0  0.01410278511724039  0.3546372402857898  0.7974701708772893  1.0000
  H   H734      1.0  0.10121476490471881  0.3338427604002032  0.7960352324371166  1.0000
  H   H735      1.0  0.08223375344364459  0.37888784651068086  0.802399599820324  1.0000
  H   H736      1.0  0.11694897429207662  0.3739492149998458  0.7817540131042064  1.0000
  N   N41       1.0  0.8779948811305471  0.7912532836800551  0.6718022683968191  1.0000
  C   C545      1.0  0.8801569052704153  0.7526236722468623  0.6639418568302607  1.0000
  C   C546      1.0  0.9135716640389481  0.8123754895878639  0.6657217992135862  1.0000
  C   C547      1.0  0.8752059752488323  0.7911885108080611  0.6948316419793585  1.0000
  C   C548      1.0  0.8429509342931378  0.8089556837637455  0.6627456655645432  1.0000
  H   H737      1.0  0.8828484331269447  0.7515147142457391  0.6466446554656146  1.0000
  H   H738      1.0  0.8533697288227318  0.7361543152929506  0.6679333319654581  1.0000
  H   H739      1.0  0.9057179353728391  0.7379153998594503  0.6707670702541296  1.0000
  H   H740      1.0  0.9164696752614793  0.8133263013960494  0.6484319976339384  1.0000
  H   H741      1.0  0.9127431911712411  0.8416128331224991  0.6715753695386297  1.0000
  H   H742      1.0  0.9406106798795293  0.7996964564397192  0.6722415531780224  1.0000
  H   H743      1.0  0.9009305281582549  0.7777230045190737  0.7022453529360395  1.0000
  H   H744      1.0  0.8483769054269414  0.7760367456589228  0.6999851730739262  1.0000
  H   H745      1.0  0.8736461157639829  0.8199625818329564  0.7012907388649611  1.0000
  H   H746      1.0  0.8437112102191818  0.8092373544711913  0.6453825769838039  1.0000
  H   H747      1.0  0.8405766679202609  0.8382618975389005  0.6682454998937797  1.0000
  H   H748      1.0  0.8155165759787445  0.7939559044504048  0.6672580280436587  1.0000
  N   N42       1.0  0.26509828738298696  0.09041306938342308  0.25367352686574723  1.0000
  C   C549      1.0  0.2806728964693001  0.06590638029767781  0.2372338632940403  1.0000
  C   C550      1.0  0.24563681783480823  0.0675996487266981  0.2697308726896318  1.0000
  C   C551      1.0  0.2363748148351002  0.11590354288259297  0.24429758636471516  1.0000
  C   C552      1.0  0.29775558486610404  0.11222333296611575  0.2633976267879764  1.0000
  H   H749      1.0  0.25700971876993683  0.048560771494235766  0.2297311549118288  1.0000
  H   H750      1.0  0.3032478928880693  0.046889505362767814  0.24362575094109726  1.0000
  H   H751      1.0  0.29473857481313787  0.08239325365579986  0.2246998581789727  1.0000
  H   H752      1.0  0.23395663171632472  0.08522297335379747  0.2825349048656783  1.0000
  H   H753      1.0  0.22073121157327916  0.050876390526580995  0.2629892246477472  1.0000
  H   H754      1.0  0.26655363785391245  0.048083691874357015  0.27712375703303804  1.0000
  H   H755      1.0  0.22385712669273336  0.13480892512523357  0.2562305524363557  1.0000
  H   H756      1.0  0.21137909455919596  0.10038532179334947  0.23672412973932078  1.0000
  H   H757      1.0  0.24999311047638564  0.13357975781551978  0.2320641355440523  1.0000
  H   H758      1.0  0.2872773267866894  0.13025499652889816  0.276326267442079  1.0000
  H   H759      1.0  0.3125667003004649  0.13034658815151046  0.2517953913142455  1.0000
  H   H760      1.0  0.3203727775928606  0.09379284977960611  0.2702705873742621  1.0000
  N   N43       1.0  0.2617328590514776  0.6095832513696768  0.49891546530049447  1.0000
  C   C553      1.0  0.23619251127939966  0.6421224808153625  0.5010298676004163  1.0000
  C   C554      1.0  0.2807113020686678  0.6103987865121435  0.47829710075682813  1.0000
  C   C555      1.0  0.2379051707750306  0.5750946619646993  0.5006666041106539  1.0000
  C   C556      1.0  0.2921719310042583  0.6107926766401156  0.5155937595128772  1.0000
  H   H761      1.0  0.22124614914371699  0.6426034788987689  0.5163699839963148  1.0000
  H   H762      1.0  0.2130419368654104  0.6423691186417098  0.4885616236803975  1.0000
  H   H763      1.0  0.25331978092130525  0.6686298394637257  0.49968027899913625  1.0000
  H   H764      1.0  0.3000366796620204  0.5861222220538046  0.47595641949178774  1.0000
  H   H765      1.0  0.2586895845121384  0.6103070695847216  0.4652898542959161  1.0000
  H   H766      1.0  0.29945041287299  0.6357433071450919  0.47659835111075094  1.0000
  H   H767      1.0  0.2564287416491662  0.550051523074961  0.4991298341943774  1.0000
  H   H768      1.0  0.21474457305385153  0.5733518283240454  0.48823119924793495  1.0000
  H   H769      1.0  0.22305516712811202  0.5735659276256078  0.5160335476232865  1.0000
  H   H770      1.0  0.3125853141948256  0.5871026522038252  0.5142060132809987  1.0000
  H   H771      1.0  0.27906658713523047  0.6096292366418286  0.5314122521273015  1.0000
  H   H772      1.0  0.310257755126502  0.6367889199323127  0.5148813345398546  1.0000
  N   N44       1.0  0.919690605121631  0.8403804988623194  0.07011401764716574  1.0000
  C   C557      1.0  0.9218377170962967  0.7994829790745241  0.07135076243597394  1.0000
  C   C558      1.0  0.9053698358247853  0.8553966439396629  0.09013046764270305  1.0000
  C   C559      1.0  0.8924567263697092  0.8506393025853388  0.05303480418222195  1.0000
  C   C560      1.0  0.9591428094472593  0.8561521110950588  0.06596727693600024  1.0000
  H   H773      1.0  0.9421280663029037  0.7910012719334311  0.08409345838503612  1.0000
  H   H774      1.0  0.9328011860104257  0.7870718615711746  0.05659286200864  1.0000
  H   H775      1.0  0.8926832137538231  0.7865190977588252  0.07462809559872374  1.0000
  H   H776      1.0  0.9031040058163494  0.8862256018381155  0.08964911857960045  1.0000
  H   H777      1.0  0.8758364087228806  0.8438268681561665  0.09391004523767843  1.0000
  H   H778      1.0  0.9254906690930506  0.8485020253684465  0.10333726492806794  1.0000
  H   H779      1.0  0.9025016944834495  0.8399573380437874  0.03767511210940078  1.0000
  H   H780      1.0  0.8901978032059212  0.8814120928116035  0.05175965169753605  1.0000
  H   H781      1.0  0.8623583758027947  0.8392635559136551  0.05566095692597628  1.0000
  H   H782      1.0  0.9802728246686546  0.8497615330481807  0.07878439951460248  1.0000
  H   H783      1.0  0.9583457876070967  0.886907109466057  0.06453577703771862  1.0000
  H   H784      1.0  0.9713685526325757  0.844857144006048  0.05123691306162503  1.0000
  N   N45       1.0  0.41378016594974526  0.7405200773765557  0.6981776868525157  1.0000
  C   C561      1.0  0.3869404813969241  0.7102701104539133  0.704780197226811  1.0000
  C   C562      1.0  0.394952407541443  0.7620721392249907  0.6813627273301038  1.0000
  C   C563      1.0  0.45046650913179415  0.7244361567080715  0.6903418681850099  1.0000
  C   C564      1.0  0.42281330918115917  0.7653425336087972  0.7161857199425057  1.0000
  H   H785      1.0  0.4006324846676426  0.6931925604591453  0.7172317881878052  1.0000
  H   H786      1.0  0.37942157758323897  0.6910579119022295  0.6915345038526695  1.0000
  H   H787      1.0  0.35902978520353346  0.7212431089755719  0.7109643668471781  1.0000
  H   H788      1.0  0.38779683880734783  0.7442247161890603  0.6674933014871137  1.0000
  H   H789      1.0  0.3672494225533109  0.7747829155749035  0.6867317549702318  1.0000
  H   H790      1.0  0.41463410813765744  0.7851167404873769  0.6760512484504988  1.0000
  H   H791      1.0  0.4708723816981087  0.7464250987119151  0.68456396166536  1.0000
  H   H792      1.0  0.4445674709851289  0.7044922745132233  0.6772249276405368  1.0000
  H   H793      1.0  0.4661468308937703  0.7088670257025794  0.7027867754234721  1.0000
  H   H794      1.0  0.43931776290827196  0.7506878667123413  0.7287043963261831  1.0000
  H   H795      1.0  0.3956656952049017  0.7764763028225857  0.7231981474812164  1.0000
  H   H796      1.0  0.4409973377976333  0.7896965090273997  0.7114076767222483  1.0000
  N   N46       1.0  0.4323481796539771  0.31664279546202423  0.8862610421784688  1.0000
  C   C565      1.0  0.39279857068764135  0.32400948279641334  0.8943958058726352  1.0000
  C   C566      1.0  0.4542511836700697  0.3521531738056946  0.8840782911841983  1.0000
  C   C567      1.0  0.42888085443107227  0.2978242843353694  0.8656824492160948  1.0000
  C   C568      1.0  0.4535245206716133  0.29249475673452574  0.900970698574634  1.0000
  H   H797      1.0  0.37592432963556927  0.34223013958135673  0.8837123481836232  1.0000
  H   H798      1.0  0.3945932578923884  0.3381726752852632  0.9099620729997887  1.0000
  H   H799      1.0  0.37557914904243117  0.2977601210556315  0.8963915079679549  1.0000
  H   H800      1.0  0.4393912813855002  0.3708570712210009  0.8728367045206237  1.0000
  H   H801      1.0  0.45662095912333  0.367259542575631  0.899291390128604  1.0000
  H   H802      1.0  0.4846387737966053  0.3475613202274823  0.8785408240126434  1.0000
  H   H803      1.0  0.41290772799999564  0.31500580758961433  0.8541045153555628  1.0000
  H   H804      1.0  0.41301513016040026  0.27061766967569745  0.8668843910179701  1.0000
  H   H805      1.0  0.4583366026854923  0.29165980070133246  0.8592477969399802  1.0000
  H   H806      1.0  0.45590693952791156  0.30518325066404695  0.9168047147383623  1.0000
  H   H807      1.0  0.48386545366295186  0.2868874735499177  0.8956356911702524  1.0000
  H   H808      1.0  0.43831392367822675  0.2650594001141898  0.9025752810552001  1.0000
  N   N47       1.0  0.6340574732690574  0.14965754928708996  0.28633548051147056  1.0000
  C   C569      1.0  0.6612621885837827  0.17239069733908563  0.2995600784160651  1.0000
  C   C570      1.0  0.610922092968038  0.17414969357816412  0.2726810675254155  1.0000
  C   C571      1.0  0.6073100774432748  0.12795376969478167  0.29976161420977165  1.0000
  C   C572      1.0  0.6568554029059398  0.12399875745002009  0.2733029985982572  1.0000
  H   H809      1.0  0.679533614042911  0.15469304925090444  0.3098834828848535  1.0000
  H   H810      1.0  0.6452408451470998  0.1920307860509578  0.3097250190281381  1.0000
  H   H811      1.0  0.6821328024923431  0.18892109613002006  0.2899271502388107  1.0000
  H   H812      1.0  0.5933890917654683  0.19396186716186237  0.28200558561974304  1.0000
  H   H813      1.0  0.6303434379303767  0.19073066560819418  0.2622888773004818  1.0000
  H   H814      1.0  0.5901087889323013  0.15775370997628824  0.26252237225849917  1.0000
  H   H815      1.0  0.5867363007515173  0.11007099464980663  0.2902767508311936  1.0000
  H   H816      1.0  0.5893865557385735  0.14622658057074744  0.3098171878088284  1.0000
  H   H817      1.0  0.6239339011771162  0.10915349544587061  0.3102378872763566  1.0000
  H   H818      1.0  0.6374777358699303  0.10646615707076368  0.262944387358385  1.0000
  H   H819      1.0  0.6737688614655679  0.10467546630053914  0.2831826745183235  1.0000
  H   H820      1.0  0.6784099974515919  0.13915619174653626  0.2634251495977362  1.0000
  N   N48       1.0  0.928393423294982  0.44690985944952394  0.5045999125220492  1.0000
  C   C573      1.0  0.9303782451000462  0.406822318895511  0.4996295367899504  1.0000
  C   C574      1.0  0.9524057321454771  0.46800654744397796  0.4895573996274764  1.0000
  C   C575      1.0  0.943720368462318  0.45392800692998825  0.5260227690122616  1.0000
  C   C576      1.0  0.8871635398440463  0.4589324555754639  0.5031563445497574  1.0000
  H   H821      1.0  0.9609716168919645  0.39668614958298054  0.5009012244358353  1.0000
  H   H822      1.0  0.919289312572473  0.4006191716478806  0.48352759866855316  1.0000
  H   H823      1.0  0.9123057466301742  0.38999850950559983  0.5105230253085145  1.0000
  H   H824      1.0  0.9526826688622008  0.4981732124036455  0.4932603582716464  1.0000
  H   H825      1.0  0.9834939972242074  0.45905689841274494  0.4898095131942659  1.0000
  H   H826      1.0  0.9408653506073107  0.46465838214615957  0.4732915805264569  1.0000
  H   H827      1.0  0.9419073460282859  0.4838082936516912  0.530414815098259  1.0000
  H   H828      1.0  0.9749098639543384  0.4456942287101223  0.5276626882244091  1.0000
  H   H829      1.0  0.9266664619838658  0.4380336151076044  0.5377789061582723  1.0000
  H   H830      1.0  0.8683498767929014  0.4441028487527063  0.5146125277195069  1.0000
  H   H831      1.0  0.8743503800774259  0.4535893736325675  0.4873243644402558  1.0000
  H   H832      1.0  0.8846697990594774  0.48915176650717274  0.5064607605966795  1.0000
  N   N49       1.0  0.8736874547231647  0.12985098152168123  0.7117667230937291  1.0000
  C   C577      1.0  0.8881321157935738  0.13283613094069846  0.7335945316758913  1.0000
  C   C578      1.0  0.8638506732370959  0.167200246787169  0.7040934320459495  1.0000
  C   C579      1.0  0.8382956217291986  0.1055743890608073  0.7108254350800631  1.0000
  C   C580      1.0  0.9044747620356952  0.11378144034384277  0.6985613728649294  1.0000
  H   H833      1.0  0.896003105061938  0.10524295729109288  0.7399627804815634  1.0000
  H   H834      1.0  0.8656369995911185  0.14494312508884938  0.7439900216912337  1.0000
  H   H835      1.0  0.9146268268419185  0.15124332709242663  0.734857969073874  1.0000
  H   H836      1.0  0.8530789565679117  0.16614915298685948  0.6876101340847409  1.0000
  H   H837      1.0  0.840695039921667  0.1800712866136699  0.713773648174335  1.0000
  H   H838      1.0  0.8898405720741421  0.1864093052417585  0.7048953890223516  1.0000
  H   H839      1.0  0.8269900370160974  0.10222364638387364  0.6945121752607797  1.0000
  H   H840      1.0  0.8142768193819963  0.11680519215363436  0.7205461284912983  1.0000
  H   H841      1.0  0.844631106265757  0.07734081307288344  0.7167765039584423  1.0000
  H   H842      1.0  0.9318845531205532  0.13105021452653293  0.6991451857376675  1.0000
  H   H843      1.0  0.8946957690734099  0.11153761865604847  0.6819101686812188  1.0000
  H   H844      1.0  0.911980124789478  0.08525662239271577  0.703690400863  1.0000
  N   N50       1.0  0.9276997658095334  0.5817230567087864  0.0010715443035425043  1.0000
  C   C581      1.0  0.8974576424502113  0.6026339762438228  0.012348107235835348  1.0000
  C   C582      1.0  0.9669878716189041  0.5974180945506432  0.006378142841374279  1.0000
  C   C583      1.0  0.9205107778666652  0.5844943719923968  0.97831646321986  1.0000
  C   C584      1.0  0.9257581786795247  0.5422923255139024  0.007235255016562858  1.0000
  H   H845      1.0  0.8673783951335158  0.591801007614333  0.008560156863516744  1.0000
  H   H846      1.0  0.8985190230523781  0.6326879354912465  0.008468602196812558  1.0000
  H   H847      1.0  0.9014357165518024  0.600601464701494  0.029580104444177024  1.0000
  H   H848      1.0  0.9733904074247935  0.5956197224987733  0.023428642680430878  1.0000
  H   H849      1.0  0.9906696771123595  0.582554877058287  0.9981357141129106  1.0000
  H   H850      1.0  0.9694533926009149  0.6273273099502301  0.0022058968197706808  1.0000
  H   H851      1.0  0.9218763555947624  0.613895012971596  0.9731121462889059  1.0000
  H   H852      1.0  0.8910054692055277  0.572910731555764  0.9738404632559396  1.0000
  H   H853      1.0  0.9426122373827434  0.5687731067063267  0.9693180654395471  1.0000
  H   H854      1.0  0.8968904744755181  0.5293081791621101  0.002868140036353495  1.0000
  H   H855      1.0  0.9297148039897571  0.5391888630711866  0.024429426576519697  1.0000
  H   H856      1.0  0.9487712244743995  0.5257434247645205  0.9994933001942305  1.0000
  N   N51       1.0  0.37157526753918513  0.5057691154245181  0.7032713596978147  1.0000
  C   C585      1.0  0.36403053577806466  0.5460607735202241  0.7035960422505664  1.0000
  C   C586      1.0  0.3419338633040697  0.4866630876879297  0.6897445593448217  1.0000
  C   C587      1.0  0.3689958554022697  0.4911159590638952  0.7247420118546924  1.0000
  C   C588      1.0  0.4112012389352915  0.49929438001656906  0.6949629434768683  1.0000
  H   H857      1.0  0.38521599006806234  0.5612802816686863  0.7140921720130838  1.0000
  H   H858      1.0  0.3339917624831044  0.551908255703376  0.7092329216817824  1.0000
  H   H859      1.0  0.36690525257474893  0.5583591401628559  0.6877657256611582  1.0000
  H   H860      1.0  0.3467573381629414  0.4561694648451142  0.6891174887786786  1.0000
  H   H861      1.0  0.31165412789669245  0.4909266605770071  0.6956028137389044  1.0000
  H   H862      1.0  0.342986554755723  0.49714293905136947  0.6734312825196613  1.0000
  H   H863      1.0  0.33902241038409964  0.49456099102269935  0.7311912873586811  1.0000
  H   H864      1.0  0.38997798234686437  0.5058052136451467  0.7356058657007574  1.0000
  H   H865      1.0  0.37553353489066804  0.46097172768156786  0.7252301482965294  1.0000
  H   H866      1.0  0.4141275262212686  0.5101208426673606  0.6787815891603983  1.0000
  H   H867      1.0  0.41799995077977414  0.4691891778383003  0.6944336311751229  1.0000
  H   H868      1.0  0.43431155800847865  0.5134396419720436  0.7047172869915755  1.0000
  N   N52       1.0  0.8668855319379365  0.0711970400869757  0.23090843749241394  1.0000
  C   C589      1.0  0.8828680976449025  0.06838708893583001  0.2524093504172482  1.0000
  C   C590      1.0  0.8510439995571127  0.10871521490155045  0.22773381523152658  1.0000
  C   C591      1.0  0.8351717331463292  0.04308733026459555  0.2277672857235817  1.0000
  C   C592      1.0  0.8985149502384756  0.06466534202202379  0.2157703347602056  1.0000
  H   H869      1.0  0.9070656334126485  0.08909517288577606  0.25530928575771333  1.0000
  H   H870      1.0  0.8945870026617153  0.04025011117567212  0.25545604185135046  1.0000
  H   H871      1.0  0.8598146123440209  0.07345586086054956  0.2642389464019104  1.0000
  H   H872      1.0  0.8376394741729556  0.1115697980373791  0.21189851636578733  1.0000
  H   H873      1.0  0.8283148464486549  0.11537628366061958  0.2394888217301508  1.0000
  H   H874      1.0  0.8746069168420454  0.1304020777350885  0.22923273989199702  1.0000
  H   H875      1.0  0.8223384519338056  0.04426542223779251  0.21172508583969776  1.0000
  H   H876      1.0  0.8110045129548082  0.04713068963688061  0.23908932242549857  1.0000
  H   H877      1.0  0.8461090812137478  0.014432328817664652  0.2301765742045895  1.0000
  H   H878      1.0  0.8876636320702939  0.06701392609607848  0.1993487819307967  1.0000
  H   H879      1.0  0.9110637682113834  0.036511672106327  0.2175581813023477  1.0000
  H   H880      1.0  0.9230304773963127  0.08531510126179298  0.21790611387023162  1.0000
  N   N53       1.0  0.4352714985772532  0.010651229036908516  0.39669687873756376  1.0000
  C   C593      1.0  0.4331332748960769  0.9790156213420922  0.3818178923302281  1.0000
  C   C594      1.0  0.47622723175870324  0.02464386784562178  0.39853654059743526  1.0000
  C   C595      1.0  0.42180224765500374  0.9982955866856509  0.417413635580254  1.0000
  C   C596      1.0  0.40989606047659155  0.040645121020400854  0.3890072565067273  1.0000
  H   H881      1.0  0.4024092239234268  0.968090370182309  0.3799591037469784  1.0000
  H   H882      1.0  0.4516021147374957  0.9556910472341343  0.3871452827923802  1.0000
  H   H883      1.0  0.44344726406930496  0.9873456925129118  0.3660534177504244  1.0000
  H   H884      1.0  0.4787270226761383  0.0485522457871681  0.4096459932490439  1.0000
  H   H885      1.0  0.49626166001003263  0.0026924333955213875  0.4041516446530574  1.0000
  H   H886      1.0  0.48735569902886555  0.03434165722618676  0.38320529436710415  1.0000
  H   H887      1.0  0.4402534681048434  0.9756613829250321  0.42368641813406677  1.0000
  H   H888      1.0  0.3911320736785026  0.9873750262255766  0.41652949418232177  1.0000
  H   H889      1.0  0.4226001376866359  0.021490654093483164  0.4290669329403777  1.0000
  H   H890      1.0  0.4098381891886928  0.06465913740792129  0.40006995913971105  1.0000
  H   H891      1.0  0.3789029459218104  0.03074791536532162  0.38686650225313535  1.0000
  H   H892      1.0  0.41999823700299  0.05121928941825504  0.37362763905481067  1.0000
  N   N54       1.0  0.8181710664029054  0.2968429918641203  0.8187899006669337  1.0000
  C   C597      1.0  0.8123006158206751  0.2649864627536408  0.8328984128596122  1.0000
  C   C598      1.0  0.8009948678537786  0.2878530111197587  0.7979839805807136  1.0000
  C   C599      1.0  0.8606140477829306  0.3046953110205934  0.8167301474113583  1.0000
  C   C600      1.0  0.7990215118901894  0.32989924099089485  0.8275728249227235  1.0000
  H   H893      1.0  0.8249029675047288  0.2710081860867432  0.8487418387360715  1.0000
  H   H894      1.0  0.8272262405398637  0.23980519856460625  0.8269571112163596  1.0000
  H   H895      1.0  0.7806400918312341  0.2579020030152124  0.8347134704651673  1.0000
  H   H896      1.0  0.769214977241399  0.2805968679646547  0.798967134217473  1.0000
  H   H897      1.0  0.8038349572743212  0.3118066578916093  0.7871857001267933  1.0000
  H   H898      1.0  0.8159736898091455  0.2639387066025325  0.7905408342801922  1.0000
  H   H899      1.0  0.8663581561220707  0.32868421571461187  0.8062926211056071  1.0000
  H   H900      1.0  0.8760975007573213  0.2802790555806108  0.8104003266123107  1.0000
  H   H901      1.0  0.8745895639258932  0.31166769501006913  0.8321207347997094  1.0000
  H   H902      1.0  0.8116554631673436  0.33751553931110573  0.8432037788500342  1.0000
  H   H903      1.0  0.7668832532237649  0.32523494522028473  0.8292904236783062  1.0000
  H   H904      1.0  0.8035079757930984  0.3545343385777643  0.8174297169532823  1.0000
  N   N55       1.0  0.27222085350851954  0.0456225625534703  0.5318582409962458  1.0000
  C   C601      1.0  0.25190764196103593  0.07493315368681897  0.5200944994897411  1.0000
  C   C602      1.0  0.24274317050885622  0.020991136794078935  0.5416766384943611  1.0000
  C   C603      1.0  0.2978824143779976  0.06289592750009221  0.5481667747445517  1.0000
  C   C604      1.0  0.29628219612219797  0.023610816479642915  0.5174143331868681  1.0000
  H   H905      1.0  0.2732416085019383  0.09391430452582437  0.5123409132073993  1.0000
  H   H906      1.0  0.23374463567691955  0.09232658644215005  0.5305260289301836  1.0000
  H   H907      1.0  0.23208641107099745  0.06278727051245148  0.5077346554766774  1.0000
  H   H908      1.0  0.2569747097062338  0.9983557971262568  0.5505773502784217  1.0000
  H   H909      1.0  0.22406455432600464  0.03666932709511128  0.5526986678289503  1.0000
  H   H910      1.0  0.22288587163518198  0.007668358428805089  0.5296830591859751  1.0000
  H   H911      1.0  0.3209974321118491  0.08087720027838462  0.5411614874262811  1.0000
  H   H912      1.0  0.3131708281755031  0.04164509232350122  0.5576376892474529  1.0000
  H   H913      1.0  0.28105815726179956  0.08074122416127809  0.5590172319752533  1.0000
  H   H914      1.0  0.3127314293546529  0.0017172280821333703  0.525780489428038  1.0000
  H   H915      1.0  0.318305913078911  0.04139847963114529  0.5093630813519743  1.0000
  H   H916      1.0  0.2777673722428136  0.009682997973408325  0.5051270474759435  1.0000
  N   N56       1.0  0.623164059652956  0.5159240856644693  0.6305994788880273  1.0000
  C   C605      1.0  0.6076565533968371  0.5301417004839792  0.6105809648835414  1.0000
  C   C606      1.0  0.6112064289855603  0.47652436630034145  0.6328485650427087  1.0000
  C   C607      1.0  0.6072615849315606  0.5378472846652166  0.648089144738504  1.0000
  C   C608      1.0  0.6664913832366821  0.5191048224247714  0.6308958356070605  1.0000
  H   H917      1.0  0.6157847892166465  0.5599017484191658  0.6084494616299241  1.0000
  H   H918      1.0  0.5750067924152765  0.5277031179159027  0.609767386818022  1.0000
  H   H919      1.0  0.6192392386837385  0.5143611038858108  0.5970425198134823  1.0000
  H   H920      1.0  0.621580861190986  0.46512235266017093  0.6480024499163485  1.0000
  H   H921      1.0  0.5786626811197343  0.47298883815117004  0.6322042319136585  1.0000
  H   H922      1.0  0.6234813182715507  0.45908083011261447  0.6201853039790416  1.0000
  H   H923      1.0  0.6167865139096269  0.5267393597760396  0.6634711558030806  1.0000
  H   H924      1.0  0.5746059642033668  0.5373639736186465  0.6477672110580484  1.0000
  H   H925      1.0  0.6172018103309937  0.5674193054203878  0.6474929157546698  1.0000
  H   H926      1.0  0.6791093315997513  0.5081985223888408  0.645699350307964  1.0000
  H   H927      1.0  0.676651035714965  0.5485484112677645  0.6296308653080325  1.0000
  H   H928      1.0  0.6794896563758591  0.5032984246628983  0.6177301243637391  1.0000
  N   N57       1.0  0.14297657630106655  0.5714611995277038  0.10652330747377436  1.0000
  C   C609      1.0  0.16009923795735778  0.5880241007433944  0.08755120376144188  1.0000
  C   C610      1.0  0.10217469994459938  0.5588722019832209  0.10195485129339432  1.0000
  C   C611      1.0  0.14292762094532585  0.5994841143098358  0.12353723350721402  1.0000
  C   C612      1.0  0.16668556124294523  0.5394887198463094  0.11311347382253967  1.0000
  H   H929      1.0  0.16085879341861964  0.5675087814618577  0.07444364886505239  1.0000
  H   H930      1.0  0.19080514429591003  0.5980657348471259  0.09039033655414408  1.0000
  H   H931      1.0  0.14280949691954345  0.6120308948653326  0.08193155376918781  1.0000
  H   H932      1.0  0.08815215166968238  0.5464591690921003  0.11596808534992831  1.0000
  H   H933      1.0  0.08344829925169917  0.5823380796659449  0.0969347943371568  1.0000
  H   H934      1.0  0.10097189535145712  0.5376268120456963  0.08922848071233846  1.0000
  H   H935      1.0  0.1298741783430314  0.5878742874891294  0.13803440963879487  1.0000
  H   H936      1.0  0.12558085516027698  0.6241752606999451  0.11908157940045805  1.0000
  H   H937      1.0  0.17325730035134426  0.6091817963192027  0.1276807565725686  1.0000
  H   H938      1.0  0.15506888569644356  0.5267558698019715  0.12764022848754264  1.0000
  H   H939      1.0  0.19776595509518932  0.5479518100762165  0.1163937138923179  1.0000
  H   H940      1.0  0.1672325134524871  0.5175028186508163  0.1007810971883576  1.0000
  N   N58       1.0  0.35941916786862077  0.5229584528793301  0.025365895756269463  1.0000
  C   C613      1.0  0.32081063766429907  0.5164587469564058  0.035086040797649654  1.0000
  C   C614      1.0  0.3848091241076253  0.4908228041822817  0.029297418316378332  1.0000
  C   C615      1.0  0.3781072991080165  0.5568312815364295  0.03448769954705311  1.0000
  C   C616      1.0  0.3540845771356091  0.5277336358786701  0.0025938463764823005  1.0000
  H   H941      1.0  0.3010295952404365  0.5403244845416821  0.03257631636989777  1.0000
  H   H942      1.0  0.32380605096883075  0.5125930264087611  0.05227257804835528  1.0000
  H   H943      1.0  0.3056694478216489  0.49121648241562116  0.02857247476065594  1.0000
  H   H944      1.0  0.38958616804473445  0.4865557750454224  0.04635099036542867  1.0000
  H   H945      1.0  0.3715981207686386  0.46473470904273967  0.022649092866765974  1.0000
  H   H946      1.0  0.41417098709498984  0.49484250798053486  0.02207078821969577  1.0000
  H   H947      1.0  0.3604263672087481  0.5819220805596711  0.031230059832827672  1.0000
  H   H948      1.0  0.4078985401215136  0.561825087028966  0.02802701289255949  1.0000
  H   H949      1.0  0.3812910118506746  0.5548800494910494  0.05176942548132968  1.0000
  H   H950      1.0  0.38283709188606785  0.5315343299740508  0.9947483627505085  1.0000
  H   H951      1.0  0.3362649085674964  0.5525968163973727  0.9990206341701832  1.0000
  H   H952      1.0  0.33915515631416365  0.5031184184018543  0.9952408962690712  1.0000
  N   N59       1.0  0.815591979294583  0.8840130682456434  0.3281320671163944  1.0000
  C   C617      1.0  0.8305859757830114  0.8849960685282818  0.34991283264034334  1.0000
  C   C618      1.0  0.7804633698965174  0.8594010233912058  0.32667822963282683  1.0000
  C   C619      1.0  0.8463204903392294  0.8697372886515707  0.31425184116319005  1.0000
  C   C620      1.0  0.8049655192244831  0.9218524509214636  0.3216531445086747  1.0000
  H   H953      1.0  0.8577101032168599  0.9025341036954108  0.35142023290591246  1.0000
  H   H954      1.0  0.8377333399432001  0.8566055036635708  0.35541390547714097  1.0000
  H   H955      1.0  0.808606702886181  0.8967117795020333  0.3607661918134074  1.0000
  H   H956      1.0  0.768903858527042  0.8573302330101776  0.3103179106305669  1.0000
  H   H957      1.0  0.787238611105898  0.8307576019434154  0.331849368707678  1.0000
  H   H958      1.0  0.7563647914522229  0.8698070991105986  0.3365988620415002  1.0000
  H   H959      1.0  0.8358846558810231  0.8682721766768235  0.29775033562243286  1.0000
  H   H960      1.0  0.855137416067497  0.8412491398661117  0.3187332066968544  1.0000
  H   H961      1.0  0.8731024862850977  0.887871893255171  0.31473140824611145  1.0000
  H   H962      1.0  0.7907221275582456  0.921598882246416  0.3059415652754458  1.0000
  H   H963      1.0  0.8312149522017029  0.9405758441883514  0.3207924504225214  1.0000
  H   H964      1.0  0.7839600224453558  0.9346067495273748  0.33267669520423226  1.0000
  N   N60       1.0  0.9336807159447591  0.6557649143762069  0.18462618186308577  1.0000
  C   C621      1.0  0.9045263829633694  0.6787523431934761  0.19543056116644478  1.0000
  C   C622      1.0  0.9165717398632803  0.6414742283517539  0.16476720045987575  1.0000
  C   C623      1.0  0.9446697523901669  0.6241460602778713  0.19795891396400966  1.0000
  C   C624      1.0  0.9689545655431081  0.6787079470216774  0.18017310469562545  1.0000
  H   H965      1.0  0.8959917274261875  0.7030628856259683  0.1858428937212033  1.0000
  H   H966      1.0  0.9161459533796487  0.6896886826721406  0.21066987535154938  1.0000
  H   H967      1.0  0.8771739858771175  0.6626088014105534  0.19874062062277548  1.0000
  H   H968      1.0  0.9078852984674953  0.6645991037525469  0.15429961300234818  1.0000
  H   H969      1.0  0.9379684512467258  0.624223353389522  0.15617782589126825  1.0000
  H   H970      1.0  0.8899734597550789  0.6238326263180833  0.16742615879465336  1.0000
  H   H971      1.0  0.966879599704691  0.6064584215303915  0.19028235320211373  1.0000
  H   H972      1.0  0.9188010147444372  0.6058453922172503  0.2012374790865808  1.0000
  H   H973      1.0  0.9571953246377919  0.6337767173938043  0.21325763872756612  1.0000
  H   H974      1.0  0.9914585796379242  0.6623250242271793  0.1718575522681232  1.0000
  H   H975      1.0  0.9826672581678597  0.6901144250331251  0.19479365303943896  1.0000
  H   H976      1.0  0.9616044786728283  0.7026603628962603  0.16998419120723454  1.0000
  N   N61       1.0  0.1379874057470769  0.05132711619039454  0.39721712640675183  1.0000
  C   C625      1.0  0.14353869659186058  0.08358646267202641  0.4114461135481267  1.0000
  C   C626      1.0  0.13061540501666236  0.017476007244278113  0.40958976366087463  1.0000
  C   C627      1.0  0.1736954117719971  0.04661557120732529  0.3846617531757908  1.0000
  C   C628      1.0  0.1040033361029713  0.05773642825615877  0.38320508022815347  1.0000
  H   H977      1.0  0.16790457841666107  0.07907730365136101  0.4228732168965116  1.0000
  H   H978      1.0  0.11648072179289604  0.08898762102026292  0.42048179328613156  1.0000
  H   H979      1.0  0.15124045232382222  0.1093066457600409  0.40275997142120784  1.0000
  H   H980      1.0  0.15446163067337149  0.013064899835385946  0.421331472314875  1.0000
  H   H981      1.0  0.10266945755841084  0.019329589032838213  0.41831301065710935  1.0000
  H   H982      1.0  0.1283283830744093  0.9922562081804148  0.3994766527186691  1.0000
  H   H983      1.0  0.18032364436389714  0.07178221785919092  0.37525279614580315  1.0000
  H   H984      1.0  0.17081185319246073  0.022550199081930122  0.37371516871976923  1.0000
  H   H985      1.0  0.19983930316186949  0.04199961143357278  0.394830994473968  1.0000
  H   H986      1.0  0.09884160576559853  0.033914960600100796  0.3722661050731239  1.0000
  H   H987      1.0  0.10855060193815458  0.08317356689985855  0.37370756258416077  1.0000
  H   H988      1.0  0.07660727483505303  0.0614356011086441  0.39230088132972013  1.0000
  N   N62       1.0  0.018718123782411666  0.6257526483714427  0.35100098789502726  1.0000
  C   C629      1.0  0.004656680692447512  0.6105914284612717  0.37097065423338615  1.0000
  C   C630      1.0  0.9858872847315907  0.6437706818430234  0.33999350526595457  1.0000
  C   C631      1.0  0.03356833569155948  0.5953163916730124  0.33780658515672096  1.0000
  C   C632      1.0  0.05050112651180316  0.6533571973982515  0.35530104060776513  1.0000
  H   H989      1.0  0.02872027383069753  0.5973138132225261  0.379978098848159  1.0000
  H   H990      1.0  0.9805745278530591  0.5896361401953156  0.36847389812290615  1.0000
  H   H991      1.0  0.9928055085568223  0.6329782139278488  0.3810546505153596  1.0000
  H   H992      1.0  0.9616349801742087  0.6234327007642448  0.33645126639120293  1.0000
  H   H993      1.0  0.9733826726843308  0.6665002265998747  0.3496097971857187  1.0000
  H   H994      1.0  0.9953871141445412  0.655689973168139  0.32485207512728514  1.0000
  H   H995      1.0  0.04397997961798583  0.6058159924887425  0.32248821493609525  1.0000
  H   H996      1.0  0.010063310168701767  0.5741681957586304  0.33426239046204587  1.0000
  H   H997      1.0  0.05834600691971081  0.5809471170374255  0.34559818427423217  1.0000
  H   H998      1.0  0.07554633499424512  0.6407192271727106  0.3638807714960476  1.0000
  H   H999      1.0  0.040120958015279706  0.6765276151549451  0.3653556039661375  1.0000
  H   H1000     1.0  0.061977817240083555  0.6655435394864097  0.34063381489246863  1.0000
  N   N63       1.0  0.8130656191481133  0.5825753304900029  0.29862429397788864  1.0000
  C   C633      1.0  0.7772377249441139  0.5967742528823567  0.3084869996944086  1.0000
  C   C634      1.0  0.8118236685594111  0.5415248444309775  0.29863782630049895  1.0000
  C   C635      1.0  0.8480472740329451  0.5960733102127976  0.31051540621405627  1.0000
  C   C636      1.0  0.815210527303578  0.5958766390222906  0.2768618043652476  1.0000
  H   H1001     1.0  0.7776067947214272  0.6276017861825819  0.30926321746607033  1.0000
  H   H1002     1.0  0.7741410599297033  0.5867371120753843  0.32478564822238604  1.0000
  H   H1003     1.0  0.7501824373295936  0.5882674144994067  0.29959481071854743  1.0000
  H   H1004     1.0  0.8102809964468296  0.5305442613530044  0.31482038610558927  1.0000
  H   H1005     1.0  0.7858416501198219  0.5303862862550458  0.2897361641158781  1.0000
  H   H1006     1.0  0.8385002703075464  0.5298604785389328  0.2913643519974451  1.0000
  H   H1007     1.0  0.8506280483996383  0.6269143780356122  0.3101839286336171  1.0000
  H   H1008     1.0  0.8755586992657  0.5849037056729572  0.3039001812046271  1.0000
  H   H1009     1.0  0.846906722403334  0.5877171257433158  0.3272139378487148  1.0000
  H   H1010     1.0  0.84162016074848  0.5851864110370494  0.2688864122931464  1.0000
  H   H1011     1.0  0.8169089336391611  0.6267624162236707  0.276228335345908  1.0000
  H   H1012     1.0  0.7889660668206419  0.5868263354666658  0.2674820247910232  1.0000
  N   N64       1.0  0.23959856761975665  0.8558011399485755  0.4574598968365113  1.0000
  C   C637      1.0  0.24404587487405663  0.862865971307217  0.4348855606238547  1.0000
  C   C638      1.0  0.2786451100107952  0.8495244412737424  0.4670097764541287  1.0000
  C   C639      1.0  0.21421879726961512  0.8225330960925059  0.4603991667478722  1.0000
  C   C640      1.0  0.22159033553461094  0.8883706815768766  0.467509946350675  1.0000
  H   H1013     1.0  0.21514417924537738  0.867266928646521  0.4270848629566549  1.0000
  H   H1014     1.0  0.2581765468724142  0.8391371274436535  0.42684539070419736  1.0000
  H   H1015     1.0  0.2626400250203961  0.8880830326928834  0.4321202775649796  1.0000
  H   H1016     1.0  0.2765799809601241  0.8442045684447317  0.4840598620231621  1.0000
  H   H1017     1.0  0.2931066950401436  0.8250922185528985  0.459851739498424  1.0000
  H   H1018     1.0  0.2986729063153527  0.8739482277897953  0.46492993230967683  1.0000
  H   H1019     1.0  0.2266987578022704  0.7974593323642963  0.45284875152438175  1.0000
  H   H1020     1.0  0.18435492501960601  0.826311129404005  0.4535647543896608  1.0000
  H   H1021     1.0  0.21065678730117463  0.8159699435710491  0.4772439974508271  1.0000
  H   H1022     1.0  0.21771853606394878  0.8841931952069869  0.48457278259003655  1.0000
  H   H1023     1.0  0.19212205809330754  0.8941547882523508  0.46066752781848913  1.0000
  H   H1024     1.0  0.2400070637505811  0.9139669996631458  0.4655994749927915  1.0000
