data_image0
_chemical_formula_structural       FeS2FeS2FeSFeS3FeS2FeS2FeSFeS3FeS2FeS2FeSFeS3FeS2FeS2FeSFeS3FeS2FeS2FeSFeS3FeS2FeS2FeSFeS3FeS2FeS2FeSFeS3FeS2FeS2FeSFeS3FeS2FeS2FeSFeS3FeS2FeS2FeSFeS3FeS2FeS2FeSFeS3FeS2FeS2FeSFeS3FeS2FeS2FeSFeS3FeS2FeS2FeSFeS3FeS2FeS2FeSFeS3FeS2FeS2FeSFeS3FeS2FeS2FeSFeS3FeS2FeS2FeSFeS3FeS2FeS2FeSFeS3FeS2FeS2FeSFeS3FeS2FeS2FeSFeS3FeS2FeS2FeSFeS3FeS2FeS2FeSFeS3FeS2FeS2FeSFeS3C6H4C6H4C6H4C6H4C6H4C6H4C6H4C6H4C6H4C6H4C6H4C6H4C6H4C6H4C6H4C6H4C6H4C6H4C6H4C6H4C6H4C6H4C6H4C6H4C6H4C6H4C6H4C6H4C6H4C6H4C6H4C6H4C6H4C6H4C6H4C6H4C6H4C6H4C6H4C6H4C6H4C6H4C6H4C6H4C6H4C6H4C6H4C6H4NC4H12NC4H12NC4H12NC4H12NC4H12NC4H12NC4H12NC4H12NC4H12NC4H12NC4H12NC4H12NC4H12NC4H12NC4H12NC4H12NC4H12NC4H12NC4H12NC4H12NC4H12NC4H12NC4H12NC4H12NC4H12NC4H12NC4H12NC4H12NC4H12NC4H12NC4H12NC4H12NC4H12NC4H12NC4H12NC4H12NC4H12NC4H12NC4H12NC4H12NC4H12NC4H12NC4H12NC4H12NC4H12NC4H12NC4H12NC4H12
_chemical_formula_sum              "Fe96 S192 C480 H768 N48"
_cell_length_a       58.55059265397456
_cell_length_b       58.74577845975793
_cell_length_c       38.54313068729959
_cell_angle_alpha    90.1667526392534
_cell_angle_beta     90.5760799701071
_cell_angle_gamma    120.44324068687

_space_group_name_H-M_alt    "P 1"
_space_group_IT_number       1

loop_
  _space_group_symop_operation_xyz
  'x, y, z'

loop_
  _atom_site_type_symbol
  _atom_site_label
  _atom_site_symmetry_multiplicity
  _atom_site_fract_x
  _atom_site_fract_y
  _atom_site_fract_z
  _atom_site_occupancy
  Fe  Fe1       1.0  0.3270026281854239  0.8416513901671612  0.5730079300604942  1.0000
  S   S1        1.0  0.3410535965162048  0.8286625208997257  0.6197722501510557  1.0000
  S   S2        1.0  0.2997341545285581  0.812554290659828  0.5307207992141934  1.0000
  Fe  Fe2       1.0  0.3701743075750398  0.9010029397898458  0.5848249939259722  1.0000
  S   S3        1.0  0.386176981667601  0.8910419151170563  0.6315885709395198  1.0000
  S   S4        1.0  0.3979906051923729  0.9430608843541993  0.5661904610562752  1.0000
  Fe  Fe3       1.0  0.3821259051540919  0.8569179945074715  0.6004367802646803  1.0000
  S   S5        1.0  0.4189944643195913  0.8535775915205058  0.6000225931710829  1.0000
  Fe  Fe4       1.0  0.34397575469163305  0.8643232444070579  0.6466936570155779  1.0000
  S   S6        1.0  0.3316517359619745  0.8703256043246641  0.7005828380727593  1.0000
  S   S7        1.0  0.3683259293172967  0.8680306010365375  0.5528020164935935  1.0000
  S   S8        1.0  0.32754394174132395  0.8760004529601163  0.6008551079362586  1.0000
  Fe  Fe5       1.0  0.1532880602433547  0.6910961826744717  0.47846867291693806  1.0000
  S   S9        1.0  0.16983334745892573  0.6794300787875457  0.43397630583203295  1.0000
  S   S10       1.0  0.17614411990912898  0.7277883598513467  0.5128885334961881  1.0000
  Fe  Fe6       1.0  0.0982194432691932  0.6397346910809861  0.47216789240078894  1.0000
  S   S11       1.0  0.11162886349612154  0.6246676479076482  0.4278725324879103  1.0000
  S   S12       1.0  0.05819599641868155  0.6104337920104662  0.49501255650014186  1.0000
  Fe  Fe7       1.0  0.14920830243344746  0.6392117446147508  0.45888200190367334  1.0000
  S   S13       1.0  0.16916262477937413  0.6151296497920477  0.4666123854481142  1.0000
  Fe  Fe8       1.0  0.1304606625740374  0.6659802446853053  0.4073791807782111  1.0000
  S   S14       1.0  0.12071116275156017  0.6745150346422121  0.3533965386144857  1.0000
  S   S15       1.0  0.13488531424187042  0.6516185336503374  0.5045599062795065  1.0000
  S   S16       1.0  0.11503331625424602  0.6805005352191656  0.45049104733593  1.0000
  Fe  Fe9       1.0  0.35694307939019626  0.8630881822628756  0.9002332338183144  1.0000
  S   S17       1.0  0.3284289167274476  0.87745715620916  0.9066933951206717  1.0000
  S   S18       1.0  0.35610255543810787  0.8413708658334648  0.8507571346010726  1.0000
  Fe  Fe10      1.0  0.38143541027430344  0.8832771834327069  0.9727768051484526  1.0000
  S   S19       1.0  0.35359486483444236  0.8982979525636765  0.9836423236790707  1.0000
  S   S20       1.0  0.41250287634537075  0.8954444651128021  0.015615040025533489  1.0000
  Fe  Fe11      1.0  0.32190360805908236  0.8595608620820238  0.9601222101604205  1.0000
  S   S21       1.0  0.2788746656197325  0.8350659666132446  0.9784212451710961  1.0000
  Fe  Fe12      1.0  0.3630106743032055  0.9142875252686536  0.9295939476461649  1.0000
  S   S22       1.0  0.3766210574257661  0.9553344478117579  0.9084969546161453  1.0000
  S   S23       1.0  0.34923359814145605  0.8435702771780081  0.9528464037627254  1.0000
  S   S24       1.0  0.3920343171684642  0.9008533840582061  0.9196006163308447  1.0000
  Fe  Fe13      1.0  0.14054560873929503  0.6362851427522274  0.094141358778329  1.0000
  S   S25       1.0  0.13585669907882872  0.6628984424346778  0.05661039191781477  1.0000
  S   S26       1.0  0.13437214640585127  0.5953451788531361  0.08496896724275568  1.0000
  Fe  Fe14      1.0  0.15749520537843575  0.6760577253538794  0.15497871618523384  1.0000
  S   S27       1.0  0.15460657643337813  0.7060309155157805  0.12175896395990586  1.0000
  S   S28       1.0  0.17603254723788314  0.681823801676461  0.2090056778963336  1.0000
  Fe  Fe15      1.0  0.11621700709601866  0.6707148225202759  0.10175668648965355  1.0000
  S   S29       1.0  0.07798484515719835  0.6722851770105558  0.10136386217162957  1.0000
  Fe  Fe16      1.0  0.17450202302535264  0.6960176568859532  0.07923555387462768  1.0000
  S   S30       1.0  0.21293337735313417  0.7206374220408477  0.04814752880707177  1.0000
  S   S31       1.0  0.11840701912329515  0.6417796951124695  0.1376087926811893  1.0000
  S   S32       1.0  0.17972430655484453  0.6682355573394715  0.11415270657922293  1.0000
  Fe  Fe17      1.0  0.17048758438175246  0.479896844338329  0.6448593097881334  1.0000
  S   S33       1.0  0.16202133608537292  0.4456996082631127  0.6098789962281593  1.0000
  S   S34       1.0  0.19263212134285904  0.49009438769701424  0.696562028769303  1.0000
  Fe  Fe18      1.0  0.1482034825968886  0.5028566494860736  0.592736346581774  1.0000
  S   S35       1.0  0.13792325343438688  0.4706343510557208  0.5533772126310282  1.0000
  S   S36       1.0  0.13791333277602724  0.5352871661854863  0.5922553566786164  1.0000
  Fe  Fe19      1.0  0.12272796242493979  0.44304659384417194  0.5986598957365212  1.0000
  S   S37       1.0  0.08494936757857435  0.40285300297344667  0.6009251384834594  1.0000
  Fe  Fe20      1.0  0.17802388422906912  0.4756502893109757  0.5672055425424606  1.0000
  S   S38       1.0  0.20385183157339634  0.4760212095304049  0.522670236682741  1.0000
  S   S39       1.0  0.13018743296989702  0.4747584271343041  0.637190934855872  1.0000
  S   S40       1.0  0.1892280295954188  0.5102441461716966  0.6029097548933513  1.0000
  Fe  Fe21      1.0  0.3296840636816973  0.46187146610092156  0.4749265620108456  1.0000
  S   S41       1.0  0.3442394474890085  0.49662345185078594  0.4396702336977289  1.0000
  S   S42       1.0  0.30238453037810076  0.4570160179449564  0.5201208656796253  1.0000
  Fe  Fe22      1.0  0.3652602432513043  0.44310109086687227  0.4406579739700673  1.0000
  S   S43       1.0  0.3822278404268732  0.4773344402850742  0.4037455567918251  1.0000
  S   S44       1.0  0.37673372957750334  0.4123252418309034  0.42619204304604097  1.0000
  Fe  Fe23      1.0  0.38451161906221126  0.5019114391793085  0.4499410762402094  1.0000
  S   S45       1.0  0.4185982594901415  0.5438281394470464  0.45712497134568086  1.0000
  Fe  Fe24      1.0  0.34068997670125545  0.4690091283144297  0.3967775759102513  1.0000
  S   S46       1.0  0.32045749065865986  0.466707035255116  0.34508602724759097  1.0000
  S   S47       1.0  0.3706042415415089  0.4685206719349011  0.4876287950085391  1.0000
  S   S48       1.0  0.32303364504342175  0.43338126106161046  0.43130177776968004  1.0000
  Fe  Fe25      1.0  0.14854149557848867  0.4765688697385918  0.8938110083729519  1.0000
  S   S49       1.0  0.1469800789807099  0.4474654733911146  0.932955706168427  1.0000
  S   S50       1.0  0.13188151785503197  0.4615374276937405  0.8395828592298783  1.0000
  Fe  Fe26      1.0  0.1664962012654827  0.5203676851215201  0.9488157735077062  1.0000
  S   S51       1.0  0.16661255662159696  0.4947351979111571  0.9919004258461187  1.0000
  S   S52       1.0  0.17535909161357083  0.5625507882116542  0.9531441422328866  1.0000
  Fe  Fe27      1.0  0.18606348636061384  0.4808353580043212  0.953533880128726  1.0000
  S   S53       1.0  0.22366569438771278  0.4776216935915261  0.9567254539490532  1.0000
  Fe  Fe28      1.0  0.12773712033625406  0.4636144495486951  0.9675693464269759  1.0000
  S   S54       1.0  0.09013177458903895  0.4409447369953288  0.9987614422153953  1.0000
  S   S55       1.0  0.18852994182020824  0.5089890080971115  0.9117288502613347  1.0000
  S   S56       1.0  0.1267346505509142  0.4903488769066328  0.9272748890552173  1.0000
  Fe  Fe29      1.0  0.3678899238278013  0.476972777800603  0.14844457299949854  1.0000
  S   S57       1.0  0.3406384949544116  0.4414404303348608  0.11579372842728096  1.0000
  S   S58       1.0  0.37994689289002415  0.47591802431065533  0.20442611462158922  1.0000
  Fe  Fe30      1.0  0.38534395522897497  0.5136743809512367  0.08565961320393323  1.0000
  S   S59       1.0  0.35994811986345737  0.4809921713512854  0.048014113997879956  1.0000
  S   S60       1.0  0.40888764101707714  0.557319650890442  0.07357274631588048  1.0000
  Fe  Fe31      1.0  0.3285123990448571  0.4678692759065927  0.08847975466508504  1.0000
  S   S61       1.0  0.28481847681445105  0.45442964605079805  0.07804843158615163  1.0000
  Fe  Fe32      1.0  0.37406786537560444  0.45723419564224904  0.07791225579347819  1.0000
  S   S62       1.0  0.3861908237989459  0.4315667291613874  0.04829443495905075  1.0000
  S   S63       1.0  0.3530973602051407  0.5020544542033691  0.124795808813437  1.0000
  S   S64       1.0  0.4021396661227304  0.49123763087929806  0.11180546323081161  1.0000
  Fe  Fe33      1.0  0.5099966837033494  0.857701950570566  0.45156363306535724  1.0000
  S   S65       1.0  0.538607072280401  0.8780956553985507  0.49540005885851274  1.0000
  S   S66       1.0  0.46561745287975526  0.8386276664946642  0.45913832327766  1.0000
  Fe  Fe34      1.0  0.5543989633066471  0.8708641315633415  0.3997183558229781  1.0000
  S   S67       1.0  0.5859056409341145  0.8915923895565627  0.4413735152794501  1.0000
  S   S68       1.0  0.5724136009717907  0.8745604053597787  0.34625972215714657  1.0000
  Fe  Fe35      1.0  0.559101699133354  0.8570206810247865  0.4753364942666392  1.0000
  S   S69       1.0  0.5720624392611445  0.837653544785439  0.5166558450425354  1.0000
  Fe  Fe36      1.0  0.5622956876378117  0.9103617982438196  0.4572347974360175  1.0000
  S   S70       1.0  0.5730506192427741  0.9532892450803598  0.46546544005027324  1.0000
  S   S71       1.0  0.5293348267705108  0.835095670941255  0.43271619656665944  1.0000
  S   S72       1.0  0.5319827269031628  0.8910210626997099  0.41440645646199054  1.0000
  Fe  Fe37      1.0  0.5403106175617798  0.6783878179794148  0.656368423579221  1.0000
  S   S73       1.0  0.5738836296046662  0.7044751733199761  0.6209910919605478  1.0000
  S   S74       1.0  0.529351871675572  0.6874519055209752  0.7089510532231553  1.0000
  Fe  Fe38      1.0  0.5140570581940095  0.6338653562667139  0.6026331601170356  1.0000
  S   S75       1.0  0.5454264102113836  0.6561211113909415  0.5630542335112185  1.0000
  S   S76       1.0  0.4789179166334315  0.5920752036920223  0.6004052966458888  1.0000
  Fe  Fe39      1.0  0.5742780552584438  0.667030674620844  0.6077106377400633  1.0000
  S   S77       1.0  0.6136294663840839  0.6679384829857534  0.6042940533226165  1.0000
  Fe  Fe40      1.0  0.5426112485263695  0.6918258186507228  0.5789442906006969  1.0000
  S   S78       1.0  0.5388438513567727  0.7163070143204081  0.5351333421112465  1.0000
  S   S79       1.0  0.5431723611706931  0.6423023276857988  0.6462563327209473  1.0000
  S   S80       1.0  0.5089469976753792  0.6682515123961666  0.6152272121338949  1.0000
  Fe  Fe41      1.0  0.5281529658306618  0.8729803094748442  0.06840808843751969  1.0000
  S   S81       1.0  0.5707906513519362  0.8960638649826314  0.05301483862304854  1.0000
  S   S82       1.0  0.4959821217857229  0.8571344238021871  0.02690401915802883  1.0000
  Fe  Fe42      1.0  0.5422553954988032  0.8693625539535969  0.14459141897363673  1.0000
  S   S83       1.0  0.5860061600058988  0.8911056444527312  0.13402876468576702  1.0000
  S   S84       1.0  0.5195208736178676  0.855062423233398  0.19520635503948006  1.0000
  Fe  Fe43      1.0  0.5780535741366906  0.9190721019585717  0.10293356317451892  1.0000
  S   S85       1.0  0.5959301110089718  0.9629046786963673  0.11660148381344211  1.0000
  Fe  Fe44      1.0  0.5748138774322437  0.8659614627516662  0.08479443592623445  1.0000
  S   S86       1.0  0.5956486063316079  0.8466042337655121  0.057949563496827866  1.0000
  S   S87       1.0  0.5345785485612149  0.8978950261054962  0.11546127778429682  1.0000
  S   S88       1.0  0.5318735781551718  0.8422424865733626  0.09816940897369876  1.0000
  Fe  Fe45      1.0  0.5540616968865526  0.699481369692442  0.9736063003183452  1.0000
  S   S89       1.0  0.5306754975228147  0.6805936976399514  0.9241071321202359  1.0000
  S   S90       1.0  0.5453395003741633  0.7259405019448182  0.008684852046440872  1.0000
  Fe  Fe46      1.0  0.5789478918950237  0.6635869374897732  0.9733035179175966  1.0000
  S   S91       1.0  0.5577387624372102  0.6431733179769847  0.9243774890386528  1.0000
  S   S92       1.0  0.5998783074785669  0.6470699531429238  0.005726490466135825  1.0000
  Fe  Fe47      1.0  0.5683681315539553  0.6833816099080121  0.9053903599820449  1.0000
  S   S93       1.0  0.5873523851820597  0.6936883570347183  0.8523148779041764  1.0000
  Fe  Fe48      1.0  0.522145304384643  0.6419495780100818  0.9473988026467798  1.0000
  S   S94       1.0  0.48500737645606007  0.6016077198467906  0.9441209335633668  1.0000
  S   S95       1.0  0.5925228417451747  0.7045665897914446  0.9535587090389033  1.0000
  S   S96       1.0  0.5426291930703345  0.6601772513197417  0.9976647704311719  1.0000
  Fe  Fe49      1.0  0.8934612807826176  0.35863181335608113  0.8983224477646689  1.0000
  S   S97       1.0  0.9025704338924522  0.3266180912339801  0.9105911936529995  1.0000
  S   S98       1.0  0.8829330942903685  0.3679618317693892  0.8451727559131181  1.0000
  Fe  Fe50      1.0  0.9092654895265232  0.38271224767781314  0.9714030705928989  1.0000
  S   S99       1.0  0.9202612480773831  0.3528383926362637  0.9877650745895179  1.0000
  S   S100      1.0  0.9200028366160503  0.41439290531056056  0.012478228021396642  1.0000
  Fe  Fe51      1.0  0.9396905080272346  0.359284062401497  0.9362317482976856  1.0000
  S   S101      1.0  0.9799569820249445  0.3650720477005673  0.9218359815912165  1.0000
  Fe  Fe52      1.0  0.8819357329139285  0.32298440876019485  0.9615796818365241  1.0000
  S   S102      1.0  0.8587334847791703  0.2861451645849658  0.9953719945113686  1.0000
  S   S103      1.0  0.9314585144010193  0.39126948612278395  0.9215077578810408  1.0000
  S   S104      1.0  0.8701109786688931  0.3528681400630807  0.9473158140577937  1.0000
  Fe  Fe53      1.0  0.6542018333501255  0.14452890181989816  0.09240493017242707  1.0000
  S   S105      1.0  0.674539202856067  0.14101160135209434  0.04564210510172417  1.0000
  S   S106      1.0  0.6140685700260208  0.14144424074811854  0.08968776453286843  1.0000
  Fe  Fe54      1.0  0.697117087528057  0.14878505810297538  0.1420317512423114  1.0000
  S   S107      1.0  0.7209511735615193  0.1461709286422429  0.09803383455363165  1.0000
  S   S108      1.0  0.7135666268337775  0.14934491030734393  0.19613696942751163  1.0000
  Fe  Fe55      1.0  0.7120567736771135  0.17434500755392113  0.06967772749162549  1.0000
  S   S109      1.0  0.7366692861362687  0.20881944232728497  0.03276702551962143  1.0000
  Fe  Fe56      1.0  0.681661399330559  0.11333552577638868  0.07783275810861094  1.0000
  S   S110      1.0  0.678569327472128  0.07588815557687358  0.055490776533536894  1.0000
  S   S111      1.0  0.6909471344435177  0.17937473936387383  0.11520251442896709  1.0000
  S   S112      1.0  0.6586150321064063  0.1144082749797197  0.12315495554373294  1.0000
  Fe  Fe57      1.0  0.8843256881298529  0.36409276616675607  0.5969268737176824  1.0000
  S   S113      1.0  0.8929440213112797  0.3461082604512626  0.551050609924843  1.0000
  S   S114      1.0  0.8684419574333071  0.3922086798893338  0.5958288238410492  1.0000
  Fe  Fe58      1.0  0.8991773300972318  0.3350699061101186  0.6496863223222105  1.0000
  S   S115      1.0  0.9094157137719651  0.31525509679844627  0.6075810840417534  1.0000
  S   S116      1.0  0.901214563707031  0.3225372356098218  0.7048816295789082  1.0000
  Fe  Fe59      1.0  0.9297037069947776  0.35480795040370217  0.5818796699743994  1.0000
  S   S117      1.0  0.9683699868067249  0.3726126596071626  0.5519446107967457  1.0000
  Fe  Fe60      1.0  0.8719207081698088  0.3078151762882171  0.5803237836646454  1.0000
  S   S118      1.0  0.8433049400103537  0.26486812717545516  0.5636386846077757  1.0000
  S   S119      1.0  0.922244413925205  0.3753547547718918  0.6259420214869658  1.0000
  S   S120      1.0  0.8606173360873451  0.3252119186291034  0.6242436292945911  1.0000
  Fe  Fe61      1.0  0.7199235636872127  0.16344578456922768  0.44234812740648644  1.0000
  S   S121      1.0  0.6852445193146036  0.16908412112605728  0.4317778871404564  1.0000
  S   S122      1.0  0.7599429502496567  0.2022342513474577  0.4407476128617481  1.0000
  Fe  Fe62      1.0  0.6829519148682851  0.10235718113356819  0.44179881482923217  1.0000
  S   S123      1.0  0.6464620161499027  0.10468029755798036  0.4312472867644859  1.0000
  S   S124      1.0  0.6808830888875048  0.0627647628632956  0.4485515960387532  1.0000
  Fe  Fe63      1.0  0.6720242749398634  0.1360391744303245  0.3927521427504031  1.0000
  S   S125      1.0  0.6563870310867123  0.13933701469444945  0.33984192489146725  1.0000
  Fe  Fe64      1.0  0.6634159296035369  0.13740711319043958  0.47100343176106585  1.0000
  S   S126      1.0  0.6425623862955655  0.14081305491420226  0.5183877884469322  1.0000
  S   S127      1.0  0.7076388464351743  0.1318157279251994  0.4008564042340904  1.0000
  S   S128      1.0  0.698890479464224  0.1335292360431963  0.48408042977250343  1.0000
  Fe  Fe65      1.0  0.463860458344936  0.10450030231010718  0.9607712999788456  1.0000
  S   S129      1.0  0.48708646923601073  0.10490707493695386  0.9147304344076611  1.0000
  S   S130      1.0  0.4332584693622263  0.06642499607836069  0.9864092814030665  1.0000
  Fe  Fe66      1.0  0.49169591133945834  0.1656702116484557  0.9651404547673779  1.0000
  S   S131      1.0  0.5163958012957768  0.16981366396758138  0.9183395377795448  1.0000
  S   S132      1.0  0.5047215122575054  0.2037684989288559  0.9966692336957255  1.0000
  Fe  Fe67      1.0  0.479344352218951  0.13621831760697525  0.8943770693316563  1.0000
  S   S133      1.0  0.4608647867885973  0.1316614707593061  0.8405069571859359  1.0000
  Fe  Fe68      1.0  0.5219351473452857  0.13814965957752248  0.9428144023350266  1.0000
  S   S134      1.0  0.562667859526698  0.14253210261072277  0.9442993161177466  1.0000
  S   S135      1.0  0.4539043024569696  0.13416875678939374  0.939432727843644  1.0000
  S   S136      1.0  0.4993746261543421  0.1356016175650543  0.9905529637547116  1.0000
  Fe  Fe69      1.0  0.4573803824485513  0.35147490067579107  0.10594028239673314  1.0000
  S   S137      1.0  0.5003985767972835  0.38033369597195055  0.11701465932498893  1.0000
  S   S138      1.0  0.42740039837843924  0.3626505419306257  0.12450433415199151  1.0000
  Fe  Fe70      1.0  0.46956521557471365  0.308048313994905  0.08163279037657166  1.0000
  S   S139      1.0  0.5130823917461158  0.33411623668083634  0.09281586217381783  1.0000
  S   S140      1.0  0.45073714402157755  0.2676911412355806  0.054043415720934386  1.0000
  Fe  Fe71      1.0  0.5005513445177655  0.34579582159234756  0.14189682979719573  1.0000
  S   S141      1.0  0.5215802155877477  0.35272518540600667  0.19422987283597884  1.0000
  Fe  Fe72      1.0  0.5084946581462912  0.36597024823373503  0.06719670277521478  1.0000
  S   S142      1.0  0.5328030272982962  0.38833586865047853  0.02055244135580057  1.0000
  S   S143      1.0  0.45726162171453283  0.3173108015667719  0.13281717094750303  1.0000
  S   S144      1.0  0.4652468412767217  0.33951639109282267  0.0541290793798118  1.0000
  Fe  Fe73      1.0  0.49763995712500436  0.13120904085272259  0.6442748169971652  1.0000
  S   S145      1.0  0.4584112004846525  0.128223202352569  0.6352289612070144  1.0000
  S   S146      1.0  0.5184596564644608  0.14212771280241146  0.6970064319728615  1.0000
  Fe  Fe74      1.0  0.5040960071157218  0.12382308149469289  0.5666920590750729  1.0000
  S   S147      1.0  0.4648785330972784  0.12028818540359378  0.5529926695768721  1.0000
  S   S148      1.0  0.5259824206844309  0.12265717237036748  0.5190328140728288  1.0000
  Fe  Fe75      1.0  0.4774319046647525  0.154869463635108  0.5892713286907502  1.0000
  S   S149      1.0  0.47996414634783785  0.19512934595497317  0.5855857328239302  1.0000
  Fe  Fe76      1.0  0.45009285097816826  0.0939660789336543  0.5998797028312062  1.0000
  S   S150      1.0  0.4107172732271226  0.05513107693319797  0.6029186161023699  1.0000
  S   S151      1.0  0.5173151912330076  0.15958693378017902  0.6004124951373748  1.0000
  S   S152      1.0  0.48857517812354  0.095625951184973  0.6114905725922276  1.0000
  Fe  Fe77      1.0  0.4655012815017413  0.3497018015935407  0.4651830960057424  1.0000
  S   S153      1.0  0.4916092639842473  0.37500444187594995  0.4226674738918188  1.0000
  S   S154      1.0  0.44369653669744075  0.36575920045562016  0.49623248355557614  1.0000
  Fe  Fe78      1.0  0.48384068387114454  0.30859972335058267  0.4569240217831343  1.0000
  S   S155      1.0  0.5121336568983177  0.3326543375433866  0.41444590303922313  1.0000
  S   S156      1.0  0.4769453696555475  0.2664383458759424  0.4616558116903202  1.0000
  Fe  Fe79      1.0  0.5222973258332508  0.3680960009254989  0.44807134275153054  1.0000
  S   S157      1.0  0.5626116393496663  0.4052116262764804  0.45298658706314593  1.0000
  Fe  Fe80      1.0  0.4789607848451381  0.33738104967000504  0.39318757945784644  1.0000
  S   S158      1.0  0.4614120718451737  0.32769123721272536  0.33837710100229607  1.0000
  S   S159      1.0  0.4968077327458433  0.3440982741922871  0.49222537617755135  1.0000
  S   S160      1.0  0.4500756003221616  0.31215746852263565  0.43416269924001333  1.0000
  Fe  Fe81      1.0  0.6700001227056473  0.5290833878227899  0.906518785442472  1.0000
  S   S161      1.0  0.7061277027263221  0.5689473169883865  0.913731531915842  1.0000
  S   S162      1.0  0.6572107760726775  0.5072833097531809  0.8544805606405733  1.0000
  Fe  Fe82      1.0  0.6597990427003719  0.5232409638374821  0.9850969489695066  1.0000
  S   S163      1.0  0.6953705848623133  0.5632522813117661  0.9969481567311773  1.0000
  S   S164      1.0  0.6394090035380264  0.49932600728329357  0.03280764195033692  1.0000
  Fe  Fe83      1.0  0.6808573484613217  0.5763632417536483  0.9508604377961324  1.0000
  S   S165      1.0  0.6793865152707622  0.6139724301662886  0.9422923455146933  1.0000
  Fe  Fe84      1.0  0.7168621350464625  0.551675349394795  0.9590307236912604  1.0000
  S   S166      1.0  0.7543442988408989  0.5483850442411548  0.9620032784499479  1.0000
  S   S167      1.0  0.6440593741385523  0.5370071785065528  0.9414148190607997  1.0000
  S   S168      1.0  0.6817892725350886  0.5111732854458584  0.9495300908503153  1.0000
  Fe  Fe85      1.0  0.8741530681709944  0.5059154413390909  0.09122536080127448  1.0000
  S   S169      1.0  0.8842729290376486  0.5389321913026097  0.05401081157800146  1.0000
  S   S170      1.0  0.8532310189508346  0.46413163523051953  0.0694966021125867  1.0000
  Fe  Fe86      1.0  0.8945785851577277  0.5429990811253588  0.15436685474065906  1.0000
  S   S171      1.0  0.9059508660635933  0.5787234675695759  0.12127786207612501  1.0000
  S   S172      1.0  0.9096388678222939  0.5501420639349828  0.2105234695736995  1.0000
  Fe  Fe87      1.0  0.8665719334373392  0.5535347640764162  0.09344344258656391  1.0000
  S   S173      1.0  0.8408550083678026  0.5719289303197683  0.08140129863612962  1.0000
  Fe  Fe88      1.0  0.922573381660245  0.5612046967436444  0.08466081054432527  1.0000
  S   S174      1.0  0.961756380357943  0.5817887015719161  0.055679088196371705  1.0000
  S   S175      1.0  0.8540847648080833  0.5191128705523169  0.12951085594788547  1.0000
  S   S176      1.0  0.9135483415769728  0.5269035546983776  0.11888711110934377  1.0000
  Fe  Fe89      1.0  0.6527647138946682  0.5523015140023972  0.5961379287866292  1.0000
  S   S177      1.0  0.6410115898315476  0.5229686236163276  0.6392988270450702  1.0000
  S   S178      1.0  0.621293906968482  0.5637728659633163  0.586560518667818  1.0000
  Fe  Fe90      1.0  0.7013509149730456  0.5462231672014846  0.5782578455389386  1.0000
  S   S179      1.0  0.692566744121835  0.51713756208177  0.6211121408129346  1.0000
  S   S180      1.0  0.733031413655211  0.5568503880502319  0.536840065763428  1.0000
  Fe  Fe91      1.0  0.6501188399400799  0.49901626480325556  0.6025125676810965  1.0000
  S   S181      1.0  0.6226447988300422  0.45475143288870373  0.596113195734282  1.0000
  Fe  Fe92      1.0  0.6841120894679884  0.5440114577688313  0.6536696182571374  1.0000
  S   S182      1.0  0.6994507049641883  0.5613065905069418  0.707712925350742  1.0000
  S   S183      1.0  0.6591674483225164  0.5267583558551634  0.5583583320768278  1.0000
  S   S184      1.0  0.6958623792679716  0.5747454354009778  0.6118328627791288  1.0000
  Fe  Fe93      1.0  0.9071977748203189  0.5566847076320048  0.4547444448417445  1.0000
  S   S185      1.0  0.9007152950845038  0.5249020706314074  0.41688348665252495  1.0000
  S   S186      1.0  0.9453449391287092  0.5964420010996271  0.4576590472981263  1.0000
  Fe  Fe94      1.0  0.8502255757728062  0.5263614512387583  0.4813425419728894  1.0000
  S   S187      1.0  0.8393636892312695  0.4918469547969224  0.44565562772640094  1.0000
  S   S188      1.0  0.8231127075391219  0.5259666434440435  0.5243995863232563  1.0000
  Fe  Fe95      1.0  0.8788215581156887  0.49668567114415424  0.4601183755706385  1.0000
  S   S189      1.0  0.8852733145488717  0.4617606866501146  0.4617052871231776  1.0000
  Fe  Fe96      1.0  0.8619065683190347  0.5220092611219703  0.4044862153956389  1.0000
  S   S190      1.0  0.8435989915873915  0.5122363387226532  0.35020748101115695  1.0000
  S   S191      1.0  0.888482509367419  0.5288511527465292  0.4992252048502976  1.0000
  S   S192      1.0  0.8696724444392563  0.5562661515052453  0.4390343269809198  1.0000
  C   C1        1.0  0.7578374200506349  0.547904651186575  0.5338284194478431  1.0000
  C   C2        1.0  0.7634569196644542  0.5357674002398811  0.5611059722600608  1.0000
  C   C3        1.0  0.7832954447902839  0.5290291528429465  0.5575108036722665  1.0000
  C   C4        1.0  0.7975531703723945  0.5339571132286945  0.5265297610628336  1.0000
  C   C5        1.0  0.7916464160119524  0.5457147240397224  0.49903046477144886  1.0000
  C   C6        1.0  0.772058603368947  0.5528062909926126  0.5028016827814993  1.0000
  H   H1        1.0  0.752800123432564  0.5319167564041521  0.585173432446776  1.0000
  H   H2        1.0  0.7877034437512836  0.5200019682035583  0.5790077852971562  1.0000
  H   H3        1.0  0.8022285156463747  0.5494913488968131  0.47491951585597403  1.0000
  H   H4        1.0  0.767816077906527  0.5620813586347687  0.4814499625635483  1.0000
  C   C7        1.0  0.8905663244617051  0.5403330509998665  0.24884069892618138  1.0000
  C   C8        1.0  0.863018217144837  0.5238697597014894  0.2480382336266158  1.0000
  C   C9        1.0  0.8488420504634685  0.5159044255465622  0.27929872947629586  1.0000
  C   C10       1.0  0.8620095690670397  0.524419871013167  0.3115775822258342  1.0000
  C   C11       1.0  0.8895252359875488  0.5411157229349245  0.31234107418372814  1.0000
  C   C12       1.0  0.9037100412996683  0.5488906698022762  0.28112905013092154  1.0000
  H   H5        1.0  0.8526617096664392  0.5171373534570962  0.22337818819649655  1.0000
  H   H6        1.0  0.8275604227041468  0.5029759477808688  0.27844733040487674  1.0000
  H   H7        1.0  0.8999121279374789  0.5479104260442356  0.3369741350841359  1.0000
  H   H8        1.0  0.9250000540730063  0.5617046057838554  0.28203765172202616  1.0000
  C   C13       1.0  0.6673731553024818  0.5230192205214094  0.8136757045796169  1.0000
  C   C14       1.0  0.6854194232891869  0.5500982806697856  0.8110852720058576  1.0000
  C   C15       1.0  0.6948819140764203  0.5614640739878928  0.7784117374072028  1.0000
  C   C16       1.0  0.6860264568992392  0.5460534068949707  0.747915493751959  1.0000
  C   C17       1.0  0.6673860109995844  0.5191264769188543  0.750341418496346  1.0000
  C   C18       1.0  0.6582743100787936  0.5076525616387947  0.7831234422102596  1.0000
  H   H9        1.0  0.6923209518176188  0.5622836437350698  0.8342618030925908  1.0000
  H   H10       1.0  0.7092333764422307  0.5823389928647108  0.7767909309524909  1.0000
  H   H11       1.0  0.6603950090986607  0.5070357179632146  0.7270645714185293  1.0000
  H   H12       1.0  0.6442684170842776  0.486694509656916  0.7848316222033358  1.0000
  C   C19       1.0  0.7773860199580793  0.5543654409001089  0.9964255630602146  1.0000
  C   C20       1.0  0.7819357108925027  0.5720170050419517  0.023687506563795785  1.0000
  C   C21       1.0  0.8012004742317671  0.5768863302375159  0.04956062177291778  1.0000
  C   C22       1.0  0.8160792670288778  0.5641137819691249  0.04874685801580602  1.0000
  C   C23       1.0  0.8113277065918678  0.5462510262297414  0.021682750394734995  1.0000
  C   C24       1.0  0.792254960475117  0.5415851517613295  0.9956077200346288  1.0000
  H   H13       1.0  0.771182982532476  0.58250954307387  0.024353613726749813  1.0000
  H   H14       1.0  0.8048360120138826  0.5909192632596952  0.07018041977539738  1.0000
  H   H15       1.0  0.8225684562553246  0.5362600327673025  0.020604598912943972  1.0000
  H   H16       1.0  0.7890775567623172  0.5279972305482733  0.9746012703541884  1.0000
  C   C25       1.0  0.5780908783045146  0.4185514782002305  0.49347096241868876  1.0000
  C   C26       1.0  0.5716099131345692  0.40320400778403437  0.5234102497264423  1.0000
  C   C27       1.0  0.5851775379416427  0.4145561125867766  0.5548873102613147  1.0000
  C   C28       1.0  0.6047946071157213  0.4414088213689663  0.5568211259585848  1.0000
  C   C29       1.0  0.6106016660825104  0.45682003494905454  0.5270569263234552  1.0000
  C   C30       1.0  0.597734220625508  0.44533300961927635  0.49541335511873746  1.0000
  H   H17       1.0  0.5566051854400044  0.3824888397734062  0.5221669109996918  1.0000
  H   H18       1.0  0.5805453042188519  0.4024596447111217  0.5777942590696513  1.0000
  H   H19       1.0  0.6253890150593073  0.47746615510464235  0.5281523493095291  1.0000
  H   H20       1.0  0.6028532394098679  0.4573310124731305  0.4723544667332467  1.0000
  C   C31       1.0  0.4788524232036274  0.2144568653379242  0.5506321748711205  1.0000
  C   C32       1.0  0.47220889306811303  0.20472579654738315  0.5166028259870219  1.0000
  C   C33       1.0  0.4718692213997522  0.22096432504824623  0.489836659156137  1.0000
  C   C34       1.0  0.4779700184314159  0.2470730958561988  0.49665595032895316  1.0000
  C   C35       1.0  0.4846310237339021  0.2567839413091713  0.5306860709619704  1.0000
  C   C36       1.0  0.4850533902302384  0.24057296368819253  0.5574245882629498  1.0000
  H   H21       1.0  0.4669103123352004  0.18457359262777467  0.5110201049460913  1.0000
  H   H22       1.0  0.4665090021777145  0.21312262956665765  0.4637075355366574  1.0000
  H   H23       1.0  0.48934201498728497  0.27675353340374453  0.5364449199274274  1.0000
  H   H24       1.0  0.4901470577575021  0.2483677385394136  0.5836010931942872  1.0000
  C   C37       1.0  0.5621933701222954  0.4193460927798778  0.024593536574778436  1.0000
  C   C38       1.0  0.5751274724441086  0.43290004781654984  0.9943984548638101  1.0000
  C   C39       1.0  0.5987099521746556  0.4575358557093231  0.996543047246706  1.0000
  C   C40       1.0  0.6095776329108054  0.4687007562939431  0.028972379705201723  1.0000
  C   C41       1.0  0.5967163719540721  0.4551039319456495  0.059181535550154596  1.0000
  C   C42       1.0  0.5730438414847593  0.4305242413806373  0.05703667277071002  1.0000
  H   H25       1.0  0.5668140741982517  0.4243929366612647  0.9692186620352296  1.0000
  H   H26       1.0  0.6084521343131413  0.46787240420264664  0.9731322097452477  1.0000
  H   H27       1.0  0.6050110268758468  0.46366079424784273  0.0843494972881218  1.0000
  H   H28       1.0  0.5632499966424558  0.4202205560477924  0.08043394168182948  1.0000
  C   C43       1.0  0.504711793264684  0.344518511008272  0.23428027846505675  1.0000
  C   C44       1.0  0.5193556925274533  0.353581133076805  0.2654970068777743  1.0000
  C   C45       1.0  0.5064931339909448  0.3484226667092054  0.29771343061523137  1.0000
  C   C46       1.0  0.4788214278833063  0.33411027309566965  0.298917907287427  1.0000
  C   C47       1.0  0.46421292096579947  0.32473258780945413  0.2677598738115964  1.0000
  C   C48       1.0  0.47706374401619345  0.32986934661652667  0.23561242086859807  1.0000
  H   H29       1.0  0.5407730315650656  0.36488663300702806  0.26472685771633214  1.0000
  H   H30       1.0  0.5179904357422553  0.35573211398754534  0.3215093887266207  1.0000
  H   H31       1.0  0.4427976928863668  0.313524228313993  0.2684347383666475  1.0000
  H   H32       1.0  0.46556611645139123  0.32252892625032736  0.21185621722909279  1.0000
  C   C49       1.0  0.47707150634335593  0.13282972620275527  0.8013403743981528  1.0000
  C   C50       1.0  0.46201993993587115  0.12343736985298899  0.7704741025295285  1.0000
  C   C51       1.0  0.47429082364716024  0.12511614391380083  0.7385378206542654  1.0000
  C   C52       1.0  0.5018583454688844  0.13688811584106597  0.7370221316666421  1.0000
  C   C53       1.0  0.516859573784572  0.14600150079969632  0.767942908261961  1.0000
  C   C54       1.0  0.5045389935431137  0.14382367000103002  0.7999983826990337  1.0000
  H   H33       1.0  0.44075784905679216  0.11484572353547923  0.7712261017981187  1.0000
  H   H34       1.0  0.4624707789841886  0.11774266659954673  0.7150144411620158  1.0000
  H   H35       1.0  0.5381811087091671  0.15499095672581026  0.7670918667733575  1.0000
  H   H36       1.0  0.5163702756296829  0.15110993293455055  0.8235448762849609  1.0000
  C   C55       1.0  0.4887709094607351  0.22050457056639908  0.013122969909193705  1.0000
  C   C56       1.0  0.46221211366104825  0.2122375340530355  0.005841272403861675  1.0000
  C   C57       1.0  0.4508032995304496  0.22662849503804697  0.019097967986528266  1.0000
  C   C58       1.0  0.4657124790006028  0.2494009296774285  0.039808635025256896  1.0000
  C   C59       1.0  0.492193481571894  0.25747085982894646  0.047369236768972034  1.0000
  C   C60       1.0  0.5036406806201433  0.24322499613726195  0.03392103060238805  1.0000
  H   H37       1.0  0.4504646140068979  0.19479908046168026  0.9899814994125611  1.0000
  H   H38       1.0  0.4302764577906969  0.22010531762805846  0.013160890516122977  1.0000
  H   H39       1.0  0.5038475418464309  0.2746267479248937  0.06373695502458915  1.0000
  H   H40       1.0  0.5241430974876556  0.24978779126516004  0.039929441123990994  1.0000
  C   C61       1.0  0.6101523677278793  0.1357576850031859  0.5179782885779759  1.0000
  C   C62       1.0  0.5950701728267407  0.12954610690849838  0.4873954414402001  1.0000
  C   C63       1.0  0.5691960015372247  0.12535718005328447  0.4882471920482461  1.0000
  C   C64       1.0  0.5581952602727352  0.12721762749273727  0.5196194901045632  1.0000
  C   C65       1.0  0.5732459641099971  0.13335289176431922  0.5502194543741371  1.0000
  C   C66       1.0  0.5991418298514982  0.13758538177575463  0.549359205529488  1.0000
  H   H41       1.0  0.603358066387528  0.12808003904690782  0.46309541613601723  1.0000
  H   H42       1.0  0.557641521911551  0.12064751995668764  0.4644598188987215  1.0000
  H   H43       1.0  0.5649751907760381  0.1348794814467601  0.5745033310946748  1.0000
  H   H44       1.0  0.6107331892265343  0.14239249429224865  0.5731260550754087  1.0000
  C   C67       1.0  0.8738204207567211  0.4119746758501735  0.5587587987548596  1.0000
  C   C68       1.0  0.8853903425696041  0.4087925188343343  0.5289682025974448  1.0000
  C   C69       1.0  0.8888469977828455  0.42428480075040265  0.4995483178883756  1.0000
  C   C70       1.0  0.8810701198128729  0.4433090142683399  0.4997354873902984  1.0000
  C   C71       1.0  0.8697533116847345  0.44674397254684295  0.529639972406798  1.0000
  C   C72       1.0  0.8660317758118449  0.4310190708867424  0.5589902039907158  1.0000
  H   H45       1.0  0.8915591850308818  0.39430636891097615  0.5284738767283237  1.0000
  H   H46       1.0  0.8976625121141721  0.4215412123047837  0.47656897021646727  1.0000
  H   H47       1.0  0.8636463596208941  0.4613094344909503  0.5300372819684941  1.0000
  H   H48       1.0  0.8570821371250045  0.4336345109132646  0.581913832103451  1.0000
  C   C73       1.0  0.818831435986728  0.24886502859627083  0.5302668217746707  1.0000
  C   C74       1.0  0.7992115358607825  0.22219434385978512  0.5345065939323986  1.0000
  C   C75       1.0  0.7804801581446411  0.20794996974157473  0.5079403894793982  1.0000
  C   C76       1.0  0.7815496770103455  0.22001204054676332  0.47628960800587283  1.0000
  C   C77       1.0  0.8012479504882333  0.24669277072855783  0.4719423544478347  1.0000
  C   C78       1.0  0.8196010404259568  0.26114360263088027  0.4988645775256497  1.0000
  H   H49       1.0  0.7985225914948169  0.21239382712386176  0.5585342469301473  1.0000
  H   H50       1.0  0.7656328979861939  0.18743727285031495  0.5116796717592466  1.0000
  H   H51       1.0  0.8023761161471858  0.25623377157612715  0.44755921933949994  1.0000
  H   H52       1.0  0.8346493274622658  0.28155954293172175  0.4950363409358307  1.0000
  C   C79       1.0  0.5997084487098034  0.13972536239273234  0.04854942430177947  1.0000
  C   C80       1.0  0.5724075072721662  0.13029645827831782  0.04593425943847196  1.0000
  C   C81       1.0  0.5606914039976987  0.1302914066320648  0.01387903984649741  1.0000
  C   C82       1.0  0.5762620730852932  0.1400496230557725  0.9842790696743543  1.0000
  C   C83       1.0  0.6034841121479886  0.1491342325379596  0.9867918231309396  1.0000
  C   C84       1.0  0.6151860609209114  0.14898275373827527  0.018793616225492523  1.0000
  H   H53       1.0  0.5603017552328055  0.12300314610513147  0.06881780481760225  1.0000
  H   H54       1.0  0.5396278285800332  0.12271895690556589  0.012110529822294769  1.0000
  H   H55       1.0  0.6156564064640175  0.1567385620839247  0.9640114397488913  1.0000
  H   H56       1.0  0.6362787886094616  0.15666783677082372  0.020575955745799592  1.0000
  C   C85       1.0  0.6966869678146416  0.1455273254772414  0.23553470977987553  1.0000
  C   C86       1.0  0.6728169099599957  0.1454997047877835  0.23674227354946897  1.0000
  C   C87       1.0  0.6604935855393638  0.14317177724679042  0.2688343188320253  1.0000
  C   C88       1.0  0.671697438027136  0.14050737250264808  0.2998965937718179  1.0000
  C   C89       1.0  0.6952362724477862  0.13989594265398786  0.2985403751169818  1.0000
  C   C90       1.0  0.707771857562926  0.14262879043313284  0.26655609949682346  1.0000
  H   H57       1.0  0.6640508889194934  0.1476983545907193  0.21305854416297498  1.0000
  H   H58       1.0  0.6422478798864978  0.1436154748747586  0.26960165958797233  1.0000
  H   H59       1.0  0.7039031444363238  0.13753529424400185  0.3221581202363238  1.0000
  H   H60       1.0  0.7261998654198464  0.14254862153216386  0.2658610531975052  1.0000
  C   C91       1.0  0.9013349065706562  0.4288753568287161  0.025541048745788775  1.0000
  C   C92       1.0  0.8747391465222389  0.41834372243654244  0.015827906310085682  1.0000
  C   C93       1.0  0.8601618746161013  0.4293564112817003  0.029370339159759062  1.0000
  C   C94       1.0  0.8722551077274828  0.45137672704847986  0.05183594240096647  1.0000
  C   C95       1.0  0.8989854472251523  0.46222934665116727  0.06080672185021523  1.0000
  C   C96       1.0  0.9133395703309635  0.4508171574915457  0.048038804989076714  1.0000
  H   H61       1.0  0.8653566964857811  0.40171825900706654  0.9980960899420149  1.0000
  H   H62       1.0  0.8395080340806895  0.4209746639041219  0.022197515495586462  1.0000
  H   H63       1.0  0.9084725796848705  0.47910200653011104  0.07814121347954177  1.0000
  H   H64       1.0  0.9338884668127654  0.4590542856477274  0.055684771325159414  1.0000
  C   C97       1.0  0.8873631838073601  0.3548305252889314  0.8061650676296008  1.0000
  C   C98       1.0  0.8923467945664649  0.36923403040201286  0.7753121599352731  1.0000
  C   C99       1.0  0.8962704689866037  0.3594126500449554  0.7439026223946703  1.0000
  C   C100      1.0  0.8947049645988461  0.33487763500179574  0.7430267502074566  1.0000
  C   C101      1.0  0.8896501618661303  0.3204763889869264  0.7738471454034056  1.0000
  C   C102      1.0  0.88600524642072  0.3303980686300845  0.8052916770677362  1.0000
  H   H65       1.0  0.8937115279889806  0.38830121785198907  0.7759294428754833  1.0000
  H   H66       1.0  0.9011711529773476  0.3710094360984385  0.7205497610041108  1.0000
  H   H67       1.0  0.8886219588295458  0.3015524967593098  0.7734105448143809  1.0000
  H   H68       1.0  0.8819141557274134  0.31902710191283357  0.8288145440812402  1.0000
  C   C103      1.0  0.824687157958475  0.2653470416216681  0.005933462138875578  1.0000
  C   C104      1.0  0.8045581267465732  0.26857321752248764  0.9913021899512663  1.0000
  C   C105      1.0  0.7778629805236611  0.2513075999652126  0.0002499651873071329  1.0000
  C   C106      1.0  0.7708898674155311  0.2307668528294292  0.02415170120981278  1.0000
  C   C107      1.0  0.7910447321798074  0.22770925159657465  0.0390694941255727  1.0000
  C   C108      1.0  0.8177298212197489  0.244879184477565  0.029959221841145967  1.0000
  H   H69       1.0  0.809485998242466  0.284120468159883  0.9727336216555967  1.0000
  H   H70       1.0  0.7624580477258431  0.25381911056046724  0.9883912313466154  1.0000
  H   H71       1.0  0.7860925445094229  0.21201321013952737  0.057392546808768596  1.0000
  H   H72       1.0  0.8331183389748971  0.24218099865411308  0.04147543793096764  1.0000
  C   C109      1.0  0.6207378205961264  0.6367075366124159  0.9867903203543059  1.0000
  C   C110      1.0  0.6311995853773722  0.6447738410900233  0.9536608829092624  1.0000
  C   C111      1.0  0.6487201966092313  0.6372283799396806  0.9401579428278707  1.0000
  C   C112      1.0  0.6552550308117453  0.6207890729525445  0.9590135270434396  1.0000
  C   C113      1.0  0.6440152002835834  0.6119436211113626  0.9916590265693669  1.0000
  C   C114      1.0  0.6272068194947975  0.6202311194160889  0.0056803950760655475  1.0000
  H   H73       1.0  0.6264892179657765  0.6575029541360198  0.9388118763886883  1.0000
  H   H74       1.0  0.6574746072272638  0.6443748606161759  0.9150354833670532  1.0000
  H   H75       1.0  0.6491396743369613  0.5995898789887119  0.006654254898708523  1.0000
  H   H76       1.0  0.6193608974647877  0.6139759057498924  0.03140709750672377  1.0000
  C   C115      1.0  0.617422549735174  0.9933697435416633  0.09606970595768595  1.0000
  C   C116      1.0  0.6166853349768852  0.015912076040485612  0.10668926241412685  1.0000
  C   C117      1.0  0.6347091273019106  0.04104011651394951  0.09360998643030614  1.0000
  C   C118      1.0  0.6541121305329364  0.04409414146357916  0.07015208057043841  1.0000
  C   C119      1.0  0.6546386290845748  0.021517438577136262  0.05903256504816104  1.0000
  C   C120      1.0  0.6363110873312844  0.9962335225113054  0.07178900910073774  1.0000
  H   H77       1.0  0.6020609551927738  0.01390577430720441  0.12527830852931227  1.0000
  H   H78       1.0  0.6335799900281941  0.05803708281812719  0.10177269854461614  1.0000
  H   H79       1.0  0.6694967878361031  0.02360063881683064  0.040809683669909114  1.0000
  H   H80       1.0  0.6372471502120869  0.9791083463882749  0.06355734854482177  1.0000
  C   C121      1.0  0.5814568047673844  0.812929814688212  0.0446517941750087  1.0000
  C   C122      1.0  0.5569713091586935  0.7930823094657381  0.05680222745590657  1.0000
  C   C123      1.0  0.54630282671734  0.7667334345701794  0.04528032002929816  1.0000
  C   C124      1.0  0.55980172980662  0.7597718830006343  0.02134429169481966  1.0000
  C   C125      1.0  0.5842485643614806  0.7796345921672055  0.009014416452910798  1.0000
  C   C126      1.0  0.595090743872799  0.8059610039536904  0.020893458109132342  1.0000
  H   H81       1.0  0.54629925010236  0.7979768762654521  0.0752832593831092  1.0000
  H   H82       1.0  0.5274184216893593  0.7515775691260042  0.05510886116864744  1.0000
  H   H83       1.0  0.5948652942942185  0.7747298187475351  0.990456301546775  1.0000
  H   H84       1.0  0.6140882730677616  0.8211043778842891  0.01135336869067544  1.0000
  C   C127      1.0  0.6155673764897024  0.638799582309459  0.6004267828767298  1.0000
  C   C128      1.0  0.5928615160080848  0.613948961168433  0.596037927919309  1.0000
  C   C129      1.0  0.5951249383450985  0.5913282678062901  0.5918878157181713  1.0000
  C   C130      1.0  0.6200276715996389  0.5931545487670686  0.5923763319888989  1.0000
  C   C131      1.0  0.6427748923721991  0.6179833580802075  0.5971982147076751  1.0000
  C   C132      1.0  0.6405167499388846  0.6406700504951022  0.6011632770938509  1.0000
  H   H85       1.0  0.5735424785024703  0.6121782794457143  0.5952677443488097  1.0000
  H   H86       1.0  0.5774055254821427  0.572268550752804  0.5880131146679064  1.0000
  H   H87       1.0  0.6621073419033244  0.6198238126821626  0.5969650535750062  1.0000
  H   H88       1.0  0.6582144134054078  0.6598316232739098  0.604318826253501  1.0000
  C   C133      1.0  0.5457777143964553  0.6890927606936432  0.7485390769027581  1.0000
  C   C134      1.0  0.533704093885009  0.6888261008033336  0.7800085893771009  1.0000
  C   C135      1.0  0.5457993217246803  0.6894314895221713  0.8120416512096778  1.0000
  C   C136      1.0  0.5704195060914002  0.6909514702802386  0.8128274808335546  1.0000
  C   C137      1.0  0.582467178378622  0.6911976975417896  0.7813420274982297  1.0000
  C   C138      1.0  0.5700910004991687  0.6899821951068851  0.7493115912180012  1.0000
  H   H89       1.0  0.5149657058453528  0.6882962417733157  0.7796523902240294  1.0000
  H   H90       1.0  0.53646625972438  0.6894694943420637  0.836105372778591  1.0000
  H   H91       1.0  0.6015909281205651  0.6925295610416684  0.7817727222046817  1.0000
  H   H92       1.0  0.5796161143032547  0.6902567404158673  0.7252805571586024  1.0000
  C   C139      1.0  0.6034139233384489  0.9827276257282944  0.45750265497825987  1.0000
  C   C140      1.0  0.6027733986263862  0.0053082185807733495  0.44707667468810225  1.0000
  C   C141      1.0  0.6263605991518777  0.029708626342241154  0.4431909761320101  1.0000
  C   C142      1.0  0.6508689211623887  0.03195242111573985  0.450433825763856  1.0000
  C   C143      1.0  0.6515606547352069  0.009225567031613266  0.4600408584572648  1.0000
  C   C144      1.0  0.6279629553518153  0.9846824272466005  0.4634402053720327  1.0000
  H   H93       1.0  0.583885059404118  0.003963783568897705  0.44224570792955215  1.0000
  H   H94       1.0  0.625580232336134  0.04683139946853374  0.4348279125533524  1.0000
  H   H95       1.0  0.6704402881145448  0.010738537554134111  0.4656363432165568  1.0000
  H   H96       1.0  0.6287518077406288  0.967537295222889  0.4718948716031723  1.0000
  C   C145      1.0  0.5571878414606766  0.8697238500228281  0.3046855098022828  1.0000
  C   C146      1.0  0.5298834839802521  0.8590996917677027  0.3003343789577078  1.0000
  C   C147      1.0  0.5186804451470591  0.854898555178272  0.2666632652305454  1.0000
  C   C148      1.0  0.5346578512000354  0.8616016729778617  0.2370688560131352  1.0000
  C   C149      1.0  0.5620291370905084  0.8727790804837972  0.2414887354590492  1.0000
  C   C150      1.0  0.5731770626272137  0.8766579869953376  0.275109232774955  1.0000
  H   H97       1.0  0.5173365877067159  0.8536208574283713  0.3228382188551617  1.0000
  H   H98       1.0  0.4974859166609329  0.8461847485451099  0.26356229123223046  1.0000
  H   H99       1.0  0.5745466108646891  0.8779266163565047  0.21899070246407845  1.0000
  H   H100      1.0  0.5942979083813035  0.8847690920921216  0.2781628302461495  1.0000
  C   C151      1.0  0.5629091859246378  0.8038724190815623  0.5210944234431112  1.0000
  C   C152      1.0  0.5489251030981788  0.7850269425822075  0.49509532604401685  1.0000
  C   C153      1.0  0.5416715151370727  0.758397181692789  0.500034746727822  1.0000
  C   C154      1.0  0.5481323557451123  0.7501379498039974  0.5310001103800909  1.0000
  C   C155      1.0  0.5620628135163949  0.7689506373379396  0.5570572576325755  1.0000
  C   C156      1.0  0.5694724998440956  0.7956403966280213  0.5520303191993318  1.0000
  H   H101      1.0  0.5438926178866911  0.790982200720484  0.471022949230723  1.0000
  H   H102      1.0  0.5310142848137518  0.7440771291769429  0.47960313079188893  1.0000
  H   H103      1.0  0.5671845256943688  0.7629889838468714  0.5810529163877151  1.0000
  H   H104      1.0  0.5802762713068126  0.8100089977329183  0.5723540237047896  1.0000
  C   C157      1.0  0.39921436749742084  0.41399954637135344  0.0701930964276475  1.0000
  C   C158      1.0  0.395519452363318  0.4089872149504484  0.10575778172568594  1.0000
  C   C159      1.0  0.40446899641943895  0.39339941188973626  0.12195139119867358  1.0000
  C   C160      1.0  0.4177068253646637  0.3831482604217556  0.1029956558383682  1.0000
  C   C161      1.0  0.42190727440653913  0.3886255341513074  0.06757804652141314  1.0000
  C   C162      1.0  0.4124012307660945  0.40371834062567263  0.05119757277896065  1.0000
  H   H105      1.0  0.38538563661473535  0.4167504325037271  0.12069048255108389  1.0000
  H   H106      1.0  0.4009940193426207  0.3891663427524518  0.14930413353513716  1.0000
  H   H107      1.0  0.4319565122333664  0.3807658239641048  0.05265817264642389  1.0000
  H   H108      1.0  0.4153096888021056  0.40744771086106235  0.023665025954984095  1.0000
  C   C163      1.0  0.4308781671818451  0.5689440971489621  0.03837044651848364  1.0000
  C   C164      1.0  0.4293614328015055  0.5520014976665152  0.011715100916193093  1.0000
  C   C165      1.0  0.4460625229117822  0.5622474365539245  0.9828957167814373  1.0000
  C   C166      1.0  0.46470131845710017  0.5893524201743118  0.9809076345528075  1.0000
  C   C167      1.0  0.46663061452614396  0.6061600721497589  0.007955543008503208  1.0000
  C   C168      1.0  0.4495583629710956  0.5960121760241267  0.03638817965547014  1.0000
  H   H109      1.0  0.41498183425174723  0.5311261304734044  0.012968217008204096  1.0000
  H   H110      1.0  0.4444027132494865  0.5491506362750309  0.9619883083872393  1.0000
  H   H111      1.0  0.4807891626875845  0.6270882615548139  0.006572392001798377  1.0000
  H   H112      1.0  0.45078473112548256  0.6092248156293478  0.05689238594323376  1.0000
  C   C169      1.0  0.05955648294177731  0.4205335803187015  0.9768614991245715  1.0000
  C   C170      1.0  0.05868970701907959  0.413121366815866  0.9421634876024141  1.0000
  C   C171      1.0  0.03417223094320332  0.39622664346922676  0.9257021513832043  1.0000
  C   C172      1.0  0.010217499243206252  0.3873240686422632  0.9432957170662558  1.0000
  C   C173      1.0  0.011044737718564068  0.3953676204611552  0.9777238635345413  1.0000
  C   C174      1.0  0.03564008879487607  0.4115294675294099  0.9945927784776611  1.0000
  H   H113      1.0  0.07694713163607544  0.41982727339925846  0.9282631112505111  1.0000
  H   H114      1.0  0.03387970014921349  0.3898913654595908  0.8992908427339026  1.0000
  H   H115      1.0  0.9927760836066843  0.38843670648360723  0.9916813642650841  1.0000
  H   H116      1.0  0.036116333068866  0.4170059130974662  0.021523622382097596  1.0000
  C   C175      1.0  0.24086915742036719  0.47256656361075156  0.9916309722539017  1.0000
  C   C176      1.0  0.2658424954239603  0.47537067296751906  0.9853319626150275  1.0000
  C   C177      1.0  0.27980430926621025  0.47047805076138366  0.0115687742766315  1.0000
  C   C178      1.0  0.2689094717871629  0.46255770843920363  0.04456846177257055  1.0000
  C   C179      1.0  0.24401724664892896  0.45988376646778895  0.0509157358219813  1.0000
  C   C180      1.0  0.23016853685335598  0.4650455978843925  0.024770221169220456  1.0000
  H   H117      1.0  0.2742762363442259  0.48100063111390484  0.9597692237594164  1.0000
  H   H118      1.0  0.29860310215397584  0.47205883387763203  0.005912622851274918  1.0000
  H   H119      1.0  0.23523302387890926  0.45356518050480993  0.07621298403271183  1.0000
  H   H120      1.0  0.2109554268788094  0.4626390755001557  0.030087416054666416  1.0000
  C   C181      1.0  0.3967808594809353  0.40123208891467504  0.44628843978626004  1.0000
  C   C182      1.0  0.40589631639030865  0.3876329043241739  0.42583058813245767  1.0000
  C   C183      1.0  0.4206426469278107  0.37710883719235866  0.44064792690735827  1.0000
  C   C184      1.0  0.4259368600075495  0.37952393088825626  0.4763404287121791  1.0000
  C   C185      1.0  0.4169984215835227  0.39327500291965645  0.4968252109867756  1.0000
  C   C186      1.0  0.40271945679846616  0.40432192146290413  0.4818542104449747  1.0000
  H   H121      1.0  0.4013666681842478  0.38502803064084007  0.39834578075130034  1.0000
  H   H122      1.0  0.4273810156267616  0.3665971399315767  0.4245701981673379  1.0000
  H   H123      1.0  0.42091140135637456  0.3951925078588591  0.5244874432317346  1.0000
  H   H124      1.0  0.3956476767863141  0.4145205530991665  0.4979661202927323  1.0000
  C   C187      1.0  0.4359114716216387  0.5564500324109117  0.4968181408912555  1.0000
  C   C188      1.0  0.42995791563968583  0.5406829666519792  0.5262719023506032  1.0000
  C   C189      1.0  0.4432907841816524  0.5518170134403483  0.5579048320961818  1.0000
  C   C190      1.0  0.4628974439910978  0.5786644120413418  0.5601614191898101  1.0000
  C   C191      1.0  0.4689925829892666  0.5943538928693273  0.5306269652234582  1.0000
  C   C192      1.0  0.45546664296120837  0.5832800846959607  0.4991225363499655  1.0000
  H   H125      1.0  0.41518467059523634  0.5199277096451217  0.5246422030182378  1.0000
  H   H126      1.0  0.43861563804558434  0.5395358672086253  0.5806142227914856  1.0000
  H   H127      1.0  0.4840096715216668  0.6150585452053461  0.5320823102765682  1.0000
  H   H128      1.0  0.4601592084306436  0.5955901681430705  0.4764196150628716  1.0000
  C   C193      1.0  0.33755408484277966  0.4722796367367418  0.3055260942940967  1.0000
  C   C194      1.0  0.3232759237037673  0.46490865521703184  0.2739516721708349  1.0000
  C   C195      1.0  0.3361555759088744  0.4671171890662533  0.2423460653580688  1.0000
  C   C196      1.0  0.36341662544583575  0.47658202933402366  0.2422200027254834  1.0000
  C   C197      1.0  0.37775028273289013  0.484593298406872  0.27369606295006565  1.0000
  C   C198      1.0  0.36493866705643146  0.48269672242422873  0.30514457042532944  1.0000
  H   H129      1.0  0.3020881657819462  0.4569908213906883  0.2740144967248817  1.0000
  H   H130      1.0  0.324890883102047  0.46078452497496464  0.21829194742981262  1.0000
  H   H131      1.0  0.3988761430007729  0.4921283011376392  0.2737732453213423  1.0000
  H   H132      1.0  0.3762349846877602  0.48909133865155474  0.3291402037255632  1.0000
  C   C199      1.0  0.052754643622404146  0.3970580249411899  0.5902488854955572  1.0000
  C   C200      1.0  0.04873287784020444  0.41117199833559376  0.5640710378537976  1.0000
  C   C201      1.0  0.022773743583571537  0.403906083791645  0.553320439874144  1.0000
  C   C202      1.0  0.0005199035222041015  0.3830777514058329  0.5693458421198948  1.0000
  C   C203      1.0  0.004542615564426367  0.36960225690716386  0.5964200017294266  1.0000
  C   C204      1.0  0.030507970404326252  0.37629369995801454  0.6063849282898207  1.0000
  H   H133      1.0  0.06559295124563369  0.42699254682790444  0.5511416723046426  1.0000
  H   H134      1.0  0.01990393922070277  0.4142846027851301  0.5321467191536768  1.0000
  H   H135      1.0  0.9876670054422397  0.35336132486243055  0.6087634241875249  1.0000
  H   H136      1.0  0.03336591774827377  0.3651149193436644  0.6264660742247518  1.0000
  C   C205      1.0  0.17516580559283634  0.48349502476015116  0.7357754959611723  1.0000
  C   C206      1.0  0.18877272956329352  0.49679071830343224  0.7663040321848139  1.0000
  C   C207      1.0  0.17551777753599274  0.49125695004543674  0.7981699196742704  1.0000
  C   C208      1.0  0.1487350836943705  0.4718008488366135  0.7998141806552216  1.0000
  C   C209      1.0  0.13503503540734346  0.45898800575993265  0.7691321178549948  1.0000
  C   C210      1.0  0.14811343810532118  0.4649623614453279  0.7371657422170389  1.0000
  H   H137      1.0  0.20965695039408386  0.5114116007561355  0.7652679681488516  1.0000
  H   H138      1.0  0.18607580705464602  0.5018170710962269  0.8214492783978633  1.0000
  H   H139      1.0  0.11428497138352171  0.4439402164553366  0.7701904640238113  1.0000
  H   H140      1.0  0.137451738388286  0.4545648763178839  0.7138178272445747  1.0000
  C   C211      1.0  0.23161759211200475  0.4712691227249286  0.5228975782022576  1.0000
  C   C212      1.0  0.24444525864955166  0.4731116379573928  0.49143830551236944  1.0000
  C   C213      1.0  0.26606945584553243  0.46881680503686496  0.49006176265723184  1.0000
  C   C214      1.0  0.2750312116823351  0.462382452415699  0.5201832539965103  1.0000
  C   C215      1.0  0.26222226038929647  0.46056070974322216  0.5516682105961721  1.0000
  C   C216      1.0  0.24070830724376296  0.46503679814505167  0.5530907069641271  1.0000
  H   H141      1.0  0.23762661715247937  0.4779155763376545  0.46788559336232255  1.0000
  H   H142      1.0  0.27567976820564244  0.4703269875502448  0.4656297656694767  1.0000
  H   H143      1.0  0.2690297317016361  0.4556863478492669  0.5751639173777979  1.0000
  H   H144      1.0  0.23117429583678473  0.4636294088108234  0.577535314094213  1.0000
  C   C217      1.0  0.04580785836715919  0.645935070932918  0.09039280157097526  1.0000
  C   C218      1.0  0.04166241203047313  0.6233290722675017  0.07258089601169417  1.0000
  C   C219      1.0  0.01576673734122358  0.6035916368145344  0.06268223584947126  1.0000
  C   C220      1.0  0.9937134206857032  0.6058379844230742  0.07138478167305504  1.0000
  C   C221      1.0  0.9978574489638719  0.6282587561694675  0.0896896856575587  1.0000
  C   C222      1.0  0.023745697849439362  0.648209280467121  0.09895085260709717  1.0000
  H   H145      1.0  0.05847996674956702  0.621432132638158  0.065572637884048  1.0000
  H   H146      1.0  0.012862855504442328  0.5865943359718899  0.04795124747917204  1.0000
  H   H147      1.0  0.9812328733816361  0.6306070583394883  0.0960202409410485  1.0000
  H   H148      1.0  0.026808076847061976  0.6657310723681795  0.11247811746513288  1.0000
  C   C223      1.0  0.14626786597193195  0.5870264916657226  0.04822008135839288  1.0000
  C   C224      1.0  0.14992803504077015  0.5652293972905541  0.04983661161790742  1.0000
  C   C225      1.0  0.15873588016793427  0.5574834539897998  0.020775014717887563  1.0000
  C   C226      1.0  0.1641515505157671  0.5716688862852808  0.9899498018504187  1.0000
  C   C227      1.0  0.1606386346193315  0.5935810636682574  0.9883495411523143  1.0000
  C   C228      1.0  0.15154327545473523  0.6011639715173129  0.017361473688977294  1.0000
  H   H149      1.0  0.146003918587515  0.554331494036881  0.07376977009573449  1.0000
  H   H150      1.0  0.16158812370509867  0.5407095682469962  0.02236309257672353  1.0000
  H   H151      1.0  0.16457440628502476  0.6044668428322979  0.9644188242094124  1.0000
  H   H152      1.0  0.148329462154597  0.6177275815809453  0.015791113578807858  1.0000
  C   C229      1.0  0.3943500097316108  0.985193180907539  0.9323657810942921  1.0000
  C   C230      1.0  0.38737068398260316  0.9877206677198369  0.9661532513313855  1.0000
  C   C231      1.0  0.3997072670733355  0.012684901437815138  0.982635951069386  1.0000
  C   C232      1.0  0.41951229443189086  0.03515936202838731  0.9658256178720791  1.0000
  C   C233      1.0  0.42733056641004136  0.032347401579806374  0.9326957918426493  1.0000
  C   C234      1.0  0.4144850498047843  0.007573345366523432  0.9158393638209361  1.0000
  H   H153      1.0  0.37164939332038477  0.9706847002934376  0.9789809766438444  1.0000
  H   H154      1.0  0.39354295403505957  0.01466464412158556  0.008308231277163625  1.0000
  H   H155      1.0  0.4428859456136421  0.049353512501475606  0.9197676577134922  1.0000
  H   H156      1.0  0.4200413771440187  0.005740655867082056  0.889732757940637  1.0000
  C   C235      1.0  0.4733650568758566  0.8684979791377251  0.023440371821105706  1.0000
  C   C236      1.0  0.4533433429058789  0.8575853463962001  0.9978166488044271  1.0000
  C   C237      1.0  0.4346494424067417  0.8658209313402949  0.994829437703677  1.0000
  C   C238      1.0  0.43577188821277707  0.8848511783392399  0.01772978719176055  1.0000
  C   C239      1.0  0.4558147654730165  0.8957701760844421  0.043362175048184924  1.0000
  C   C240      1.0  0.4746933311793202  0.8877828686767905  0.04605533536119166  1.0000
  H   H157      1.0  0.45222417822075406  0.8426624210809199  0.9802134996973865  1.0000
  H   H158      1.0  0.41926850684966965  0.8573033368962644  0.9750217660185249  1.0000
  H   H159      1.0  0.456788470530249  0.9105255136574048  0.061144587042479236  1.0000
  H   H160      1.0  0.4902864138243291  0.8965802006858374  0.06551151475164751  1.0000
  C   C241      1.0  0.2613806249050925  0.8036725671842841  0.9991729780254937  1.0000
  C   C242      1.0  0.27207028042555964  0.7872123476363533  0.0029734781145200895  1.0000
  C   C243      1.0  0.25697059333973404  0.7620372877536042  0.01812221590867029  1.0000
  C   C244      1.0  0.23115025316475904  0.7530466074085553  0.03026346590429203  1.0000
  C   C245      1.0  0.22055867353108144  0.7696000358322242  0.026729449413036788  1.0000
  C   C246      1.0  0.23550662494841446  0.7946128837874326  0.011062707873737088  1.0000
  H   H161      1.0  0.29193605575294673  0.7938334998734679  0.9941700744863678  1.0000
  H   H162      1.0  0.26546600279572524  0.7495200843005421  0.02070844009578369  1.0000
  H   H163      1.0  0.20076211016384296  0.763059832212722  0.03578705981111874  1.0000
  H   H164      1.0  0.2269602669190245  0.8070966910901407  0.008323245166863114  1.0000
  C   C247      1.0  0.02712477566190619  0.6062212866073611  0.4818217202169643  1.0000
  C   C248      1.0  0.0038155432092175133  0.5828015743740205  0.49060761997422075  1.0000
  C   C249      1.0  0.9786745751500034  0.5791354067131408  0.482162092684701  1.0000
  C   C250      1.0  0.9765830446435931  0.5991817142822464  0.4656062647243735  1.0000
  C   C251      1.0  0.999891990010691  0.62255996158493  0.45670099814495196  1.0000
  C   C252      1.0  0.0250580348559673  0.6259523699027572  0.4643466206911449  1.0000
  H   H165      1.0  0.005153953254289035  0.5675069072369084  0.5043847060861639  1.0000
  H   H166      1.0  0.9609186824423626  0.5611283678554909  0.48938435058422686  1.0000
  H   H167      1.0  0.9984847719938575  0.6381953143187254  0.4439593793498115  1.0000
  H   H168      1.0  0.04280689717073952  0.6441202381869484  0.4575857912606048  1.0000
  C   C253      1.0  0.16031694020899423  0.5929354281101218  0.5015880345923649  1.0000
  C   C254      1.0  0.16817002200200373  0.5739698954131893  0.5016010568315192  1.0000
  C   C255      1.0  0.16136258594754616  0.5560413214267703  0.5291407217997268  1.0000
  C   C256      1.0  0.14694294513553272  0.5572436327562689  0.557077772219248  1.0000
  C   C257      1.0  0.13939023816514154  0.5764145076143847  0.5572641829933423  1.0000
  C   C258      1.0  0.14586963015877824  0.5940584787662059  0.5295505488136335  1.0000
  H   H169      1.0  0.1794289452077639  0.5730037610861688  0.48011642309328945  1.0000
  H   H170      1.0  0.16737006821876665  0.5413865989228608  0.5287853920749758  1.0000
  H   H171      1.0  0.12836391000316472  0.5775447510653285  0.5789024331359129  1.0000
  H   H172      1.0  0.13984775965000193  0.608621699541131  0.5300558827110037  1.0000
  C   C259      1.0  0.13562296272058896  0.6747536069716757  0.3134948128411766  1.0000
  C   C260      1.0  0.15951231882870606  0.6748179469321507  0.3121082558362682  1.0000
  C   C261      1.0  0.17152090531079991  0.6768035253559721  0.2798629032087856  1.0000
  C   C262      1.0  0.15956382052527918  0.6782428510654239  0.24872316063759498  1.0000
  C   C263      1.0  0.13547181357179225  0.677764928084426  0.2501317050815685  1.0000
  C   C264      1.0  0.12371757707175342  0.6762842923929175  0.282406195481258  1.0000
  H   H173      1.0  0.16889076748000467  0.6736291990369423  0.33579083572333546  1.0000
  H   H174      1.0  0.19016289223419253  0.6771623057096798  0.2789531615007597  1.0000
  H   H175      1.0  0.12616873453772576  0.6790230444600761  0.22638807401692845  1.0000
  H   H176      1.0  0.10529819563441876  0.6763674034015221  0.2832427693788529  1.0000
  C   C265      1.0  0.40097703036621907  0.9737962796296652  0.577661952857239  1.0000
  C   C266      1.0  0.3791662789610913  0.9759976560458345  0.5871764877696796  1.0000
  C   C267      1.0  0.38247087844883454  0.0009785759759943784  0.5950608230086383  1.0000
  C   C268      1.0  0.4075191532808246  0.024045591133864792  0.5931757890947066  1.0000
  C   C269      1.0  0.42927828797458134  0.021811690257610494  0.5835334389384562  1.0000
  C   C270      1.0  0.42597572015987034  0.9968550861899581  0.5756835513058057  1.0000
  H   H177      1.0  0.3596286360646475  0.958592347557769  0.5873834262835637  1.0000
  H   H178      1.0  0.365444391931259  0.0025433908226919497  0.6019488584132282  1.0000
  H   H179      1.0  0.4486184221791973  0.039369820362031654  0.5816984896742757  1.0000
  H   H180      1.0  0.4429318548992363  0.9954884233083651  0.5678652902547143  1.0000
  C   C271      1.0  0.43142319741149926  0.8493376311255889  0.5605506637688094  1.0000
  C   C272      1.0  0.45861477788053223  0.8585311350808172  0.5581281999390909  1.0000
  C   C273      1.0  0.46931915013325515  0.8556793221112162  0.5270732343343396  1.0000
  C   C274      1.0  0.45282280511597334  0.8428836292164651  0.4984118497722902  1.0000
  C   C275      1.0  0.42552032759729386  0.8332986594747855  0.5010077173493578  1.0000
  C   C276      1.0  0.41487048907131346  0.8367790873905214  0.53184348242901  1.0000
  H   H181      1.0  0.4715089090572713  0.8682074762278724  0.580285382800503  1.0000
  H   H182      1.0  0.49029098797067155  0.8632898222314276  0.5255092338982921  1.0000
  H   H183      1.0  0.4125717368235419  0.8233351797168491  0.47899349742960395  1.0000
  H   H184      1.0  0.39381759530780436  0.8294003772814379  0.5335619924629638  1.0000
  C   C277      1.0  0.34037998205548325  0.8632170308132551  0.7417596310105272  1.0000
  C   C278      1.0  0.35000558457397124  0.845887900624091  0.7456916676954604  1.0000
  C   C279      1.0  0.35506188324030963  0.8396287155058378  0.7791822271693049  1.0000
  C   C280      1.0  0.35115516408558073  0.8510688905428222  0.8089890969015459  1.0000
  C   C281      1.0  0.342208257923318  0.8689427136812572  0.804941927335309  1.0000
  C   C282      1.0  0.3365358920160727  0.8746879802653541  0.7715695319186213  1.0000
  H   H185      1.0  0.35296250619836556  0.8368234832025497  0.7230214750825571  1.0000
  H   H186      1.0  0.36197540907277115  0.8257807437273436  0.7819943213288952  1.0000
  H   H187      1.0  0.33924648899694226  0.8780428912207313  0.8275393432587534  1.0000
  H   H188      1.0  0.3289774695872003  0.8880073556189143  0.7688924127560242  1.0000
  C   C283      1.0  0.2653001148301198  0.7889229657426954  0.526789472500734  1.0000
  C   C284      1.0  0.25603590474009447  0.7726140631005308  0.49697468262287864  1.0000
  C   C285      1.0  0.228903841572801  0.7537649407227754  0.49229393482546535  1.0000
  C   C286      1.0  0.21061782602289852  0.7510760894271227  0.5173790897137053  1.0000
  C   C287      1.0  0.21984065174493214  0.76737558335634  0.5471443944251639  1.0000
  C   C288      1.0  0.24701785925257466  0.7860616330739237  0.551980448428274  1.0000
  H   H189      1.0  0.27000966333503024  0.7747689847319512  0.47725458120355885  1.0000
  H   H190      1.0  0.2221576603352978  0.7416287772469058  0.46909185282172  1.0000
  H   H191      1.0  0.20586882733623976  0.7655872420814344  0.5666518947912058  1.0000
  H   H192      1.0  0.2537701902496207  0.7985091885852194  0.5749486394082556  1.0000
  N   N1        1.0  0.19335582193974787  0.43897528760638543  0.8497766057229144  1.0000
  C   C289      1.0  0.17595643109737116  0.420049703159191  0.8761396283937525  1.0000
  C   C290      1.0  0.17961348199179306  0.4318778963104448  0.8156326153514641  1.0000
  C   C291      1.0  0.218192049146542  0.43829420038477745  0.847782706413626  1.0000
  C   C292      1.0  0.19965640475572233  0.46584102340168837  0.8597441181734248  1.0000
  H   H193      1.0  0.17157473832516212  0.3996595734418262  0.8703231679394484  1.0000
  H   H194      1.0  0.15661845379124723  0.4193961099007058  0.8772350082190755  1.0000
  H   H195      1.0  0.18517597782549705  0.4256553476686214  0.9025915744518933  1.0000
  H   H196      1.0  0.1917684704683826  0.44626204052358937  0.7952701836928643  1.0000
  H   H197      1.0  0.17494978619042204  0.4119014818506961  0.8068718697466197  1.0000
  H   H198      1.0  0.16052722434640096  0.43175837960164265  0.8166537956545167  1.0000
  H   H199      1.0  0.23178039867434821  0.45247870713321436  0.8282097842889552  1.0000
  H   H200      1.0  0.21426997550781185  0.41829019518086885  0.8403941504680115  1.0000
  H   H201      1.0  0.2289372806719045  0.44370135877818134  0.8732670387287546  1.0000
  H   H202      1.0  0.21238746871013545  0.48069340893244433  0.8402491326957506  1.0000
  H   H203      1.0  0.21031097306413196  0.4720532421593427  0.8851743510955992  1.0000
  H   H204      1.0  0.18130860308717592  0.4668554778498336  0.8622163896072529  1.0000
  N   N2        1.0  0.6037963681121697  0.7214727233984579  0.06971967913324373  1.0000
  C   C293      1.0  0.5754496152443606  0.7093777706655212  0.07833876392435934  1.0000
  C   C294      1.0  0.6086676974133314  0.7011777389612956  0.05461290795177476  1.0000
  C   C295      1.0  0.6200996574268927  0.7325922971263054  0.10155651808392108  1.0000
  C   C296      1.0  0.6109524297108241  0.7427775425839587  0.04431311915032454  1.0000
  H   H205      1.0  0.5707299422136384  0.7243663972922513  0.08816092549876609  1.0000
  H   H206      1.0  0.5694459057608559  0.6937683857659332  0.0982702496422625  1.0000
  H   H207      1.0  0.562555885575648  0.6999942407139479  0.05511156602571177  1.0000
  H   H208      1.0  0.5969706306435576  0.6927163327110906  0.030283537038151342  1.0000
  H   H209      1.0  0.6298619248477699  0.7094026578417298  0.047920230868808034  1.0000
  H   H210      1.0  0.6030205317012012  0.6844125317815747  0.07261459769252454  1.0000
  H   H211      1.0  0.6416144048724435  0.7420434809914295  0.09589637838681275  1.0000
  H   H212      1.0  0.6153279077511449  0.7169923659098327  0.121198765581076  1.0000
  H   H213      1.0  0.616727165068589  0.7478725003562102  0.11366455313536772  1.0000
  H   H214      1.0  0.6320734565995544  0.752110896428667  0.03666299666222339  1.0000
  H   H215      1.0  0.6076823118577017  0.7585446316807538  0.054912504033432175  1.0000
  H   H216      1.0  0.5986762182560671  0.7351220728207843  0.02020363512248413  1.0000
  N   N3        1.0  0.9889495306292857  0.5875116622644  0.18102773976177738  1.0000
  C   C297      1.0  0.9723305200634924  0.5962271312756988  0.1630371261831054  1.0000
  C   C298      1.0  0.9919055336172582  0.5954150934709322  0.2179949538492832  1.0000
  C   C299      1.0  0.015326120873393467  0.5999013337660186  0.1647957471081476  1.0000
  C   C300      1.0  0.9761086400768242  0.5584625673513917  0.1782283026858586  1.0000
  H   H217      1.0  0.9530954018841623  0.5889774758842456  0.17620225560278538  1.0000
  H   H218      1.0  0.9676314935579183  0.5885169179044147  0.13594884595029733  1.0000
  H   H219      1.0  0.9822797328598077  0.6181375594804059  0.16226844480597405  1.0000
  H   H220      1.0  0.004448205909147296  0.589302113309132  0.23244703282130694  1.0000
  H   H221      1.0  0.0012963057378867493  0.6172189181111664  0.22095704985133874  1.0000
  H   H222      1.0  0.9722671742452359  0.5862183231491396  0.23093275593947585  1.0000
  H   H223      1.0  0.02553712915489914  0.6218748185539533  0.16589795814302535  1.0000
  H   H224      1.0  0.013753266656000074  0.5941559241477843  0.13694781347230434  1.0000
  H   H225      1.0  0.028554474261627716  0.5940065531099016  0.17786908661525572  1.0000
  H   H226      1.0  0.9560334694631426  0.5485132811628799  0.18990490291233197  1.0000
  H   H227      1.0  0.9879745484307916  0.5511136121448936  0.19170781859638336  1.0000
  H   H228      1.0  0.9735650053099496  0.5518574084414851  0.15060499224389767  1.0000
  N   N4        1.0  0.6140050252040311  0.7282227202375279  0.516609738184199  1.0000
  C   C301      1.0  0.6093213068668883  0.7462815452994362  0.5381884821930268  1.0000
  C   C302      1.0  0.6195843603528417  0.7113390872286627  0.5393376332857376  1.0000
  C   C303      1.0  0.6368744065377904  0.7438499766386664  0.4939244726634326  1.0000
  C   C304      1.0  0.5902078863294903  0.7114041813498276  0.4950154980122772  1.0000
  H   H229      1.0  0.5923836380506741  0.735122985272601  0.555881087215124  1.0000
  H   H230      1.0  0.6043834672647304  0.7589236802196312  0.5219921635939324  1.0000
  H   H231      1.0  0.6268977178580178  0.759439586021324  0.5546608494730481  1.0000
  H   H232      1.0  0.6229502966913106  0.6971598878799974  0.5241897212086285  1.0000
  H   H233      1.0  0.6373254205228381  0.723168214636892  0.5562518643777095  1.0000
  H   H234      1.0  0.6027340927052923  0.6993975604751951  0.5568428595049725  1.0000
  H   H235      1.0  0.6331960003905751  0.7567475320298591  0.4764198779273363  1.0000
  H   H236      1.0  0.6410108247431886  0.7308198804618764  0.4773673443678727  1.0000
  H   H237      1.0  0.6551490528527585  0.7567847556413856  0.5094278951990275  1.0000
  H   H238      1.0  0.5932605117741423  0.698090936411849  0.4775540979470075  1.0000
  H   H239      1.0  0.5844951177995032  0.723443549882796  0.47879477505567725  1.0000
  H   H240      1.0  0.5728187211099517  0.6986210680721351  0.5113267421457472  1.0000
  N   N5        1.0  0.453190722875983  0.8455817853663289  0.14195316920681902  1.0000
  C   C305      1.0  0.4683578490389228  0.8371943314978543  0.12031367935153227  1.0000
  C   C306      1.0  0.43001514717582  0.8422980743758915  0.12192479970246034  1.0000
  C   C307      1.0  0.4702953190277026  0.8736301697516516  0.15207316720646108  1.0000
  C   C308      1.0  0.4442238695777748  0.8292249028960369  0.17350795922659695  1.0000
  H   H241      1.0  0.4856609370886727  0.8388983957191315  0.13488914371524097  1.0000
  H   H242      1.0  0.47605244278239184  0.8495263795858116  0.09672219985850823  1.0000
  H   H243      1.0  0.45601175852970993  0.8162988892355921  0.11154667729080008  1.0000
  H   H244      1.0  0.4182178478584069  0.8487110610768748  0.1372553997232794  1.0000
  H   H245      1.0  0.4362011302208827  0.8541846256391437  0.09773323797198942  1.0000
  H   H246      1.0  0.41661546143517236  0.8213406306714368  0.11399388639797527  1.0000
  H   H247      1.0  0.45957474745972604  0.8806137036671843  0.1686302976491882  1.0000
  H   H248      1.0  0.47750529616043275  0.8865869162465759  0.12893404948415843  1.0000
  H   H249      1.0  0.488069555046307  0.8767977170344101  0.16709308363692701  1.0000
  H   H250      1.0  0.4326868374709832  0.8349472872764016  0.19054006125259568  1.0000
  H   H251      1.0  0.4614063302535913  0.8314594069647985  0.18915315713594474  1.0000
  H   H252      1.0  0.4315305578643732  0.8078893621662742  0.16692068982256048  1.0000
  N   N6        1.0  0.15185726567248758  0.3961774641604037  0.5212337250613982  1.0000
  C   C309      1.0  0.17017965670260485  0.4028718557884368  0.5512156950317284  1.0000
  C   C310      1.0  0.1672236929156249  0.40424120891980564  0.4888219054763581  1.0000
  C   C311      1.0  0.13697699852641626  0.41021960966675514  0.5245728290947936  1.0000
  C   C312      1.0  0.13304272661789077  0.3674034070995676  0.5204037341230416  1.0000
  H   H253      1.0  0.1822806556288558  0.3932113256887484  0.549173878675066  1.0000
  H   H254      1.0  0.15927787299505117  0.3967449559127299  0.5761171221290098  1.0000
  H   H255      1.0  0.1842637833577447  0.42452157941303675  0.5530100950349374  1.0000
  H   H256      1.0  0.1541146275203564  0.3996756459999263  0.4656101522644097  1.0000
  H   H257      1.0  0.1816177669279503  0.4258925484911596  0.4887038245341384  1.0000
  H   H258      1.0  0.17889068518930568  0.39421224394802173  0.48552424332620553  1.0000
  H   H259      1.0  0.12556881140449574  0.40511684204005066  0.5491385184856296  1.0000
  H   H260      1.0  0.12262738096673502  0.4053681034500746  0.5027332368408575  1.0000
  H   H261      1.0  0.15057265367881845  0.43197745224555173  0.5245426387055295  1.0000
  H   H262      1.0  0.11902954927625048  0.36165330968632453  0.49794887997555903  1.0000
  H   H263      1.0  0.1209626210423089  0.3608513261830667  0.5443994361653496  1.0000
  H   H264      1.0  0.14359371826851858  0.3561537040196656  0.5182867274331997  1.0000
  N   N7        1.0  0.4385571956630519  0.2501832512129997  0.3615046657059734  1.0000
  C   C313      1.0  0.4661945508714827  0.27216635858393085  0.36514962966566633  1.0000
  C   C314      1.0  0.4289365693647828  0.23781310152193316  0.3956878354703892  1.0000
  C   C315      1.0  0.4374952172596307  0.23042213240749246  0.33672305886988146  1.0000
  C   C316      1.0  0.42168889325180753  0.2604479811511643  0.3484871269186806  1.0000
  H   H265      1.0  0.47422863930028575  0.28212394132813345  0.33992980519263305  1.0000
  H   H266      1.0  0.47949951682758984  0.2654039469485483  0.37574642339868247  1.0000
  H   H267      1.0  0.46750293838082535  0.2874738777229097  0.38328828388687564  1.0000
  H   H268      1.0  0.4080904057407361  0.22121401375356262  0.3941441593129869  1.0000
  H   H269      1.0  0.44133179926704275  0.2300169233720521  0.4064728413060385  1.0000
  H   H270      1.0  0.42980589910335937  0.2523647062310786  0.4150751630846825  1.0000
  H   H271      1.0  0.4169222683763174  0.2135027511222852  0.33333407768004153  1.0000
  H   H272      1.0  0.4501404194378209  0.22241361033716298  0.3457768856195792  1.0000
  H   H273      1.0  0.4446621995240394  0.23925674818264828  0.3107005679891564  1.0000
  H   H274      1.0  0.40068309823012227  0.24446303957751242  0.3452284680909407  1.0000
  H   H275      1.0  0.4286754057123103  0.27034731270517653  0.32297971414259247  1.0000
  H   H276      1.0  0.42212574833464855  0.2754831337213061  0.36663111597412457  1.0000
  N   N8        1.0  0.35772916095429347  0.41072946628952106  0.32438730724422393  1.0000
  C   C317      1.0  0.3570337893086781  0.385680413924433  0.3315131650736465  1.0000
  C   C318      1.0  0.3385472268952582  0.4127841484375895  0.3468677048121954  1.0000
  C   C319      1.0  0.35060444462020124  0.41132325236571365  0.2876171835334703  1.0000
  C   C320      1.0  0.3846880471107589  0.4331530222054039  0.33166046412146155  1.0000
  H   H277      1.0  0.37117110746684423  0.3833632446063487  0.31493264643804647  1.0000
  H   H278      1.0  0.3368851095860255  0.36835879965786605  0.32685283879623367  1.0000
  H   H279      1.0  0.3624932583515129  0.3848413338231787  0.3591013267684745  1.0000
  H   H280      1.0  0.3395981588222869  0.4320412073524257  0.34362839617352114  1.0000
  H   H281      1.0  0.3178111876319118  0.3970452867754135  0.3409968894018175  1.0000
  H   H282      1.0  0.34251819142343265  0.4112588109115851  0.3747429209643086  1.0000
  H   H283      1.0  0.34994588989916714  0.42953555905593943  0.281903353540162  1.0000
  H   H284      1.0  0.33068085491748933  0.3943129277382736  0.28093138732711986  1.0000
  H   H285      1.0  0.3652195771109951  0.4109760114748899  0.2697260729736835  1.0000
  H   H286      1.0  0.3997110545687715  0.43227069747477564  0.31522507577098324  1.0000
  H   H287      1.0  0.39061858158605345  0.43348565122649907  0.35926359165439575  1.0000
  H   H288      1.0  0.38594731067529753  0.4523750152133382  0.32673225505052367  1.0000
  N   N9        1.0  0.5312049818056387  0.569842004530696  0.9828878897447996  1.0000
  C   C321      1.0  0.5296351721095744  0.5907520724948563  0.0022241933154774074  1.0000
  C   C322      1.0  0.5148495084807708  0.5631420073230442  0.9508899176697625  1.0000
  C   C323      1.0  0.5212851929591716  0.5461592013551525  0.004805607688649571  1.0000
  C   C324      1.0  0.5590583686660925  0.5794142428718049  0.9736568167622717  1.0000
  H   H289      1.0  0.5423574109805727  0.5969506789605696  0.026040968666027727  1.0000
  H   H290      1.0  0.5089432251700042  0.584232587514771  0.009957693921702  1.0000
  H   H291      1.0  0.536480637308459  0.6086188564398145  0.9860902715735137  1.0000
  H   H292      1.0  0.5154771912414057  0.547397426665859  0.9355907828123468  1.0000
  H   H293      1.0  0.49375648802064454  0.5561959095070437  0.9569020740698945  1.0000
  H   H294      1.0  0.5217929597453174  0.5806791397207521  0.9338582747056714  1.0000
  H   H295      1.0  0.5222784134350397  0.5299819701688024  0.9910940391496403  1.0000
  H   H296      1.0  0.5002768308291635  0.5384675181922434  0.012170093673783576  1.0000
  H   H297      1.0  0.53317575639507  0.5506382436893723  0.029238312247727254  1.0000
  H   H298      1.0  0.561153155474051  0.5643373409914688  0.9587596987828296  1.0000
  H   H299      1.0  0.5719291834737286  0.5845946809595987  0.9972327863691025  1.0000
  H   H300      1.0  0.5672977889207726  0.5975639309957368  0.9575622879964382  1.0000
  N   N10       1.0  0.7107792611207654  0.5070872767688519  0.06603122225627168  1.0000
  C   C325      1.0  0.6899860562461793  0.4899563355290746  0.09070531777838739  1.0000
  C   C326      1.0  0.7130185047362263  0.5332962294052429  0.06536788240294518  1.0000
  C   C327      1.0  0.7035749465389465  0.49505675172934693  0.03096888673201661  1.0000
  C   C328      1.0  0.7364502049460875  0.5100646866692323  0.07697048612875917  1.0000
  H   H301      1.0  0.6703551346153115  0.4873192911176174  0.08297603174452371  1.0000
  H   H302      1.0  0.6946444085133398  0.4985332448279366  0.11739248623837324  1.0000
  H   H303      1.0  0.6876191682187865  0.46994957476421423  0.09184010407399239  1.0000
  H   H304      1.0  0.7276415849398236  0.5463654865464554  0.04586186036989546  1.0000
  H   H305      1.0  0.6936817453828895  0.5316016201284531  0.05850292156985191  1.0000
  H   H306      1.0  0.7193708616409269  0.5434550577350242  0.09103391214163933  1.0000
  H   H307      1.0  0.7186203701597005  0.5076769712940353  0.011545878108784637  1.0000
  H   H308      1.0  0.6841707430949937  0.49232711760388603  0.022110511094625536  1.0000
  H   H309      1.0  0.7018809231366776  0.4753334913180798  0.030343970784885682  1.0000
  H   H310      1.0  0.7524437722958139  0.5225888684441782  0.05857474264758396  1.0000
  H   H311      1.0  0.7354418451314507  0.49065010835510586  0.07810392203077976  1.0000
  H   H312      1.0  0.7428138245070869  0.5195487025341962  0.10306398618999776  1.0000
  N   N11       1.0  0.5441239993499587  0.19968941871290333  0.5019230352368433  1.0000
  C   C329      1.0  0.5410853612449604  0.21689041386036573  0.5272723288047142  1.0000
  C   C330      1.0  0.5180355019355151  0.1759037466540663  0.49498603309836825  1.0000
  C   C331      1.0  0.5625892077779572  0.19173535660612767  0.5161155096572537  1.0000
  C   C332      1.0  0.5547198506877252  0.21416573376022804  0.46922181966771787  1.0000
  H   H313      1.0  0.5604527987053579  0.23469243384300603  0.5339609258864126  1.0000
  H   H314      1.0  0.5322005080477399  0.2062629412791932  0.5518332955259655  1.0000
  H   H315      1.0  0.5278198048560125  0.22380538927263585  0.5169846608172971  1.0000
  H   H316      1.0  0.5195958717794916  0.16208687863919738  0.47660543677751827  1.0000
  H   H317      1.0  0.50939791097238  0.16469047255391303  0.519187879187867  1.0000
  H   H318      1.0  0.5036215580032757  0.18102568261652852  0.4838780601476834  1.0000
  H   H319      1.0  0.5549963090475022  0.1803283193112881  0.5404896143077456  1.0000
  H   H320      1.0  0.5824715241210446  0.2090929179471466  0.5219779778560552  1.0000
  H   H321      1.0  0.565301800174044  0.17871655782117907  0.4975858889674009  1.0000
  H   H322      1.0  0.5571218790189394  0.20163539742839295  0.44952969711735785  1.0000
  H   H323      1.0  0.5744375782020477  0.2322228918027954  0.4734713982789728  1.0000
  H   H324      1.0  0.5412401354642626  0.22045311086038646  0.45782604013966943  1.0000
  N   N12       1.0  0.647238544056898  0.5914347520772313  0.6993855106865574  1.0000
  C   C333      1.0  0.6663273861325912  0.5987500919317256  0.6708811050680887  1.0000
  C   C334      1.0  0.6318347511885426  0.562373093660265  0.7024643356236189  1.0000
  C   C335      1.0  0.6290374708719335  0.6013705060892538  0.6917721193001136  1.0000
  C   C336      1.0  0.6618142557267843  0.6031602271799766  0.7322624677597642  1.0000
  H   H325      1.0  0.656158480345066  0.5888665523772911  0.6461367899725231  1.0000
  H   H326      1.0  0.6812397702123832  0.5928267258453965  0.6765667552856551  1.0000
  H   H327      1.0  0.6773036335550295  0.6204152587666868  0.6663843850341694  1.0000
  H   H328      1.0  0.6203031108539706  0.55291697047364  0.6782081763270191  1.0000
  H   H329      1.0  0.6450567204661434  0.5541813329923518  0.7074354060072618  1.0000
  H   H330      1.0  0.6175797360146204  0.556086294688813  0.7241802149342622  1.0000
  H   H331      1.0  0.6144620683424364  0.5964466340444796  0.71285027103436  1.0000
  H   H332      1.0  0.617656810408711  0.5926238853599051  0.6671914680782939  1.0000
  H   H333      1.0  0.6399977962061676  0.6232080866511844  0.6885868027657144  1.0000
  H   H334      1.0  0.6480824670151134  0.5980568632633446  0.7544557752518053  1.0000
  H   H335      1.0  0.6738532882638436  0.6250714996191021  0.7307793730895407  1.0000
  H   H336      1.0  0.675616952599312  0.5958411326579928  0.7385774243123511  1.0000
  N   N13       1.0  0.30505141614061204  0.38217832169552624  0.03991595359003883  1.0000
  C   C337      1.0  0.2915703022579264  0.3600335605906489  0.014877282354372648  1.0000
  C   C338      1.0  0.3211451070316121  0.40701433196597  0.020850701384657656  1.0000
  C   C339      1.0  0.32248560624440675  0.37741941295849  0.06308975700089252  1.0000
  C   C340      1.0  0.2850517872667084  0.3842657737363033  0.0606729138361095  1.0000
  H   H337      1.0  0.27925653877259593  0.34094768574475176  0.0283839049963109  1.0000
  H   H338      1.0  0.30617709967505474  0.35800612795768155  0.9988218039576406  1.0000
  H   H339      1.0  0.27832412550436963  0.3630013902125782  0.9968858589768662  1.0000
  H   H340      1.0  0.33177425039159897  0.42400489566480837  0.03904522796735637  1.0000
  H   H341      1.0  0.33660220842721633  0.40629820940876754  0.005024779711845451  1.0000
  H   H342      1.0  0.308747049345862  0.41148368753506664  0.0033018348145177345  1.0000
  H   H343      1.0  0.33799616422962253  0.37604420111006603  0.04823160474474043  1.0000
  H   H344      1.0  0.3111386069161959  0.3588772043173639  0.07800980653620583  1.0000
  H   H345      1.0  0.3332677462151924  0.393835653015926  0.0821357723686497  1.0000
  H   H346      1.0  0.27162860599880323  0.387950739221853  0.04398785271676066  1.0000
  H   H347      1.0  0.2944862667551026  0.40097860904386134  0.07957557975738502  1.0000
  H   H348      1.0  0.2726224729721031  0.3659913730933909  0.07569481657633025  1.0000
  N   N14       1.0  0.4476294436744515  0.9233843660244166  0.5115032896582894  1.0000
  C   C341      1.0  0.4755271328710132  0.9426854496813302  0.5034695372982115  1.0000
  C   C342      1.0  0.4395483124878807  0.8982186531388733  0.493289734292742  1.0000
  C   C343      1.0  0.4304772325538003  0.933675421869089  0.49983120567095524  1.0000
  C   C344      1.0  0.4449761732012067  0.9189053573757473  0.5493707082797903  1.0000
  H   H349      1.0  0.4822408959916477  0.961930011563322  0.5168133567530784  1.0000
  H   H350      1.0  0.4782728144094842  0.9464407181252832  0.47509370705148407  1.0000
  H   H351      1.0  0.48896238996881203  0.9354145911645919  0.5118928619950911  1.0000
  H   H352      1.0  0.45256974763402147  0.8903359857443311  0.5007760345137797  1.0000
  H   H353      1.0  0.41882044610886454  0.8829109882486441  0.499589782103582  1.0000
  H   H354      1.0  0.44070221499115997  0.900600932832579  0.464622028453373  1.0000
  H   H355      1.0  0.43172271949618996  0.9370305036129634  0.4713602200073291  1.0000
  H   H356      1.0  0.4360304781416638  0.9527579167105185  0.5129172271359538  1.0000
  H   H357      1.0  0.40930279568623595  0.9196632335311153  0.505948957634181  1.0000
  H   H358      1.0  0.4242877800787179  0.9041901874136887  0.5563906959161232  1.0000
  H   H359      1.0  0.4503033987161096  0.9373601674023655  0.5639650162758627  1.0000
  H   H360      1.0  0.45765102619262804  0.9111317493546677  0.5591615865565523  1.0000
  N   N15       1.0  0.14624234101797234  0.5376743571352228  0.703077670230899  1.0000
  C   C345      1.0  0.14852339136907247  0.5632824392163229  0.6947655163415007  1.0000
  C   C346      1.0  0.15007713492139216  0.5360938548257335  0.7408022108939114  1.0000
  C   C347      1.0  0.16671048832919463  0.5352374686331799  0.6841222377311215  1.0000
  C   C348      1.0  0.11967862061497284  0.5159856859406025  0.6924381711843666  1.0000
  H   H361      1.0  0.13342017342647305  0.5659043243041245  0.708630531745703  1.0000
  H   H362      1.0  0.145583838710981  0.5647737128413512  0.666370384332778  1.0000
  H   H363      1.0  0.1684297527431448  0.5800822592972036  0.7021059563546019  1.0000
  H   H364      1.0  0.1485866896457811  0.5169557933286141  0.7476656346533674  1.0000
  H   H365      1.0  0.16996399981614752  0.5520690885866626  0.749782736232847  1.0000
  H   H366      1.0  0.1349047482221376  0.5376964893248816  0.7560513396032692  1.0000
  H   H367      1.0  0.16483586429150174  0.5157594498906046  0.6887313860717307  1.0000
  H   H368      1.0  0.18709061909334193  0.5505652141684084  0.69236034309636  1.0000
  H   H369      1.0  0.1649929723287292  0.5370393032352878  0.6556052447496393  1.0000
  H   H370      1.0  0.11709587920720674  0.49634892396552543  0.6989191928391946  1.0000
  H   H371      1.0  0.11639716245640601  0.5161414799706353  0.663895798163712  1.0000
  H   H372      1.0  0.10368898185950354  0.5175109067194925  0.7056244454446301  1.0000
  N   N16       1.0  0.7334333636295849  0.21928307327155153  0.3489507314090446  1.0000
  C   C349      1.0  0.7392868501981462  0.19776048084694428  0.35316672590911574  1.0000
  C   C350      1.0  0.7502395330869452  0.23720226283480725  0.32138295614036116  1.0000
  C   C351      1.0  0.7390002048124762  0.23409927946221448  0.3820338345050793  1.0000
  C   C352      1.0  0.7052113197988392  0.20796067159935547  0.3392053059049437  1.0000
  H   H373      1.0  0.7263351237588662  0.1834770693227712  0.372985607907154  1.0000
  H   H374      1.0  0.7601078463355315  0.20537694621318728  0.3620129261651757  1.0000
  H   H375      1.0  0.7361201072925  0.18662003276134956  0.3285078037357025  1.0000
  H   H376      1.0  0.7464232788086763  0.25376016694831866  0.3175459865806368  1.0000
  H   H377      1.0  0.7716570354432266  0.245865089291328  0.32785024552223707  1.0000
  H   H378      1.0  0.7463596096986778  0.2265244135915189  0.29608632058234463  1.0000
  H   H379      1.0  0.7600466831579207  0.24256114359795772  0.3904761328606981  1.0000
  H   H380      1.0  0.7267326030239786  0.22102848213083248  0.4034070633927644  1.0000
  H   H381      1.0  0.7348254968241456  0.2505237383900293  0.3800119572914354  1.0000
  H   H382      1.0  0.6999860836859513  0.2235496122939149  0.3355626349956577  1.0000
  H   H383      1.0  0.6919475711337062  0.19433804265570745  0.3594875330862517  1.0000
  H   H384      1.0  0.7001905162828266  0.1962634449393686  0.3146322822632344  1.0000
  N   N17       1.0  0.8815769666026927  0.6059808896173592  0.5286486562529498  1.0000
  C   C353      1.0  0.8932410348485701  0.588804641680534  0.5293707385803863  1.0000
  C   C354      1.0  0.8640070523684251  0.6000162990732052  0.5587386743647366  1.0000
  C   C355      1.0  0.8659887363727571  0.601074519765013  0.49624480827006484  1.0000
  C   C356      1.0  0.9030588107078755  0.6339148733119445  0.5301095704779583  1.0000
  H   H385      1.0  0.905897186715705  0.5920579434847751  0.5063796324301292  1.0000
  H   H386      1.0  0.8775555943244145  0.5675989404395155  0.5293809230294998  1.0000
  H   H387      1.0  0.9058130661347233  0.5924388446222744  0.5529154043811337  1.0000
  H   H388      1.0  0.8547250057245747  0.6125132623517175  0.5590180256583595  1.0000
  H   H389      1.0  0.8475764912920706  0.5790156807977191  0.5581275587154348  1.0000
  H   H390      1.0  0.875002011222476  0.603235128702943  0.5836820676579132  1.0000
  H   H391      1.0  0.8787200841136239  0.6059131283437146  0.47297408785310086  1.0000
  H   H392      1.0  0.85619000667005  0.613080541338598  0.4952066582190199  1.0000
  H   H393      1.0  0.8501189221421109  0.5799614793731556  0.49388528219524763  1.0000
  H   H394      1.0  0.8950467632544412  0.6475076754284538  0.5290620914817973  1.0000
  H   H395      1.0  0.9168196953956294  0.6387229049086293  0.5079162258994663  1.0000
  H   H396      1.0  0.9151110147178899  0.6383601440122328  0.554371653962511  1.0000
  N   N18       1.0  0.17432128420807866  0.751416308933405  0.38380808302951774  1.0000
  C   C357      1.0  0.18753818227087396  0.7777358770136088  0.36756806674757664  1.0000
  C   C358      1.0  0.18240917999934222  0.7540152769867674  0.4207761012473878  1.0000
  C   C359      1.0  0.1820372311557607  0.7342024032747346  0.3655542335671155  1.0000
  C   C360      1.0  0.14527089100859783  0.7397036679369553  0.3812173038771666  1.0000
  H   H397      1.0  0.1817521906280912  0.7763678588810368  0.3396668581950356  1.0000
  H   H398      1.0  0.20949852285798587  0.787110439583808  0.3689425647919834  1.0000
  H   H399      1.0  0.18221406483211347  0.7912956988478422  0.38068043473443963  1.0000
  H   H400      1.0  0.17280912785495944  0.7344882090189453  0.4338080869898364  1.0000
  H   H401      1.0  0.20421925344898006  0.7628653131379755  0.4238579287871158  1.0000
  H   H402      1.0  0.17670353208154022  0.7666776746102135  0.4354929696834176  1.0000
  H   H403      1.0  0.1724805780662874  0.7141979888314263  0.37711180911997866  1.0000
  H   H404      1.0  0.2038291406125541  0.7424328331565241  0.36661018751780805  1.0000
  H   H405      1.0  0.17575433328653126  0.7313511302051007  0.33770722853485097  1.0000
  H   H406      1.0  0.13468369622354281  0.7202485855524291  0.3942977002255221  1.0000
  H   H407      1.0  0.13822107765403585  0.7361044578120651  0.35368244818842387  1.0000
  H   H408      1.0  0.13873130888477178  0.7525583414219236  0.3935399957473411  1.0000
  N   N19       1.0  0.5160990428318952  0.4393803769214976  0.5001519190732348  1.0000
  C   C361      1.0  0.5132168335515233  0.41493864292550214  0.5151310248622223  1.0000
  C   C362      1.0  0.5249079196911371  0.45986719355695693  0.5275936053306244  1.0000
  C   C363      1.0  0.49033224964403777  0.4338999931729658  0.4855769377721376  1.0000
  C   C364      1.0  0.5359355461389224  0.44874942721595823  0.47230581126002036  1.0000
  H   H409      1.0  0.5320936728484911  0.4184205674751749  0.5271554855895789  1.0000
  H   H410      1.0  0.507331182557071  0.39935184275776825  0.49491874850884077  1.0000
  H   H411      1.0  0.4976273976396215  0.4066538362034308  0.535304639185773  1.0000
  H   H412      1.0  0.5273218268856784  0.47862983225340333  0.5172399724416443  1.0000
  H   H413      1.0  0.5103585732124426  0.4533573742309391  0.5490241037210455  1.0000
  H   H414      1.0  0.5443311321028378  0.4644301789097077  0.5391375137620449  1.0000
  H   H415      1.0  0.483116725606466  0.418439534757437  0.46485080468234147  1.0000
  H   H416      1.0  0.49157348435346443  0.45184902570764374  0.47413469667712055  1.0000
  H   H417      1.0  0.4748060647629476  0.42648993672789737  0.5058282118011292  1.0000
  H   H418      1.0  0.5382454224802744  0.4668430367906387  0.4598515417518092  1.0000
  H   H419      1.0  0.5303197108335763  0.4334246329436692  0.4516631100747248  1.0000
  H   H420      1.0  0.5556977483951036  0.45350124265477  0.48254030333683645  1.0000
  N   N20       1.0  0.06972441602779952  0.5474792153985043  0.4861134964286961  1.0000
  C   C365      1.0  0.0943616814618896  0.5511809267432883  0.4705604186796018  1.0000
  C   C366      1.0  0.053109758876920224  0.5197833301691505  0.4972267735517993  1.0000
  C   C367      1.0  0.05495850062975753  0.5537641435300451  0.4602331496493341  1.0000
  C   C368      1.0  0.07646127682077244  0.5652124026937221  0.5165482184565637  1.0000
  H   H421      1.0  0.0901441497558802  0.5383919141721544  0.44723591438944327  1.0000
  H   H422      1.0  0.10588527455338569  0.5463907885748523  0.48932501634850545  1.0000
  H   H423      1.0  0.10756229944776102  0.5720063398960342  0.46233235750582036  1.0000
  H   H424      1.0  0.03442561827377901  0.5164161621508218  0.5092367665153334  1.0000
  H   H425      1.0  0.04756616308124589  0.5058151601719385  0.4749098791417022  1.0000
  H   H426      1.0  0.06369013920053385  0.5143729935709548  0.5167474947928858  1.0000
  H   H427      1.0  0.03650701961386135  0.5517276262927252  0.47131188049258804  1.0000
  H   H428      1.0  0.04934679914010111  0.5407199128193282  0.436937118696272  1.0000
  H   H429      1.0  0.06692425337973747  0.5745150563827361  0.4513055814283452  1.0000
  H   H430      1.0  0.08652583679318553  0.5602750047675744  0.5372813644579392  1.0000
  H   H431      1.0  0.0584569666445868  0.5640153299489458  0.5278923263529174  1.0000
  H   H432      1.0  0.089888363228666  0.5862135138194079  0.5093486774261995  1.0000
  N   N21       1.0  0.47325706042754245  0.3986495130256524  0.2115532287877782  1.0000
  C   C369      1.0  0.49959610246751596  0.40133623334529434  0.21650059975028402  1.0000
  C   C370      1.0  0.4733749733112844  0.41328133625781177  0.18032840782399795  1.0000
  C   C371      1.0  0.4669739345540708  0.4094821198811165  0.24227433385020886  1.0000
  C   C372      1.0  0.4530160496728167  0.3704305642798959  0.20720411771258807  1.0000
  H   H433      1.0  0.5002328506333381  0.3907108316025032  0.24004136517489194  1.0000
  H   H434      1.0  0.5155158232313939  0.4223587439842512  0.21932242896840048  1.0000
  H   H435      1.0  0.5047809167102184  0.392864679113995  0.19410535023773504  1.0000
  H   H436      1.0  0.48848221173954837  0.43463968143953974  0.1824664765892546  1.0000
  H   H437      1.0  0.4777395162256567  0.405418966063284  0.15661895662687858  1.0000
  H   H438      1.0  0.4537081778054136  0.41146945169284477  0.17563650109365528  1.0000
  H   H439      1.0  0.4471495454594351  0.4076082567519971  0.23939888050345015  1.0000
  H   H440      1.0  0.48184080526290696  0.4307792519590411  0.2462843441058857  1.0000
  H   H441      1.0  0.46679780515747676  0.3988871170226799  0.2663121723313567  1.0000
  H   H442      1.0  0.43310635948511533  0.3676665407248535  0.20130083283420316  1.0000
  H   H443      1.0  0.4513234022243672  0.35904638270360795  0.23096968154542805  1.0000
  H   H444      1.0  0.4579159653580397  0.36124978180315076  0.1853463084519512  1.0000
  N   N22       1.0  0.5435360552982806  0.8373646441483401  0.9680998152396197  1.0000
  C   C373      1.0  0.5375898094862117  0.8585861935120782  0.9612054276276099  1.0000
  C   C374      1.0  0.5725163320296557  0.8488945966446076  0.9715319930940519  1.0000
  C   C375      1.0  0.5332820541360122  0.8180253458897666  0.939140890049779  1.0000
  C   C376      1.0  0.5307392679446854  0.8238961778444106  0.0006275107930553414  1.0000
  H   H445      1.0  0.5470856787759166  0.8693837155518345  0.9370268273629375  1.0000
  H   H446      1.0  0.5447287033926765  0.8732697548126758  0.9828855262645608  1.0000
  H   H447      1.0  0.5158576319587346  0.8506012841310754  0.9585558384052111  1.0000
  H   H448      1.0  0.5776863740177451  0.8334383322042513  0.9769712750046076  1.0000
  H   H449      1.0  0.5829314316745586  0.8592739803807616  0.9475455177113884  1.0000
  H   H450      1.0  0.5808786238539314  0.8634258405972353  0.9933975344732066  1.0000
  H   H451      1.0  0.5375778604803275  0.8018040004759619  0.9435806175031926  1.0000
  H   H452      1.0  0.5424175829326093  0.8274861941950372  0.9141014387045784  1.0000
  H   H453      1.0  0.5114123272257546  0.8088012564539001  0.9361117585313888  1.0000
  H   H454      1.0  0.5336053912305315  0.8068796274968456  0.005670181109593164  1.0000
  H   H455      1.0  0.5090368304275541  0.8163329334971061  0.9999011787128875  1.0000
  H   H456      1.0  0.5391392249980187  0.8375436387925834  0.023305501269594294  1.0000
  N   N23       1.0  0.9105782907275456  0.27742324230994386  0.5134953522685956  1.0000
  C   C377      1.0  0.887343366315208  0.2560351853317478  0.4948640170880656  1.0000
  C   C378      1.0  0.935205363814953  0.28285441102281783  0.496113329748811  1.0000
  C   C379      1.0  0.9110144410238841  0.2693043388920832  0.5496583035359628  1.0000
  C   C380      1.0  0.908753438525947  0.30159949205002906  0.5134559134073223  1.0000
  H   H457      1.0  0.8685032913879697  0.2513658541735643  0.5077671729038201  1.0000
  H   H458      1.0  0.8880675705351212  0.237479868128687  0.49413995445815456  1.0000
  H   H459      1.0  0.8859964601850898  0.2616215975021447  0.46768570216705835  1.0000
  H   H460      1.0  0.9529832726941286  0.2992119972406781  0.5094807703453441  1.0000
  H   H461      1.0  0.9374749690936411  0.2651578950672593  0.49600193840159895  1.0000
  H   H462      1.0  0.9354598446034378  0.28889816229223986  0.46870734716931967  1.0000
  H   H463      1.0  0.9282669797637327  0.2849885715453464  0.5645528597482754  1.0000
  H   H464      1.0  0.9121637652532693  0.25099489430386596  0.5507388829652592  1.0000
  H   H465      1.0  0.8927597584592631  0.2652313115219749  0.5636349098941351  1.0000
  H   H466      1.0  0.908914134518382  0.30868829499202377  0.4866843031651211  1.0000
  H   H467      1.0  0.9255981650007982  0.3180486610014074  0.52807968221701  1.0000
  H   H468      1.0  0.8900846969448944  0.29797927859547885  0.5256221986010448  1.0000
  N   N24       1.0  0.688519347326287  0.47342429723765267  0.5084679328200085  1.0000
  C   C381      1.0  0.6671512089547125  0.44595976011521626  0.5014588078149119  1.0000
  C   C382      1.0  0.6842206923642141  0.4917339211397531  0.4868954141774748  1.0000
  C   C383      1.0  0.714411549638377  0.476222387029278  0.500103810372168  1.0000
  C   C384      1.0  0.6883133686089801  0.4798489753778317  0.5455082817050515  1.0000
  H   H469      1.0  0.6473885801162715  0.44308160972614463  0.5079807958369439  1.0000
  H   H470      1.0  0.6698626454773201  0.4316471565135385  0.5172422964748093  1.0000
  H   H471      1.0  0.6663931516272419  0.4404993812734536  0.4736238157265337  1.0000
  H   H472      1.0  0.7000156059190256  0.5126516936223927  0.4916453875633751  1.0000
  H   H473      1.0  0.6842115412878694  0.4875241945300572  0.45873894030097223  1.0000
  H   H474      1.0  0.664971373172414  0.4903231463661621  0.49273474085629654  1.0000
  H   H475      1.0  0.7309091201381144  0.49679528109228466  0.504764425007005  1.0000
  H   H476      1.0  0.7152580072205306  0.4713663434108169  0.4723933018120097  1.0000
  H   H477      1.0  0.7185980437144864  0.46310004243727576  0.5163740919247107  1.0000
  H   H478      1.0  0.6912549345415094  0.46637508365724  0.5627629868443836  1.0000
  H   H479      1.0  0.6691562476107744  0.4781766041331434  0.5526371499995721  1.0000
  H   H480      1.0  0.7042578837099589  0.5003916873209806  0.5517200387220152  1.0000
  N   N25       1.0  0.5710606655076292  0.20437795434444433  0.035701012043511754  1.0000
  C   C385      1.0  0.5473801165393454  0.1828308777583968  0.05245839162552593  1.0000
  C   C386      1.0  0.573432570430811  0.2299608290193637  0.04473234525055596  1.0000
  C   C387      1.0  0.5684108756508364  0.2005832583993108  0.9976381469992204  1.0000
  C   C388      1.0  0.5949492422672894  0.2041015439250971  0.04789496460982825  1.0000
  H   H481      1.0  0.5486338810812905  0.1850602354171671  0.08119405182566963  1.0000
  H   H482      1.0  0.5449530007926308  0.16321932300314584  0.04623927918229823  1.0000
  H   H483      1.0  0.5289631540578404  0.18236676147059525  0.04362320316084101  1.0000
  H   H484      1.0  0.5754935261141418  0.23350484420182277  0.0732703625735995  1.0000
  H   H485      1.0  0.5909189109114495  0.24666459536810456  0.03223933787146707  1.0000
  H   H486      1.0  0.5555529129058697  0.2305756367854819  0.03593319023560307  1.0000
  H   H487      1.0  0.5862387396859476  0.215919571004993  0.9840565195239462  1.0000
  H   H488      1.0  0.5509726401362716  0.20124657654225117  0.9872880007775644  1.0000
  H   H489      1.0  0.5656324931258724  0.18110783994028531  0.9900373351525961  1.0000
  H   H490      1.0  0.5940334237687728  0.1853290458228305  0.04053259063541977  1.0000
  H   H491      1.0  0.5972063013426934  0.20600755907549628  0.0766387790839607  1.0000
  H   H492      1.0  0.6132767334568509  0.22038980655874943  0.03632478457479159  1.0000
  N   N26       1.0  0.7297307361712976  0.14832591146285484  0.9694335107879578  1.0000
  C   C389      1.0  0.726358169373463  0.12584079390705483  0.9481204761413472  1.0000
  C   C390      1.0  0.7537760251062858  0.1728316711325491  0.9586816981874062  1.0000
  C   C391      1.0  0.7324142240829102  0.14322650792133138  0.006345322746888593  1.0000
  C   C392      1.0  0.7063268559239139  0.15137562874887078  0.9646953946043108  1.0000
  H   H493      1.0  0.7239553136946623  0.12881588653760112  0.9201080412900641  1.0000
  H   H494      1.0  0.7085037234059919  0.10704256911336733  0.9560553065122274  1.0000
  H   H495      1.0  0.7437466824847615  0.12308171182033989  0.9509150412195219  1.0000
  H   H496      1.0  0.7565427440845723  0.19017556848667128  0.9740333295995899  1.0000
  H   H497      1.0  0.7719527660306146  0.1715568805486445  0.9626044574782584  1.0000
  H   H498      1.0  0.7526279502642276  0.17721878796545465  0.930868446003877  1.0000
  H   H499      1.0  0.7353925258722108  0.15998371028589745  0.023097596870679693  1.0000
  H   H500      1.0  0.7496653754614949  0.1404976550251864  0.010889737631107677  1.0000
  H   H501      1.0  0.7144336601949662  0.1250986529276884  0.015582591474229135  1.0000
  H   H502      1.0  0.7081156778013145  0.16806809988004803  0.9806708591815696  1.0000
  H   H503      1.0  0.6877771751306666  0.13323590463908236  0.9724968136657438  1.0000
  H   H504      1.0  0.7037965006360701  0.15548608631542254  0.9372065780967705  1.0000
  N   N27       1.0  0.4877946165062389  0.7947540391870415  0.5453171096783948  1.0000
  C   C393      1.0  0.4602442184277163  0.7880507034721513  0.5518941074697983  1.0000
  C   C394      1.0  0.4937122462819621  0.8009599159324805  0.5082254773558428  1.0000
  C   C395      1.0  0.49100066942862386  0.7720851849331202  0.5544438434347633  1.0000
  C   C396      1.0  0.5062890320087012  0.8179997975012987  0.5665879098822338  1.0000
  H   H505      1.0  0.45509878553318306  0.7835100651105181  0.5797141539553812  1.0000
  H   H506      1.0  0.44580798942202354  0.770629139888589  0.5361612869908602  1.0000
  H   H507      1.0  0.45710534281691273  0.8046601365921477  0.5449740461977901  1.0000
  H   H508      1.0  0.4802114106492312  0.7840009487931571  0.49115239840531977  1.0000
  H   H509      1.0  0.4915556541492322  0.818007731101937  0.5005318933006517  1.0000
  H   H510      1.0  0.5143697409702824  0.8062410443248169  0.5023672999576905  1.0000
  H   H511      1.0  0.4778992980716916  0.7543782346929225  0.538224340247665  1.0000
  H   H512      1.0  0.4863387379793239  0.76658183265156  0.582152626437049  1.0000
  H   H513      1.0  0.511698816553345  0.7766950870176131  0.5503816369755095  1.0000
  H   H514      1.0  0.5045220305169109  0.8355158624547766  0.5601860960885239  1.0000
  H   H515      1.0  0.5272811577183719  0.8236131321827658  0.56208330687965  1.0000
  H   H516      1.0  0.5024849728313762  0.8141245712797671  0.594783026018059  1.0000
  N   N28       1.0  0.07725346092601487  0.5050852303400409  0.0032009376490476082  1.0000
  C   C397      1.0  0.0622183924520695  0.48276734670982574  0.97880061627277  1.0000
  C   C398      1.0  0.09430703950273163  0.5293378595633953  0.9834720019523803  1.0000
  C   C399      1.0  0.09389492060981296  0.49918295536269536  0.026252342436979582  1.0000
  C   C400      1.0  0.05859432514675719  0.5090375569740717  0.024359017021795434  1.0000
  H   H517      1.0  0.07569466567676306  0.4786800637630471  0.9632455321155068  1.0000
  H   H518      1.0  0.0498290699293456  0.4866393886924876  0.9604392553826392  1.0000
  H   H519      1.0  0.04876638753300314  0.4642899325717148  0.99285718919026  1.0000
  H   H520      1.0  0.10523335995343676  0.546701639352627  0.0011041450215334425  1.0000
  H   H521      1.0  0.10933110571795039  0.5274404053330366  0.9681782355565026  1.0000
  H   H522      1.0  0.08252752877922333  0.533981244260885  0.9650418420276292  1.0000
  H   H523      1.0  0.10442008140146482  0.5148809188131199  0.04625937401721053  1.0000
  H   H524      1.0  0.10914756505690401  0.49741516934079477  0.011368231035346728  1.0000
  H   H525      1.0  0.08185049846700848  0.4801337117593208  0.039993583175420545  1.0000
  H   H526      1.0  0.06935805698365209  0.5258837419886243  0.04294375203084211  1.0000
  H   H527      1.0  0.0455717069727178  0.49114727106526324  0.03979796133986592  1.0000
  H   H528      1.0  0.04557334764831076  0.513355223612723  0.007813679736974777  1.0000
  N   N29       1.0  0.8359238389627895  0.36574250866813063  0.6920995859547968  1.0000
  C   C401      1.0  0.8247236338896794  0.37783253008443324  0.714871768192976  1.0000
  C   C402      1.0  0.8640826025355757  0.38516347911164384  0.6856137611717118  1.0000
  C   C403      1.0  0.8210864971793902  0.35784891278814607  0.6587566953889974  1.0000
  C   C404      1.0  0.8338024704298473  0.34223235576431077  0.7091777866018163  1.0000
  H   H529      1.0  0.803491115376479  0.3637269262512515  0.7203465004630957  1.0000
  H   H530      1.0  0.8260677635056237  0.3956484680296787  0.7027260946544219  1.0000
  H   H531      1.0  0.8355106922682792  0.38407012831620924  0.7402710295987566  1.0000
  H   H532      1.0  0.8757413888735913  0.3922992159525088  0.7102216220433131  1.0000
  H   H533      1.0  0.8733994201054873  0.37652670142340605  0.6691846033162452  1.0000
  H   H534      1.0  0.8663463638768463  0.40271402028522996  0.6715159852171624  1.0000
  H   H535      1.0  0.8290418783225048  0.34872532901272035  0.6408751018649952  1.0000
  H   H536      1.0  0.822651557599353  0.3752012697594379  0.64489282403669  1.0000
  H   H537      1.0  0.7997207207292141  0.3433111598217411  0.6624626012608942  1.0000
  H   H538      1.0  0.8435239452579646  0.347216286241589  0.7352650692586169  1.0000
  H   H539      1.0  0.8434702163429847  0.3334593311389738  0.6937270455263504  1.0000
  H   H540      1.0  0.812781242789214  0.32656405342276856  0.7127801242991936  1.0000
  N   N30       1.0  0.35493863458179264  0.540841340909993  0.531312495510371  1.0000
  C   C405      1.0  0.35831688326326916  0.5568494525532041  0.5626574351014731  1.0000
  C   C406      1.0  0.3740874836485268  0.5577302105716159  0.5048049915519847  1.0000
  C   C407      1.0  0.32762944235302055  0.5295541180211276  0.5174747273755624  1.0000
  C   C408      1.0  0.35976648413160445  0.5192069039214324  0.5404332081309018  1.0000
  H   H541      1.0  0.3443225810267579  0.5446179865740204  0.583292494951138  1.0000
  H   H542      1.0  0.3546634652431767  0.5732805993581073  0.5567596214709415  1.0000
  H   H543      1.0  0.3788134458280055  0.5657446939162583  0.5735576166191431  1.0000
  H   H544      1.0  0.3723129029289341  0.5462968821985332  0.48084007635122894  1.0000
  H   H545      1.0  0.3710650744180092  0.5742473950845802  0.4970877592005568  1.0000
  H   H546      1.0  0.39490991707861856  0.5664710214203251  0.5143454389575817  1.0000
  H   H547      1.0  0.3241894327502901  0.5167367160932236  0.49437699073860575  1.0000
  H   H548      1.0  0.3233356533706403  0.5452085330164967  0.5095439286206745  1.0000
  H   H549      1.0  0.31268456397971084  0.5169638585314613  0.5370122702797658  1.0000
  H   H550      1.0  0.3583178736897736  0.5073301797326951  0.5171399874038686  1.0000
  H   H551      1.0  0.34494703135110355  0.5053231504663823  0.5592065407908986  1.0000
  H   H552      1.0  0.379833770904151  0.5268823695497488  0.5520697003639942  1.0000
  N   N31       1.0  0.5031484030569893  0.31560034164786555  0.9709116825474053  1.0000
  C   C409      1.0  0.5153674207355771  0.3175732923862037  0.005327346784672393  1.0000
  C   C410      1.0  0.4822683422921144  0.3225535875065861  0.9740820981551436  1.0000
  C   C411      1.0  0.4912348934605412  0.2882322810090222  0.9575873239828866  1.0000
  C   C412      1.0  0.5236780849233215  0.3340680761934489  0.9469129297472128  1.0000
  H   H553      1.0  0.5001003313562082  0.3058009111971957  0.024788975448545747  1.0000
  H   H554      1.0  0.5262482861580285  0.3382663872784461  0.015142030987835398  1.0000
  H   H555      1.0  0.5296465716372094  0.3103791325539343  0.004726882439378466  1.0000
  H   H556      1.0  0.4726724735434374  0.32145384895371587  0.9486099263542049  1.0000
  H   H557      1.0  0.4664424340011033  0.3089482380944133  0.9920858815988739  1.0000
  H   H558      1.0  0.49051134626785364  0.3430040300536339  0.9844436601249034  1.0000
  H   H559      1.0  0.5061733244881729  0.2818870972595998  0.9558636430927453  1.0000
  H   H560      1.0  0.4821713769468864  0.28603270567593575  0.9313955932166843  1.0000
  H   H561      1.0  0.47531941251644666  0.27406672011947536  0.9750095880037618  1.0000
  H   H562      1.0  0.5152428376736945  0.33318038240549946  0.920619966435934  1.0000
  H   H563      1.0  0.5399000657948293  0.32957335462985454  0.944287028672244  1.0000
  H   H564      1.0  0.5328074832384261  0.3548813321923737  0.956496108894294  1.0000
  N   N32       1.0  0.2690114097768616  0.8004440028613086  0.8777272743105604  1.0000
  C   C413      1.0  0.28466971637482463  0.8153165000695598  0.8473770963442404  1.0000
  C   C414      1.0  0.2868411522584856  0.7994831633182624  0.9043123540325513  1.0000
  C   C415      1.0  0.24910789804481442  0.773267544667839  0.8668899408571799  1.0000
  C   C416      1.0  0.2554773779816345  0.8136856466986496  0.8924973032681996  1.0000
  H   H565      1.0  0.2719945271888679  0.8165338784688985  0.8266396658917278  1.0000
  H   H566      1.0  0.29552054980456255  0.8061334303866738  0.8358791568796258  1.0000
  H   H567      1.0  0.2999474089279433  0.8358647720923266  0.8547082334417332  1.0000
  H   H568      1.0  0.27568300431685816  0.7878609683215465  0.9272774164902837  1.0000
  H   H569      1.0  0.2984450435164311  0.7908029128537963  0.8938345717247946  1.0000
  H   H570      1.0  0.30127955030444153  0.8195918533530103  0.9139872410406452  1.0000
  H   H571      1.0  0.23693944084672494  0.7615968886774934  0.8892616245703153  1.0000
  H   H572      1.0  0.2587597008368075  0.7627256953986405  0.8559009680448961  1.0000
  H   H573      1.0  0.23536300245129432  0.7732515358198456  0.8467165751854793  1.0000
  H   H574      1.0  0.24404161194745178  0.8033375841033134  0.9160370320637704  1.0000
  H   H575      1.0  0.24159036469886422  0.8145884790760233  0.8734288994413215  1.0000
  H   H576      1.0  0.26995275543263203  0.8343098814611346  0.9008507408669147  1.0000
  N   N33       1.0  0.4542102666114415  0.9767022576621557  0.9940065257861219  1.0000
  C   C417      1.0  0.432522063628589  0.9570512950895143  0.9714947571678135  1.0000
  C   C418      1.0  0.47947944342411847  0.9882456236746021  0.9751400080939386  1.0000
  C   C419      1.0  0.4560849096744079  0.9636150960439568  0.025712243136671864  1.0000
  C   C420      1.0  0.44873292957423955  0.997827011343687  0.003605849533385719  1.0000
  H   H577      1.0  0.41306712298920056  0.9480093150567708  0.9847641849895018  1.0000
  H   H578      1.0  0.43588395698778004  0.9406221327353821  0.9642717277544365  1.0000
  H   H579      1.0  0.4305407480497659  0.9660191552675031  0.9470652060455375  1.0000
  H   H580      1.0  0.4963112009598208  0.003169108330694392  0.991377586473524  1.0000
  H   H581      1.0  0.484147989705274  0.9727714667100521  0.9674314461923154  1.0000
  H   H582      1.0  0.47867799461663396  0.998251062405915  0.9510314058335488  1.0000
  H   H583      1.0  0.47178916026455275  0.9778797693091242  0.04381376987318797  1.0000
  H   H584      1.0  0.46075977490196274  0.9479247855204336  0.019319811272186627  1.0000
  H   H585      1.0  0.4369746330508078  0.9538223076314047  0.03987134463356301  1.0000
  H   H586      1.0  0.4644459154198115  0.012855604977998166  0.021045866775275313  1.0000
  H   H587      1.0  0.4294745562250714  0.9897340292116108  0.017164225097261232  1.0000
  H   H588      1.0  0.44771019638915815  0.008364131062829001  0.9802517600160154  1.0000
  N   N34       1.0  0.6808399201447357  0.06782415084052082  0.18439539384855133  1.0000
  C   C421      1.0  0.6705298712246929  0.03928442005885764  0.17904970419724303  1.0000
  C   C422      1.0  0.6959949833472981  0.08243057592547907  0.15363853234214359  1.0000
  C   C423      1.0  0.6984014100496295  0.07727301875617949  0.215385600064578  1.0000
  C   C424      1.0  0.6584778090004223  0.07240345063968229  0.18945885320374165  1.0000
  H   H589      1.0  0.6584782610329986  0.027495714301016723  0.2013612605217009  1.0000
  H   H590      1.0  0.6868596590542124  0.03505327358866676  0.17546655556872104  1.0000
  H   H591      1.0  0.6576236688591244  0.031701573821964334  0.1554408215205848  1.0000
  H   H592      1.0  0.6832321833332138  0.07630975846226405  0.12994852159812792  1.0000
  H   H593      1.0  0.7044833362789421  0.10406989483524513  0.15695187876668903  1.0000
  H   H594      1.0  0.7126779385196055  0.07901516282779902  0.14845349010381587  1.0000
  H   H595      1.0  0.7155904606392203  0.0742841061426533  0.21245333066536348  1.0000
  H   H596      1.0  0.6876179148019823  0.06685438401233892  0.23918173688307579  1.0000
  H   H597      1.0  0.706489750690349  0.09878807293751031  0.21992808223952312  1.0000
  H   H598      1.0  0.665589774282995  0.09381567153068453  0.19318760344653751  1.0000
  H   H599      1.0  0.6467624204090117  0.06195569739852323  0.21267963217645924  1.0000
  H   H600      1.0  0.6446785699375183  0.06533073235145326  0.16667609129381997  1.0000
  N   N35       1.0  0.22354502950114666  0.6857674064064797  0.535700619724561  1.0000
  C   C425      1.0  0.2467463034944619  0.682197176214515  0.5339303698949102  1.0000
  C   C426      1.0  0.20107528999810673  0.6621665321027268  0.5512610386852913  1.0000
  C   C427      1.0  0.21601343165100914  0.6892938838015156  0.5003117397620969  1.0000
  C   C428      1.0  0.23022902319099578  0.7093475272287356  0.5570774878002455  1.0000
  H   H601      1.0  0.2640826917800554  0.6997636303802215  0.5224345431536866  1.0000
  H   H602      1.0  0.24232743554308855  0.6646930479682336  0.5176039042653086  1.0000
  H   H603      1.0  0.2528663713990199  0.6792146118130404  0.5601584386230773  1.0000
  H   H604      1.0  0.18314195530263808  0.6641189403579985  0.5525356556696348  1.0000
  H   H605      1.0  0.1955983310966011  0.6440674899827756  0.5356621392427148  1.0000
  H   H606      1.0  0.2058879874093139  0.6588286065974479  0.5780674876141817  1.0000
  H   H607      1.0  0.19912706698006205  0.6929279030610002  0.5009239065593316  1.0000
  H   H608      1.0  0.20989422003899466  0.6714744114558516  0.48374142998322206  1.0000
  H   H609      1.0  0.23273075052605022  0.7064087727062459  0.487246994063358  1.0000
  H   H610      1.0  0.21294939611393832  0.7123352218087246  0.559285489400631  1.0000
  H   H611      1.0  0.24669518808330904  0.7276686065630272  0.5456005975650511  1.0000
  H   H612      1.0  0.23646109140388863  0.7076622345157926  0.5838427146412475  1.0000
  N   N36       1.0  0.6148571119988224  0.06183676374985605  0.5336565500097077  1.0000
  C   C429      1.0  0.6053045703361891  0.033513201873269914  0.5390862175059609  1.0000
  C   C430      1.0  0.6104898885972606  0.07333515290529763  0.5653167525525754  1.0000
  C   C431      1.0  0.600232843630753  0.06481569386438965  0.504197726752891  1.0000
  C   C432      1.0  0.6434665613095899  0.07578028648029117  0.5260078946232374  1.0000
  H   H613      1.0  0.5836427261116791  0.02218816216858528  0.5440292373254576  1.0000
  H   H614      1.0  0.6155945823909177  0.03053626971223675  0.5615276403094462  1.0000
  H   H615      1.0  0.6089932999078321  0.0244556772009797  0.5159829647892527  1.0000
  H   H616      1.0  0.6174045882920527  0.09469467943101793  0.5618905159567152  1.0000
  H   H617      1.0  0.5891174581243735  0.06334839113580808  0.571928298381083  1.0000
  H   H618      1.0  0.621486931789549  0.07178116601957575  0.5880289081111898  1.0000
  H   H619      1.0  0.6075725647226187  0.08599659568852568  0.4987385424086257  1.0000
  H   H620      1.0  0.5786807258172004  0.05532209426026989  0.5094847931106636  1.0000
  H   H621      1.0  0.6025313219013654  0.05584906127444994  0.48003150727413174  1.0000
  H   H622      1.0  0.6514773531367708  0.09731752987149767  0.5229115932021838  1.0000
  H   H623      1.0  0.6475108935427593  0.06835147127478304  0.501599764673537  1.0000
  H   H624      1.0  0.6551239389773429  0.07337314147312032  0.547151299852384  1.0000
  N   N37       1.0  0.969056063009188  0.36902560929332207  0.8184535900560954  1.0000
  C   C433      1.0  0.9602808877474083  0.384963105295325  0.8377822209623705  1.0000
  C   C434      1.0  0.9975751135260873  0.37953708656552226  0.8252824363119882  1.0000
  C   C435      1.0  0.9645503378354591  0.37033359408335614  0.7808974930793341  1.0000
  C   C436      1.0  0.9538319681935964  0.341270677911892  0.8299021909147021  1.0000
  H   H625      1.0  0.964094708159141  0.38502459432813957  0.8661043181629351  1.0000
  H   H626      1.0  0.9386506874214877  0.37705793852922626  0.8343150895668487  1.0000
  H   H627      1.0  0.9707561599448336  0.40586270313114076  0.8292210742089128  1.0000
  H   H628      1.0  0.0015035161502729988  0.3785032417873456  0.8533788888693699  1.0000
  H   H629      1.0  0.004927756444494724  0.3680975250345385  0.810949049864335  1.0000
  H   H630      1.0  0.009680177726254957  0.40058659130032503  0.8175800834100128  1.0000
  H   H631      1.0  0.9700035182491693  0.3577744507819968  0.7654727097932102  1.0000
  H   H632      1.0  0.9762277771162501  0.39088175511206175  0.7711399800995657  1.0000
  H   H633      1.0  0.9433797737616816  0.36330998583748036  0.7751213620486292  1.0000
  H   H634      1.0  0.9598621255477692  0.32862444292365334  0.8158580627997417  1.0000
  H   H635      1.0  0.9322358922405337  0.3327343966792044  0.8253984121108737  1.0000
  H   H636      1.0  0.9567368882040433  0.3395586338161683  0.85815770655055  1.0000
  N   N38       1.0  0.4956330686832047  0.20506695713982903  0.6959640633830821  1.0000
  C   C437      1.0  0.47571142125109245  0.20604997599540598  0.6731314843404365  1.0000
  C   C438      1.0  0.4819943184261225  0.1850682454103323  0.7230790930894345  1.0000
  C   C439      1.0  0.5126706793580568  0.2311933685485035  0.7124144576096492  1.0000
  C   C440      1.0  0.5121550121592569  0.19786386296290215  0.6751938920233591  1.0000
  H   H637      1.0  0.4629331258531119  0.18674413429522588  0.6596754066738486  1.0000
  H   H638      1.0  0.4852692771264793  0.22110545145760332  0.6524695232428968  1.0000
  H   H639      1.0  0.4625118342581968  0.2109289042127628  0.6879176477342818  1.0000
  H   H640      1.0  0.4963969433659943  0.18323808318672372  0.7402667220528102  1.0000
  H   H641      1.0  0.4697011690751053  0.18999340623854094  0.73981171625458  1.0000
  H   H642      1.0  0.4686301761477967  0.16524335511663202  0.7113463757943775  1.0000
  H   H643      1.0  0.523397336782093  0.24667225233641624  0.6925865759182919  1.0000
  H   H644      1.0  0.527789928469029  0.23095421861017543  0.7299605065076182  1.0000
  H   H645      1.0  0.5008299675555522  0.23731715180521468  0.7281739461089402  1.0000
  H   H646      1.0  0.5000273027746518  0.17792809911841936  0.6633396188660816  1.0000
  H   H647      1.0  0.5276919966730301  0.19724139942412855  0.6914160990133776  1.0000
  H   H648      1.0  0.5220286334258529  0.2119193698589774  0.6535979199016188  1.0000
  N   N39       1.0  0.9222691977657844  0.6202404636440342  0.015467649170493784  1.0000
  C   C441      1.0  0.9258296238248591  0.6006019581788958  0.9958593217547517  1.0000
  C   C442      1.0  0.9276129545464964  0.6425146603874566  0.9926183461279706  1.0000
  C   C443      1.0  0.9408901643317976  0.630097935590146  0.045387403475400344  1.0000
  C   C444      1.0  0.8947784569464069  0.6077335747749671  0.02807801434721544  1.0000
  H   H649      1.0  0.9218320916054072  0.5834719965998105  0.012307381152368128  1.0000
  H   H650      1.0  0.9465335987058732  0.6091652862240651  0.9866277973303399  1.0000
  H   H651      1.0  0.9122114451590422  0.592728182857219  0.9729760075074233  1.0000
  H   H652      1.0  0.9482337699489297  0.6523988765788483  0.9827121196937303  1.0000
  H   H653      1.0  0.9138571587633411  0.6357328249615651  0.9697935023668209  1.0000
  H   H654      1.0  0.9250962504226681  0.6576816263650018  0.00666613239280589  1.0000
  H   H655      1.0  0.9371604384769195  0.613764519165073  0.06323857099761299  1.0000
  H   H656      1.0  0.9389775185402651  0.6451031827263191  0.060745816771574083  1.0000
  H   H657      1.0  0.9618481601555707  0.6391204700869062  0.03696743271066997  1.0000
  H   H658      1.0  0.8911993876614123  0.6218530051129759  0.04304126688723396  1.0000
  H   H659      1.0  0.8902271685006955  0.5910800419226536  0.04571972539386839  1.0000
  H   H660      1.0  0.8799744819827778  0.5996061009144645  0.0064325903652193706  1.0000
  N   N40       1.0  0.39236679154104886  0.0657897203794552  0.8740526033184781  1.0000
  C   C445      1.0  0.39565291628877636  0.09218043902525314  0.8685838884162794  1.0000
  C   C446      1.0  0.3698247352544798  0.04597687620351174  0.8527954682820291  1.0000
  C   C447      1.0  0.3872370446188282  0.058821829507843246  0.9111230413788374  1.0000
  C   C448      1.0  0.41680012042696585  0.06618728567248165  0.8636763183280358  1.0000
  H   H661      1.0  0.3775960669413358  0.09270347185370192  0.8758760547228416  1.0000
  H   H662      1.0  0.40012982033783534  0.09834958159759569  0.8410078537561183  1.0000
  H   H663      1.0  0.4124963018928536  0.10752174824288563  0.8843742538161515  1.0000
  H   H664      1.0  0.37314425076285507  0.05062664534090619  0.8246657333548704  1.0000
  H   H665      1.0  0.36685684110516814  0.02583379541127591  0.8564602560303234  1.0000
  H   H666      1.0  0.3510352962722751  0.04513400898768692  0.8599136227343416  1.0000
  H   H667      1.0  0.38388981888813384  0.038697899583854695  0.9160787319381198  1.0000
  H   H668      1.0  0.3694272196149031  0.05912386681353376  0.9202218754897304  1.0000
  H   H669      1.0  0.4042635031245595  0.07287701629281332  0.9278799911556829  1.0000
  H   H670      1.0  0.42192452319533236  0.07244069461238646  0.8362265180967755  1.0000
  H   H671      1.0  0.4148270507641092  0.046432074760297086  0.866379973712477  1.0000
  H   H672      1.0  0.43406766444956857  0.08040986506757558  0.879869850168571  1.0000
  N   N41       1.0  0.6134908763296643  0.9560406524696744  0.3557794780791236  1.0000
  C   C449      1.0  0.6285081125972429  0.9848342422068276  0.3624803160648029  1.0000
  C   C450      1.0  0.5936998541842727  0.942971876081504  0.38319615361694087  1.0000
  C   C451      1.0  0.6318420928319011  0.9456834465194849  0.35593820600222525  1.0000
  C   C452      1.0  0.5997567193911965  0.9504507922280606  0.3217153201205181  1.0000
  H   H673      1.0  0.6151564537446738  0.9931750513869293  0.36328480892613485  1.0000
  H   H674      1.0  0.6435256990242525  0.9954709554996225  0.3421648064204097  1.0000
  H   H675      1.0  0.639164235761168  0.9895649727648194  0.38795910448502713  1.0000
  H   H676      1.0  0.6033137503916699  0.9455231884632482  0.4090526623456984  1.0000
  H   H677      1.0  0.5800607504903069  0.9509192222940818  0.38509666374623064  1.0000
  H   H678      1.0  0.5813552863901613  0.9214300504283711  0.37811656397854965  1.0000
  H   H679      1.0  0.6210285775781287  0.92393776620904  0.35117364864046535  1.0000
  H   H680      1.0  0.6423158656023435  0.9492873970052275  0.38141624008245395  1.0000
  H   H681      1.0  0.6470424336594848  0.9549677108740511  0.3354739579248529  1.0000
  H   H682      1.0  0.6139953604836764  0.9598798622791627  0.30022215477940684  1.0000
  H   H683      1.0  0.5854616699302679  0.9576501809203468  0.3208562780259217  1.0000
  H   H684      1.0  0.5882666013182472  0.9287908108667304  0.31611262135909457  1.0000
  N   N42       1.0  0.8719707823650933  0.45640196833528407  0.3526237819973941  1.0000
  C   C453      1.0  0.8518304670215642  0.45563232208829735  0.37616149280833683  1.0000
  C   C454      1.0  0.8946660247700489  0.45914825392380004  0.373278826181473  1.0000
  C   C455      1.0  0.8811714767891238  0.4791704795189039  0.3291637339813294  1.0000
  C   C456      1.0  0.8601580288108324  0.43171971572605333  0.33195141294779357  1.0000
  H   H685      1.0  0.8345035421141114  0.45395327163404114  0.3615908714223276  1.0000
  H   H686      1.0  0.8601493107542327  0.4739973138270572  0.3919163832508508  1.0000
  H   H687      1.0  0.8446548450798947  0.43899871746591884  0.3947787240448127  1.0000
  H   H688      1.0  0.9103077768523475  0.45979571800377644  0.35649287247998507  1.0000
  H   H689      1.0  0.9039564561226244  0.47759700439776615  0.3892661074617816  1.0000
  H   H690      1.0  0.8883794788534786  0.44251880254079373  0.39175434787033053  1.0000
  H   H691      1.0  0.896494651214288  0.4806443731406337  0.311009786346124  1.0000
  H   H692      1.0  0.8899364645548832  0.498070830537675  0.3440824039137259  1.0000
  H   H693      1.0  0.8645110382320041  0.477826130312395  0.31330352354071095  1.0000
  H   H694      1.0  0.8429535727332783  0.4291585759498076  0.31616073811799733  1.0000
  H   H695      1.0  0.8529925633753356  0.41418916031623443  0.34900004379686  1.0000
  H   H696      1.0  0.8748007183746841  0.4316788781729625  0.3138002487748032  1.0000
  N   N43       1.0  0.38026387772237236  0.9511841289513998  0.6873594757083062  1.0000
  C   C457      1.0  0.36386989277017817  0.9487766125055199  0.7175863498198612  1.0000
  C   C458      1.0  0.3968661424796735  0.9395600485735875  0.6958526190587305  1.0000
  C   C459      1.0  0.39745716917350876  0.9793310674426815  0.6784455285493922  1.0000
  C   C460      1.0  0.3627695268345035  0.9369315057848684  0.6574405448166153  1.0000
  H   H697      1.0  0.3509174625366695  0.957148440562086  0.7120169543821384  1.0000
  H   H698      1.0  0.3763539351388513  0.959207835647566  0.7407735136660408  1.0000
  H   H699      1.0  0.35073613717405283  0.9276518811989642  0.7247199344917248  1.0000
  H   H700      1.0  0.4097304291513179  0.9412928593573493  0.6737408229821021  1.0000
  H   H701      1.0  0.40996492115560046  0.949480689420337  0.7187543723272565  1.0000
  H   H702      1.0  0.3844533198738783  0.9181631885298539  0.7020235926592823  1.0000
  H   H703      1.0  0.4098993716682609  0.981674574708513  0.6555066702404648  1.0000
  H   H704      1.0  0.41104854543543207  0.9908050727588825  0.7003116832571887  1.0000
  H   H705      1.0  0.38560434824909895  0.9887429987534403  0.6716723750926383  1.0000
  H   H706      1.0  0.3743756599440789  0.9371825817620827  0.6346633684153582  1.0000
  H   H707      1.0  0.3506247893566732  0.9457431571921769  0.649489132688911  1.0000
  H   H708      1.0  0.3488005277782204  0.9158988712468719  0.6634947298056917  1.0000
  N   N44       1.0  0.860936967014522  0.3445431805413955  0.06777655301401198  1.0000
  C   C461      1.0  0.8863983744587084  0.34499275102215493  0.06694009836248704  1.0000
  C   C462      1.0  0.8527085944445643  0.34628238253209076  0.03205129313408417  1.0000
  C   C463      1.0  0.8642485452287292  0.3673527717117688  0.08831757846859656  1.0000
  C   C464      1.0  0.8404805160411194  0.31959835649332324  0.0833942981466902  1.0000
  H   H709      1.0  0.8847258967469988  0.3283024372131425  0.051044007145129466  1.0000
  H   H710      1.0  0.8931937543791063  0.3434456806798783  0.09339673486163425  1.0000
  H   H711      1.0  0.9022985400137918  0.3636814673925829  0.05541759115822065  1.0000
  H   H712      1.0  0.8680783822978657  0.3645693618599158  0.019343467047038043  1.0000
  H   H713      1.0  0.8495744511592933  0.3291416468733437  0.015931460519250207  1.0000
  H   H714      1.0  0.8339073971212363  0.3466706765402793  0.031488407805101204  1.0000
  H   H715      1.0  0.8455733200161459  0.36799276332708575  0.08894601979003203  1.0000
  H   H716      1.0  0.8797150338732501  0.38638703911587946  0.07696750414402853  1.0000
  H   H717      1.0  0.8704027200310656  0.36676026523352845  0.1155251543590694  1.0000
  H   H718      1.0  0.820917253640621  0.3184506154768578  0.08396793823796411  1.0000
  H   H719      1.0  0.8459518235356461  0.31752061080418587  0.11042517300036692  1.0000
  H   H720      1.0  0.8377417215112737  0.3021498504065056  0.06821325434190317  1.0000
  N   N45       1.0  0.2282234806571308  0.6598567906489415  0.04204023925000224  1.0000
  C   C465      1.0  0.2092070666745585  0.6634711005751308  0.020678991353079837  1.0000
  C   C466      1.0  0.24711785522626775  0.6576878355236183  0.019089063940800226  1.0000
  C   C467      1.0  0.2137482940871515  0.635460481406016  0.06258072714477012  1.0000
  C   C468      1.0  0.24286352050401663  0.6828246978075018  0.0656339837767245  1.0000
  H   H721      1.0  0.19888262663279554  0.6473430850620713  0.001223536062364028  1.0000
  H   H722      1.0  0.21923233380383558  0.682459454156592  0.006365404519028894  1.0000
  H   H723      1.0  0.19380265683460685  0.663866608925854  0.03699731665529103  1.0000
  H   H724      1.0  0.26177927415300606  0.654953978928757  0.03433883050461409  1.0000
  H   H725      1.0  0.2366662882596403  0.6405075840098665  0.0009424145305474418  1.0000
  H   H726      1.0  0.25826053547757905  0.6757406975474306  0.0031224168434891286  1.0000
  H   H727      1.0  0.22724642768488185  0.6327525738719114  0.08035344900458002  1.0000
  H   H728      1.0  0.2035604705047008  0.6176443729442777  0.04553437990204434  1.0000
  H   H729      1.0  0.1982251909575075  0.6356906746157408  0.07882783559745392  1.0000
  H   H730      1.0  0.25744299413805166  0.680925391380894  0.08222033568144191  1.0000
  H   H731      1.0  0.22921835254172893  0.6851421093272042  0.0831940636184374  1.0000
  H   H732      1.0  0.25364269921947996  0.7016279368684586  0.05100176609201268  1.0000
  N   N46       1.0  0.3327907393920751  0.5467901827207443  0.0552382073804647  1.0000
  C   C469      1.0  0.33713160476811177  0.5258408943006837  0.041432565548814804  1.0000
  C   C470      1.0  0.350568024011001  0.5718496537249472  0.037498609883755085  1.0000
  C   C471      1.0  0.33873250183631376  0.5500950743883832  0.09290560947319104  1.0000
  C   C472      1.0  0.3048262705533984  0.5392301576801599  0.04913545172107536  1.0000
  H   H733      1.0  0.3319751546863484  0.5221253371580604  0.013334511411392747  1.0000
  H   H734      1.0  0.32495366528741654  0.5069577365337281  0.05534053496674085  1.0000
  H   H735      1.0  0.3581941470398395  0.5312624081684362  0.04438768765330514  1.0000
  H   H736      1.0  0.3479331041102562  0.5882107395924145  0.04722212512975421  1.0000
  H   H737      1.0  0.37180450525180897  0.5778715182485642  0.04183605205012575  1.0000
  H   H738      1.0  0.34685423391649384  0.5700115967633806  0.00896994129341011  1.0000
  H   H739      1.0  0.3595470872425908  0.5551786072967876  0.09844586269791922  1.0000
  H   H740      1.0  0.32543985002090126  0.5316391894838312  0.10719544228396782  1.0000
  H   H741      1.0  0.3362038071204747  0.5661228744070175  0.10416047226932101  1.0000
  H   H742      1.0  0.29954694314664615  0.5363180536178074  0.02097944736860935  1.0000
  H   H743      1.0  0.300685183546807  0.554509477329185  0.0592664367603053  1.0000
  H   H744      1.0  0.2910529634243242  0.5202623596495358  0.0621653148165886  1.0000
  N   N47       1.0  0.4900778259650659  0.6073628001856529  0.7292204530570702  1.0000
  C   C473      1.0  0.5190648978821186  0.6185727886470983  0.7315716590945548  1.0000
  C   C474      1.0  0.4765083055616864  0.5792059327566484  0.7388706020797658  1.0000
  C   C475      1.0  0.4825510209835881  0.6097953985485114  0.6932708384291997  1.0000
  C   C476      1.0  0.48221865203941744  0.621860289234943  0.7531169321352039  1.0000
  H   H745      1.0  0.5298885448890805  0.6394409728433534  0.7230041661595299  1.0000
  H   H746      1.0  0.5256115389622555  0.6076013582951308  0.7146905709484686  1.0000
  H   H747      1.0  0.5257720421022944  0.6183510280464712  0.7586401187475849  1.0000
  H   H748      1.0  0.4545903106612823  0.5700972241225356  0.7373988760357468  1.0000
  H   H749      1.0  0.4819305022852222  0.5677271005656674  0.7211307115564788  1.0000
  H   H750      1.0  0.48189171747841286  0.5767173569998745  0.7658165920452108  1.0000
  H   H751      1.0  0.4608140140659811  0.6013333315030189  0.6902234818289851  1.0000
  H   H752      1.0  0.4884808621878578  0.5993779668003012  0.67442630894434  1.0000
  H   H753      1.0  0.492288199298369  0.630856265463022  0.6852231050165026  1.0000
  H   H754      1.0  0.48874682643217554  0.6216380652153571  0.7802953749119385  1.0000
  H   H755      1.0  0.4603906716728774  0.6133883066491307  0.7529117564651187  1.0000
  H   H756      1.0  0.4912642951212261  0.6429226132116298  0.7455946260023344  1.0000
  N   N48       1.0  0.7341631404844934  0.5175605751774676  0.8560617111556538  1.0000
  C   C477      1.0  0.7612329350889779  0.5218162887455541  0.8591756853235467  1.0000
  C   C478      1.0  0.7229846343313083  0.5069287655612791  0.8211970736368034  1.0000
  C   C479      1.0  0.7351782726582595  0.5429565249383673  0.8613538225780684  1.0000
  C   C480      1.0  0.7171793883703728  0.49864875727708646  0.8827051109258857  1.0000
  H   H757      1.0  0.7745867830628294  0.5361135594295757  0.8395489811784256  1.0000
  H   H758      1.0  0.7612826559007051  0.5030513805201271  0.8554775589371552  1.0000
  H   H759      1.0  0.7700232870632748  0.5299059202821821  0.8853375313179529  1.0000
  H   H760      1.0  0.7222693817294275  0.4879510624218748  0.8159681721850911  1.0000
  H   H761      1.0  0.7023415443239429  0.503080305429208  0.8185430256370232  1.0000
  H   H762      1.0  0.7347601251377082  0.5210375778583868  0.8004129139193873  1.0000
  H   H763      1.0  0.7149938853807469  0.5402313691641882  0.8600136462649687  1.0000
  H   H764      1.0  0.7471930697193728  0.5576090069581978  0.8412440391714822  1.0000
  H   H765      1.0  0.7438515158983214  0.5517993756780621  0.887222934701081  1.0000
  H   H766      1.0  0.724860933858004  0.5062333173850623  0.909359581272309  1.0000
  H   H767      1.0  0.7159643838927702  0.4792394212499944  0.879668451256239  1.0000
  H   H768      1.0  0.6965743309972534  0.49501602093006697  0.8810474072778193  1.0000
