data_image0
_chemical_formula_structural       CFeS2FeS2FeSFeS3FeS2FeS2FeSFeS4H7NCH3CHC7H4C2HC3HSH2C6H4C2H2C2H4C6H4C6H5CNCH4CSHC5H3SHCH2CH4CNCSH4CHNHFeH3CH5FeHCH5NHCSH4NH4C2H2SCFeH4CH3C2H2FeHCNH2CHSH2C3H10FeH2NCH3CHC3H4CH2FeS2FeS2FeSFeS3FeS2FeS2FeSFeS4H3SH4NH2CH2C7H4C2HCSCH3C7H4C4HCH2CHC6H4C6H4FeCH2C2H5SH3CH7CHN3SC2H4SCHNC4H12SHCFeHCNC4H2SH8NC5H12FeHCH4C2H3CH4FeC2H2C2H3C2HNHCFeS2FeH3CHS4FeSHCFeS2FeSHFeSFeSHFeS2FeCHFeSHSHFeS2FeS2FeSFeS3FeS2FeS2FeSFeS3FeSHFeS2FeSFeS3FeS2FeSHFeSFeHS2NSHNHSNSHCH2CSC2H2CNCH5C3HC2HSH2CH3C2H5CH2C3FeCH3C6H4C6H4C6H2CHC6H4C2HNHCHSH2C6H4C6H4C6H3C6H3C5NH5C2H2C6H4S2HSCH2CFeH2CNH2CH3CHC2H2CH3CHSH2SNC4H12NHC2H5CHCH4CNC4H14C3NHFeH5CH2CNC4HC2FeH2CFeH2FeH2C2HFeCSHCH2SH2CHCHC2HCSCSHCH3CHNSCHCH2NH6CHFeH3CSNCH3SC3H5SH4FeSC2FeHCH3CH5CH2SH4FeSCHNH2CH5C2H2CHCSH4CHCH4NH2C2H2CHCH3FeHSCHC2HCH2C2HC5SH4C2H2NH2SH2CH3SHCSHCH3FeS2FeCSFeCFeS3HFeHC2FeS2FeS2FeSFeSHFeHSFeHCFeSHSHFeS2FeS2FeSFeS3FeS2FeS2FeSFeS3FeSCFeS2FeSFeS3FeS2FeSCFeSFeHS2CSH3S3CH8CNCHCH4NCSH2CSCH2CHCH2CH5CH2C2HCHCHFeC6H4C6H4C6H2CHC6H4C2HNSCH2CHC6H4C6H4C6H3C6H3C6H6CH2C6H5CHSH2CNC4H18CH3C2H3CHCHNCH2SCH2CH2NCHFeCHCSCH3SCFeHN2C4H8FeH7SCNH4SHSH3CH3CHSHCHNC4H12NC4H12NC5H2CHCH2CH3CSHSNHCH3C3H3CH2CH3CH3CHSC3FeH2C3SH3SH2CHNHC2HSCH2C2H6FeHSC3H3SHNH4CHCFeH5SH2CFeH2CHCSH2SHCSCH3FeC2H2CH4CH2SCH3S2FeH3FeS2FeS2FeSFeS3FeSH4FeSHS2HSNHS2H2SHNCHCHC9H4CH5C8H4C6H4C4H6C6H3CNCHCFeNC4H17FeH4CHCHFeH2CH3CH9CHSHC2H3CHCHSCHNH2NH2CH2SC2H2C2NHFeCHCH3CH2CH4CH2SHSHCHSCH4CHFeS2FeS2FeHFeS3FeSCHCHFeSHS2HSH2S2H5C2HFeHNC7H2CHCSHCHFeH2C6H4C6H7NH4C3SC6H4C3FeSH3NHC3HCH5CH3CHNH4CH2CHFeCH3C2H3CH2SHNCH2NHC2H3CH2CSH7SCH2CSH8CFeH2CH5CH2C3H2CHFeS2FeS2FeSFeS3FeS2FeS2FeSFeS3FeS2FeSCFeSHSFeSFeS2FeSFeS3CH3CSC2HCFeH3CSH2NCH5CHCNCHCH3C2HSH2C2H3CHC6H4C6H2C6H4C3H2SHSHC6H4C6H4C3H2CHNSHC6H4NC4H14CH7CFeHCH8NFeCHCH4CHC2H5CNCHC4SHCH3CH6CHCSH7CH3CSH2FeS2FeS2FeSFeS3FeS2FeS2FeSFeS3FeS2FeSHFeSCSFeSFeS2FeSFeS3CH4SHCNHSNHC2SCH3CHFeSH2CHC2H2CHSH2CHCH2NH3CHC6H4C6H2C6H4C2FeCH3CHC4HCH4C6H4C3H2CH4C6H4CHCSC3HCH2CHC2HCNC4H12NC4H12FeHFeNC2H5NH2C2HCHCH2NH3CH3SH3CH8CH2C2SH3C3H4C2SH3CNHCH3CH2CHNH10NH2FeSHSH2FeS2FeS2FeSFeS4FeS2FeS2FeSFeS3H4FeS2H2FeS2FeSHFeSFeS3C6H4C6H4SC2H4C7H4C6H4C6H4C6H4C6H4C4SCH4C6H9CH4C2HCH3CH5CH2NCHNH2CN2H9CHFeHCHSH4C2HC3H9CH3C2HSCH3NFeH2SCH6C3H2CHCH5NH2CH2SHNC4SH5CNCHNHNC3H6CSHSFeC2H7C2HCSCH2C2H2SHCH2CH4SH2C4HCHFeSHSH2FeS2FeS2FeSFeS4FeS2FeS2FeSFeS3H3CFeSH3FeS2FeSHFeSFeS3C6H4C6H4CNC2HCH2C6H4C6H2CHC6H4C6H4C6H4C6H2CHC6H12NH2FeH2CH6CHCHCHFeHC2H6NC4H14NH2NH2SC2NCSCSH3SH2S2HNH2CNHC2H6FeH5NC2HC2H5CSCH4CH4CH4SH3CH2FeSCH3C3HCH3NSH3CFeH2SNCH2CHSH2CH10CH2FeCH3CFeSHSHSCFeSFe2HS2CHCH6C2H2C2HCSCH2C2HCH4SHFeCSHSNCNHCHCFeNCSHCHFeH4CHCH3CH2SHCH3CSHCHCFeSCHFe2SFeC2SHFeSFe2HS3HCHCHCHCSH3SCHCH2C4SCHCH2CHSH4CHCFeSHCHSNHCH4NHNHCH5CHCH2CHFeS2FeS2FeSFeS3HC2H3FeSFeS3HSCFeSFeS2FeS2FeSFeCS2FeSFe2SCFeSFeS3FeHS2CH2SCHCH3NH4C6H4C6H4CHC4H4C6H5CHCFeCHCH3SH2C5H5C6H4C6H4C6H4C6H4CHNC5H11NC4H12SH3CHNC4H3SHSH4NC4H19SH2C2S2CHCH2CH2NHC2H2NCH4FeHCSH6C2SCFeNHCHCH7SHCHCFeCHCH3C2HCH3CH2NCNH2CH8CHCH2CHSHS2FeHCH5C2FeS2FeS2FeSFeS3H6FeSFeS3HSHFeSFeS2FeS2FeSFeHS2FeSHFeSFe2SFeS3FeS4HCSHC2NH3FeCH2C6H2CHC6H6C4NH3C6H6SCHCH4CHCSC6H4C6H4C6H4C6H5C5H4C3H6C2H2C2H2C2H5SCHCHCSNCH2CHNC3H7NCNCH2C4H2SC2H3CH5CHCHNH7CFeHCHC2HSNC4H13CH2C2SCHNH3NH14CH2CHFeSHCHNH9CH10CFeCH7CHCH3SCHCH3NCNHCH5FeS2HFeSFeCS2FeSHFeS2FeSFeS3H2FeS2FeSFeS3FeSNFeS2FeSFeS3C6H4C6H5C3H4SHC6H4C5H3C8H5CSH3C3H2FeCFeNC4H12NC4H14CH5SNHCSH3C2H2NH3CHS2CH14FeCHNH3CH4CH3CSC3SC4H3C2H6C2NC2SHC2HC2SH2C2SH5CH2CNH5FeHCH3SH3FeS2Fe2HFeCS2FeS2FeS2FeSFeS3CSFeS2FeSFeS3FeSHFeS2FeSFeS3C6H4C6H5C5SH3C6H4C6H2SC5SNSHCNH4CH3CHC2H4SH3CHCH2CFeCNH2NC4H12NC4H13CH3CH2CHCH2C3HNCHC2H2CH2C2H2CH2CH2CH2C2HCSH5CHSH3SH4CSH4C2H2SCHCH2CH3CH2CH2CH5CSH3CHC2H3CHNHSC
_chemical_formula_sum              "C1440 Fe288 S576 H2304 N144"
_cell_length_a       72.8188
_cell_length_b       77.5987
_cell_length_c       50.7732
_cell_angle_alpha    88.1181
_cell_angle_beta     87.988
_cell_angle_gamma    104.732

_space_group_name_H-M_alt    "P 1"
_space_group_IT_number       1

loop_
  _space_group_symop_operation_xyz
  'x, y, z'

loop_
  _atom_site_type_symbol
  _atom_site_label
  _atom_site_symmetry_multiplicity
  _atom_site_fract_x
  _atom_site_fract_y
  _atom_site_fract_z
  _atom_site_occupancy
  C   C1        1.0  0.44500  0.06731  0.99232  1.0000
  Fe  Fe1       1.0  0.36226  0.13008  0.31824  1.0000
  S   S1        1.0  0.39351  0.13210  0.31731  1.0000
  S   S2        1.0  0.35086  0.15496  0.32142  1.0000
  Fe  Fe2       1.0  0.35209  0.08856  0.31775  1.0000
  S   S3        1.0  0.38299  0.08868  0.31646  1.0000
  S   S4        1.0  0.33301  0.06057  0.31206  1.0000
  Fe  Fe3       1.0  0.38599  0.10911  0.34740  1.0000
  S   S5        1.0  0.40459  0.10796  0.38224  1.0000
  Fe  Fe4       1.0  0.38701  0.11139  0.28649  1.0000
  S   S6        1.0  0.40628  0.11341  0.24962  1.0000
  S   S7        1.0  0.35488  0.10801  0.35042  1.0000
  S   S8        1.0  0.35602  0.11043  0.28579  1.0000
  Fe  Fe5       1.0  0.39386  0.10029  0.03726  1.0000
  S   S9        1.0  0.42554  0.11094  0.03479  1.0000
  S   S10       1.0  0.37607  0.09642  0.00100  1.0000
  Fe  Fe6       1.0  0.39242  0.10026  0.09851  1.0000
  S   S11       1.0  0.42395  0.11063  0.09951  1.0000
  S   S12       1.0  0.37372  0.09623  0.13604  1.0000
  Fe  Fe7       1.0  0.42073  0.12925  0.06618  1.0000
  S   S13       1.0  0.43572  0.15864  0.06557  1.0000
  Fe  Fe8       1.0  0.42480  0.09098  0.06830  1.0000
  S   S14       1.0  0.44295  0.07146  0.07141  1.0000
  S   S15       1.0  0.38901  0.11981  0.06677  1.0000
  S   S16       1.0  0.39329  0.07928  0.06923  1.0000
  S   S17       1.0  0.38935  0.21211  0.02583  1.0000
  H   H1        1.0  0.04613  0.22430  0.37536  1.0000
  H   H2        1.0  0.43581  0.03450  0.40249  1.0000
  H   H3        1.0  0.41907  0.05727  0.11957  1.0000
  H   H4        1.0  0.02952  0.21839  0.40323  1.0000
  H   H5        1.0  0.43113  0.08538  0.14204  1.0000
  H   H6        1.0  0.38420  0.14543  0.44669  1.0000
  H   H7        1.0  0.46727  0.08025  0.40218  1.0000
  N   N1        1.0  0.40671  0.22155  0.35709  1.0000
  C   C2        1.0  0.39947  0.23717  0.35004  1.0000
  H   H8        1.0  0.43044  0.14745  0.98437  1.0000
  H   H9        1.0  0.47935  0.04632  0.00662  1.0000
  H   H10       1.0  0.38140  0.20303  0.34514  1.0000
  C   C3        1.0  0.39902  0.06262  0.16245  1.0000
  H   H11       1.0  0.38734  0.16112  0.18163  1.0000
  C   C4        1.0  0.40039  0.10184  0.46209  1.0000
  C   C5        1.0  0.40218  0.19842  0.04060  1.0000
  C   C6        1.0  0.42166  0.20440  0.04446  1.0000
  C   C7        1.0  0.43185  0.19220  0.05291  1.0000
  C   C8        1.0  0.42256  0.17410  0.05754  1.0000
  C   C9        1.0  0.40294  0.16848  0.05483  1.0000
  C   C10       1.0  0.39281  0.18055  0.04632  1.0000
  H   H12       1.0  0.42898  0.21822  0.03999  1.0000
  H   H13       1.0  0.44703  0.19671  0.05514  1.0000
  H   H14       1.0  0.39552  0.15480  0.05863  1.0000
  H   H15       1.0  0.37771  0.17592  0.04348  1.0000
  C   C11       1.0  0.44877  0.06575  0.03954  1.0000
  C   C12       1.0  0.43949  0.07059  0.01796  1.0000
  H   H16       1.0  0.41037  0.03659  0.18761  1.0000
  C   C13       1.0  0.45940  0.05859  0.98812  1.0000
  C   C14       1.0  0.46811  0.05292  0.00976  1.0000
  C   C15       1.0  0.46291  0.05666  0.03548  1.0000
  H   H17       1.0  0.42809  0.07698  0.02094  1.0000
  S   S18       1.0  0.48259  0.01853  0.15005  1.0000
  H   H18       1.0  0.39632  0.06977  0.18026  1.0000
  H   H19       1.0  0.41619  0.14843  0.01354  1.0000
  C   C16       1.0  0.39688  0.10870  0.21828  1.0000
  C   C17       1.0  0.37733  0.10283  0.21494  1.0000
  C   C18       1.0  0.37043  0.09912  0.18962  1.0000
  C   C19       1.0  0.38299  0.10122  0.16746  1.0000
  C   C20       1.0  0.40256  0.10707  0.17084  1.0000
  C   C21       1.0  0.40944  0.11082  0.19610  1.0000
  H   H20       1.0  0.36751  0.10107  0.23188  1.0000
  H   H21       1.0  0.35527  0.09455  0.18728  1.0000
  H   H22       1.0  0.41244  0.10864  0.15411  1.0000
  H   H23       1.0  0.42459  0.11539  0.19856  1.0000
  C   C22       1.0  0.39497  0.10368  0.41499  1.0000
  C   C23       1.0  0.40741  0.10484  0.43573  1.0000
  H   H24       1.0  0.01560  0.24357  0.39128  1.0000
  H   H25       1.0  0.42764  0.02942  0.07316  1.0000
  C   C24       1.0  0.36832  0.09602  0.44723  1.0000
  C   C25       1.0  0.37536  0.09912  0.42082  1.0000
  H   H26       1.0  0.42260  0.10830  0.43144  1.0000
  H   H27       1.0  0.43123  0.04435  0.37189  1.0000
  H   H28       1.0  0.44282  0.05288  0.44166  1.0000
  H   H29       1.0  0.36562  0.09802  0.40501  1.0000
  C   C26       1.0  0.32137  0.04407  0.33641  1.0000
  C   C27       1.0  0.32310  0.02650  0.33432  1.0000
  C   C28       1.0  0.31106  0.01223  0.34948  1.0000
  C   C29       1.0  0.29685  0.01533  0.36654  1.0000
  C   C30       1.0  0.29550  0.03294  0.36929  1.0000
  C   C31       1.0  0.30770  0.04724  0.35437  1.0000
  H   H30       1.0  0.33354  0.02386  0.32040  1.0000
  H   H31       1.0  0.39026  0.24024  0.36623  1.0000
  H   H32       1.0  0.28453  0.03551  0.38238  1.0000
  H   H33       1.0  0.30585  0.06059  0.35571  1.0000
  C   C32       1.0  0.36551  0.21498  0.29573  1.0000
  C   C33       1.0  0.34861  0.20630  0.30970  1.0000
  C   C34       1.0  0.34466  0.18809  0.31703  1.0000
  C   C35       1.0  0.35736  0.17791  0.31037  1.0000
  C   C36       1.0  0.37438  0.18641  0.29606  1.0000
  C   C37       1.0  0.37843  0.20494  0.28875  1.0000
  H   H34       1.0  0.33840  0.21373  0.31502  1.0000
  H   H35       1.0  0.33147  0.18178  0.32791  1.0000
  H   H36       1.0  0.38429  0.17872  0.29059  1.0000
  H   H37       1.0  0.39135  0.21133  0.27739  1.0000
  H   H38       1.0  0.42146  0.06028  0.43838  1.0000
  C   C38       1.0  0.45950  0.06711  0.39493  1.0000
  N   N2        1.0  0.31216  0.00466  0.45259  1.0000
  C   C39       1.0  0.38081  0.09764  0.46803  1.0000
  H   H39       1.0  0.43092  0.08542  0.17748  1.0000
  H   H40       1.0  0.43131  0.22984  0.33051  1.0000
  H   H41       1.0  0.42455  0.20638  0.33951  1.0000
  H   H42       1.0  0.41411  0.04129  0.39917  1.0000
  C   C40       1.0  0.43580  0.02270  0.08646  1.0000
  S   S19       1.0  0.36916  0.23827  0.28775  1.0000
  H   H43       1.0  0.40950  0.12987  0.99284  1.0000
  C   C41       1.0  0.42106  0.04996  0.13809  1.0000
  C   C42       1.0  0.39624  0.15407  0.17005  1.0000
  C   C43       1.0  0.39958  0.17545  0.13331  1.0000
  C   C44       1.0  0.42100  0.04977  0.18570  1.0000
  C   C45       1.0  0.41799  0.22516  0.38085  1.0000
  H   H44       1.0  0.41125  0.15935  0.17549  1.0000
  H   H45       1.0  0.38359  0.15235  0.00956  1.0000
  H   H46       1.0  0.36427  0.15488  0.14563  1.0000
  S   S20       1.0  0.45971  0.01825  0.44370  1.0000
  H   H47       1.0  0.37208  0.14966  0.11349  1.0000
  C   C46       1.0  0.37415  0.14837  0.13503  1.0000
  H   H48       1.0  0.35314  0.09272  0.45156  1.0000
  H   H49       1.0  0.47028  0.05305  0.05207  1.0000
  C   C47       1.0  0.43669  0.06303  0.43176  1.0000
  H   H50       1.0  0.33833  0.01974  0.43330  1.0000
  H   H51       1.0  0.39179  0.13977  0.17686  1.0000
  H   H52       1.0  0.36966  0.13385  0.14077  1.0000
  H   H53       1.0  0.41095  0.21551  0.31668  1.0000
  C   C48       1.0  0.36131  0.24704  0.15768  1.0000
  N   N3        1.0  0.43904  0.06286  0.40272  1.0000
  C   C49       1.0  0.04374  0.22694  0.39649  1.0000
  S   S21       1.0  0.45650  0.01042  0.36701  1.0000
  H   H54       1.0  0.34114  0.00557  0.46080  1.0000
  H   H55       1.0  0.41273  0.17768  0.99917  1.0000
  H   H56       1.0  0.05461  0.22250  0.40791  1.0000
  H   H57       1.0  0.40958  0.22868  0.39763  1.0000
  C   C50       1.0  0.30685  0.00462  0.24160  1.0000
  H   H58       1.0  0.41019  0.10287  0.47772  1.0000
  N   N4        1.0  0.29726  0.01227  0.26270  1.0000
  H   H59       1.0  0.03192  0.24871  0.36311  1.0000
  Fe  Fe9       1.0  0.47249  0.01167  0.40525  1.0000
  H   H60       1.0  0.36857  0.12854  0.46761  1.0000
  H   H61       1.0  0.32327  0.02997  0.27449  1.0000
  H   H62       1.0  0.37770  0.13439  0.98759  1.0000
  C   C51       1.0  0.27841  0.01347  0.25419  1.0000
  H   H63       1.0  0.43535  0.04713  0.18544  1.0000
  H   H64       1.0  0.41466  0.18172  0.13761  1.0000
  H   H65       1.0  0.42178  0.15240  0.13136  1.0000
  H   H66       1.0  0.41073  0.03662  0.13868  1.0000
  H   H67       1.0  0.39053  0.18285  0.14384  1.0000
  Fe  Fe10      1.0  0.48603  0.04051  0.44498  1.0000
  H   H68       1.0  0.31357  0.00703  0.99093  1.0000
  C   C52       1.0  0.41555  0.14454  0.99262  1.0000
  H   H69       1.0  0.26930  0.00009  0.24983  1.0000
  H   H70       1.0  0.39818  0.17754  0.11172  1.0000
  H   H71       1.0  0.44966  0.01837  0.31309  1.0000
  H   H72       1.0  0.27077  0.01913  0.26974  1.0000
  H   H73       1.0  0.27969  0.02217  0.23598  1.0000
  N   N5        1.0  0.39413  0.15627  0.14135  1.0000
  H   H74       1.0  0.40555  0.14882  0.10522  1.0000
  C   C53       1.0  0.40656  0.14712  0.12687  1.0000
  S   S22       1.0  0.42659  0.00854  0.16587  1.0000
  H   H75       1.0  0.38617  0.00303  0.16030  1.0000
  H   H76       1.0  0.44412  0.07621  0.43926  1.0000
  H   H77       1.0  0.41499  0.07363  0.39609  1.0000
  H   H78       1.0  0.41942  0.05712  0.20378  1.0000
  N   N6        1.0  0.41841  0.05995  0.16160  1.0000
  H   H79       1.0  0.05224  0.24487  0.44059  1.0000
  H   H80       1.0  0.40248  0.13257  0.13173  1.0000
  H   H81       1.0  0.43906  0.01485  0.03578  1.0000
  H   H82       1.0  0.43561  0.04783  0.13671  1.0000
  C   C54       1.0  0.41892  0.21816  0.33501  1.0000
  C   C55       1.0  0.30889  0.03029  0.26807  1.0000
  H   H83       1.0  0.43726  0.08999  0.39679  1.0000
  H   H84       1.0  0.39534  0.19351  0.36682  1.0000
  S   S23       1.0  0.47108  0.01756  0.21264  1.0000
  C   C56       1.0  0.39050  0.20576  0.36242  1.0000
  Fe  Fe11      1.0  0.47707  0.00215  0.46458  1.0000
  H   H85       1.0  0.43178  0.07661  0.36859  1.0000
  H   H86       1.0  0.46307  0.00600  0.09621  1.0000
  H   H87       1.0  0.30219  0.03642  0.28410  1.0000
  H   H88       1.0  0.39667  0.07058  0.14481  1.0000
  C   C57       1.0  0.43042  0.07632  0.39051  1.0000
  H   H89       1.0  0.46629  0.05696  0.40337  1.0000
  H   H90       1.0  0.38799  0.04970  0.16293  1.0000
  H   H91       1.0  0.42856  0.02089  0.10639  1.0000
  C   C58       1.0  0.38419  0.14901  0.98848  1.0000
  C   C59       1.0  0.04164  0.24899  0.42821  1.0000
  H   H92       1.0  0.43076  0.23652  0.37695  1.0000
  H   H93       1.0  0.35102  0.24619  0.14173  1.0000
  Fe  Fe12      1.0  0.39901  0.24184  0.02878  1.0000
  H   H94       1.0  0.45006  0.03210  0.08805  1.0000
  C   C60       1.0  0.43256  0.07743  0.16014  1.0000
  N   N7        1.0  0.04488  0.24601  0.39997  1.0000
  H   H95       1.0  0.46185  0.06749  0.37313  1.0000
  H   H96       1.0  0.02722  0.24135  0.43582  1.0000
  C   C61       1.0  0.42958  0.04498  0.39370  1.0000
  H   H97       1.0  0.36921  0.23670  0.15435  1.0000
  S   S24       1.0  0.48339  0.06793  0.45375  1.0000
  H   H98       1.0  0.38123  0.20770  0.37935  1.0000
  H   H99       1.0  0.46155  0.01713  0.05036  1.0000
  C   C62       1.0  0.30112  0.01683  0.44242  1.0000
  C   C63       1.0  0.45743  0.00820  0.31289  1.0000
  C   C64       1.0  0.44688  0.00835  0.04986  1.0000
  H   H100      1.0  0.47046  0.09602  0.47703  1.0000
  H   H101      1.0  0.35296  0.24347  0.17676  1.0000
  H   H102      1.0  0.39935  0.17509  0.46630  1.0000
  H   H103      1.0  0.36196  0.14865  0.45949  1.0000
  H   H104      1.0  0.44735  0.07585  0.15954  1.0000
  H   H105      1.0  0.42311  0.21341  0.38727  1.0000
  H   H106      1.0  0.30194  0.02831  0.45529  1.0000
  H   H107      1.0  0.31093  0.03952  0.25036  1.0000
  H   H108      1.0  0.39090  0.23489  0.33220  1.0000
  H   H109      1.0  0.30642  0.02233  0.42223  1.0000
  Fe  Fe13      1.0  0.45637  0.00672  0.17600  1.0000
  H   H110      1.0  0.43477  0.24155  0.15634  1.0000
  H   H111      1.0  0.28583  0.00979  0.44092  1.0000
  N   N8        1.0  0.43731  0.00543  0.07642  1.0000
  C   C65       1.0  0.33240  0.01441  0.45333  1.0000
  H   H112      1.0  0.30923  0.01318  0.22314  1.0000
  H   H113      1.0  0.33435  0.02594  0.46639  1.0000
  H   H114      1.0  0.45738  0.00646  0.27047  1.0000
  C   C66       1.0  0.37423  0.14320  0.46434  1.0000
  H   H115      1.0  0.49484  0.00714  0.03351  1.0000
  C   C67       1.0  0.29486  0.00071  0.28698  1.0000
  C   C68       1.0  0.46177  0.00141  0.28863  1.0000
  C   C69       1.0  0.46307  0.00197  0.33688  1.0000
  H   H116      1.0  0.28809  0.00633  0.30351  1.0000
  H   H117      1.0  0.32092  0.00307  0.24761  1.0000
  H   H118      1.0  0.41098  0.14784  0.47492  1.0000
  H   H119      1.0  0.41127  0.24928  0.34563  1.0000
  C   C70       1.0  0.41196  0.17343  0.97847  1.0000
  H   H120      1.0  0.41464  0.09985  0.97871  1.0000
  H   H121      1.0  0.41874  0.15178  0.94053  1.0000
  Fe  Fe14      1.0  0.36830  0.12623  0.81513  1.0000
  S   S25       1.0  0.39965  0.12901  0.81513  1.0000
  S   S26       1.0  0.35600  0.15053  0.80990  1.0000
  Fe  Fe15      1.0  0.35909  0.08462  0.81831  1.0000
  S   S27       1.0  0.39023  0.08560  0.81795  1.0000
  S   S28       1.0  0.34127  0.05603  0.81363  1.0000
  Fe  Fe16      1.0  0.39233  0.10710  0.84713  1.0000
  S   S29       1.0  0.41056  0.10674  0.88274  1.0000
  Fe  Fe17      1.0  0.39394  0.10712  0.78609  1.0000
  S   S30       1.0  0.41257  0.10950  0.74845  1.0000
  S   S31       1.0  0.36099  0.10538  0.84905  1.0000
  S   S32       1.0  0.36286  0.10519  0.78465  1.0000
  Fe  Fe18      1.0  0.39119  0.10181  0.53527  1.0000
  S   S33       1.0  0.42267  0.11162  0.52853  1.0000
  S   S34       1.0  0.37149  0.09560  0.50108  1.0000
  Fe  Fe19      1.0  0.39411  0.10379  0.59603  1.0000
  S   S35       1.0  0.42588  0.11360  0.59303  1.0000
  S   S36       1.0  0.37717  0.09824  0.63530  1.0000
  Fe  Fe20      1.0  0.42080  0.13124  0.55939  1.0000
  S   S37       1.0  0.43680  0.16005  0.55123  1.0000
  Fe  Fe21      1.0  0.42433  0.09294  0.56254  1.0000
  S   S38       1.0  0.44133  0.07230  0.56366  1.0000
  S   S39       1.0  0.38900  0.12270  0.56412  1.0000
  S   S40       1.0  0.39276  0.08187  0.56764  1.0000
  S   S41       1.0  0.38579  0.21465  0.54306  1.0000
  H   H122      1.0  0.44708  0.08405  0.61823  1.0000
  H   H123      1.0  0.37688  0.17643  0.48096  1.0000
  H   H124      1.0  0.44929  0.20035  0.61417  1.0000
  S   S42       1.0  0.47702  0.01599  0.71473  1.0000
  H   H125      1.0  0.44705  0.04822  0.64703  1.0000
  H   H126      1.0  0.36687  0.22116  0.83781  1.0000
  H   H127      1.0  0.46607  0.00230  0.77085  1.0000
  H   H128      1.0  0.30571  0.00725  0.72035  1.0000
  N   N9        1.0  0.44186  0.22501  0.60543  1.0000
  H   H129      1.0  0.39672  0.17735  0.50116  1.0000
  H   H130      1.0  0.46072  0.01362  0.81487  1.0000
  C   C71       1.0  0.43886  0.22800  0.63369  1.0000
  H   H131      1.0  0.41953  0.23702  0.84503  1.0000
  H   H132      1.0  0.44929  0.22352  0.64598  1.0000
  C   C72       1.0  0.37234  0.21821  0.85719  1.0000
  C   C73       1.0  0.40055  0.20007  0.54565  1.0000
  C   C74       1.0  0.41852  0.20389  0.53276  1.0000
  C   C75       1.0  0.42958  0.19148  0.53441  1.0000
  C   C76       1.0  0.42277  0.17535  0.54914  1.0000
  C   C77       1.0  0.40495  0.17172  0.56228  1.0000
  C   C78       1.0  0.39379  0.18395  0.56029  1.0000
  H   H133      1.0  0.42371  0.21622  0.52111  1.0000
  H   H134      1.0  0.44340  0.19434  0.52421  1.0000
  H   H135      1.0  0.39983  0.15959  0.57430  1.0000
  H   H136      1.0  0.37990  0.18097  0.57031  1.0000
  C   C79       1.0  0.45349  0.07122  0.53339  1.0000
  C   C80       1.0  0.45775  0.08574  0.51519  1.0000
  H   H137      1.0  0.42339  0.03707  0.63868  1.0000
  C   C81       1.0  0.40525  0.10008  0.96275  1.0000
  S   S43       1.0  0.47110  0.00580  0.86678  1.0000
  C   C82       1.0  0.45890  0.05565  0.52733  1.0000
  H   H138      1.0  0.45434  0.09801  0.52005  1.0000
  H   H139      1.0  0.31621  0.02941  0.78416  1.0000
  H   H140      1.0  0.37701  0.15222  0.52931  1.0000
  C   C83       1.0  0.46708  0.08466  0.49091  1.0000
  C   C84       1.0  0.40259  0.10608  0.71713  1.0000
  C   C85       1.0  0.38324  0.09817  0.71460  1.0000
  C   C86       1.0  0.37569  0.09589  0.68941  1.0000
  C   C87       1.0  0.38738  0.10145  0.66650  1.0000
  C   C88       1.0  0.40674  0.10936  0.66901  1.0000
  C   C89       1.0  0.41431  0.11158  0.69422  1.0000
  H   H141      1.0  0.37412  0.09359  0.73203  1.0000
  H   H142      1.0  0.36072  0.08967  0.68766  1.0000
  H   H143      1.0  0.41584  0.11393  0.65158  1.0000
  H   H144      1.0  0.42928  0.11777  0.69600  1.0000
  C   C90       1.0  0.40062  0.10295  0.91543  1.0000
  C   C91       1.0  0.38115  0.10048  0.92092  1.0000
  C   C92       1.0  0.37381  0.09806  0.94720  1.0000
  C   C93       1.0  0.28694  0.00033  0.78332  1.0000
  H   H145      1.0  0.43018  0.23006  0.56854  1.0000
  C   C94       1.0  0.41262  0.10266  0.93647  1.0000
  H   H146      1.0  0.37174  0.10060  0.90497  1.0000
  H   H147      1.0  0.42667  0.17763  0.96954  1.0000
  C   C95       1.0  0.43957  0.20577  0.60179  1.0000
  H   H148      1.0  0.42771  0.10456  0.93250  1.0000
  C   C96       1.0  0.32692  0.04019  0.83689  1.0000
  C   C97       1.0  0.32688  0.02213  0.83507  1.0000
  C   C98       1.0  0.32189  0.00598  0.92473  1.0000
  C   C99       1.0  0.29958  0.01302  0.86608  1.0000
  C   C100      1.0  0.29999  0.03111  0.86861  1.0000
  C   C101      1.0  0.31361  0.04465  0.85415  1.0000
  H   H149      1.0  0.33717  0.01856  0.82188  1.0000
  H   H150      1.0  0.37343  0.20415  0.85720  1.0000
  H   H151      1.0  0.28940  0.03468  0.88128  1.0000
  H   H152      1.0  0.31322  0.05845  0.85541  1.0000
  C   C102      1.0  0.37288  0.21107  0.78691  1.0000
  C   C103      1.0  0.35400  0.20122  0.79149  1.0000
  C   C104      1.0  0.34950  0.18299  0.79879  1.0000
  C   C105      1.0  0.36370  0.17391  0.80151  1.0000
  C   C106      1.0  0.38280  0.18356  0.79670  1.0000
  C   C107      1.0  0.38738  0.20212  0.78943  1.0000
  H   H153      1.0  0.34263  0.20781  0.78963  1.0000
  H   H154      1.0  0.33473  0.17582  0.80225  1.0000
  H   H155      1.0  0.39398  0.17678  0.79864  1.0000
  H   H156      1.0  0.40206  0.20944  0.78578  1.0000
  Fe  Fe22      1.0  0.45982  0.00654  0.67934  1.0000
  C   C108      1.0  0.47212  0.06900  0.48460  1.0000
  H   H157      1.0  0.31536  0.01689  0.91849  1.0000
  H   H158      1.0  0.45606  0.04453  0.54155  1.0000
  C   C109      1.0  0.38582  0.09804  0.96826  1.0000
  C   C110      1.0  0.31027  0.02611  0.76455  1.0000
  H   H159      1.0  0.44488  0.01854  0.58725  1.0000
  H   H160      1.0  0.36589  0.13158  0.51487  1.0000
  H   H161      1.0  0.42432  0.22075  0.64121  1.0000
  H   H162      1.0  0.40314  0.18106  0.96804  1.0000
  H   H163      1.0  0.43814  0.07166  0.97573  1.0000
  S   S44       1.0  0.37678  0.23446  0.77930  1.0000
  H   H164      1.0  0.38855  0.00251  0.67229  1.0000
  H   H165      1.0  0.31247  0.02354  0.96576  1.0000
  H   H166      1.0  0.33757  0.01157  0.92412  1.0000
  C   C111      1.0  0.42780  0.23134  0.59004  1.0000
  H   H167      1.0  0.29928  0.03363  0.76183  1.0000
  H   H168      1.0  0.42475  0.19787  0.60686  1.0000
  H   H169      1.0  0.42989  0.01780  0.54386  1.0000
  H   H170      1.0  0.39693  0.13006  0.49597  1.0000
  H   H171      1.0  0.35876  0.09643  0.95124  1.0000
  H   H172      1.0  0.42875  0.24566  0.59316  1.0000
  H   H173      1.0  0.35730  0.15102  0.50856  1.0000
  C   C112      1.0  0.40514  0.22853  0.84142  1.0000
  H   H174      1.0  0.41296  0.22366  0.59550  1.0000
  N   N10       1.0  0.39088  0.23077  0.86158  1.0000
  N   N11       1.0  0.30225  0.00669  0.76270  1.0000
  N   N12       1.0  0.38369  0.15130  0.48788  1.0000
  S   S45       1.0  0.48436  0.01948  0.65109  1.0000
  C   C113      1.0  0.40404  0.14882  0.94949  1.0000
  C   C114      1.0  0.40074  0.14473  0.49227  1.0000
  H   H175      1.0  0.36141  0.21907  0.87262  1.0000
  H   H176      1.0  0.44289  0.20319  0.58100  1.0000
  H   H177      1.0  0.41111  0.23650  0.89190  1.0000
  H   H178      1.0  0.47228  0.23106  0.60787  1.0000
  S   S46       1.0  0.46651  0.05554  0.95559  1.0000
  C   C115      1.0  0.31338  0.00862  0.84965  1.0000
  H   H179      1.0  0.39769  0.13429  0.94785  1.0000
  N   N13       1.0  0.37355  0.14960  0.72727  1.0000
  C   C116      1.0  0.38151  0.14791  0.70056  1.0000
  C   C117      1.0  0.35603  0.13517  0.73272  1.0000
  C   C118      1.0  0.36901  0.16706  0.72891  1.0000
  C   C119      1.0  0.38764  0.14820  0.74696  1.0000
  H   H180      1.0  0.37114  0.14852  0.68517  1.0000
  H   H181      1.0  0.38532  0.13496  0.69884  1.0000
  H   H182      1.0  0.39466  0.15866  0.69572  1.0000
  H   H183      1.0  0.34995  0.13580  0.75305  1.0000
  H   H184      1.0  0.34490  0.13601  0.71863  1.0000
  H   H185      1.0  0.35886  0.12180  0.73110  1.0000
  H   H186      1.0  0.35897  0.16887  0.71367  1.0000
  H   H187      1.0  0.38201  0.17831  0.72629  1.0000
  H   H188      1.0  0.36217  0.16835  0.74844  1.0000
  H   H189      1.0  0.38217  0.14946  0.76733  1.0000
  H   H190      1.0  0.40115  0.15873  0.74344  1.0000
  H   H191      1.0  0.39117  0.13510  0.74649  1.0000
  S   S47       1.0  0.42930  0.00848  0.67431  1.0000
  H   H192      1.0  0.40837  0.15072  0.50969  1.0000
  C   C120      1.0  0.31899  0.01238  0.97071  1.0000
  Fe  Fe23      1.0  0.48216  0.03436  0.95005  1.0000
  H   H193      1.0  0.40618  0.21448  0.84109  1.0000
  C   C121      1.0  0.49270  0.99957  0.56810  1.0000
  N   N14       1.0  0.42777  0.06509  0.64467  1.0000
  C   C122      1.0  0.44295  0.08173  0.63967  1.0000
  C   C123      1.0  0.43466  0.04979  0.63581  1.0000
  C   C124      1.0  0.41094  0.06619  0.62990  1.0000
  C   C125      1.0  0.42251  0.06267  0.67320  1.0000
  H   H194      1.0  0.43830  0.09355  0.64626  1.0000
  H   H195      1.0  0.45598  0.08129  0.65021  1.0000
  S   S48       1.0  0.46432  0.00705  0.94306  1.0000
  H   H196      1.0  0.43920  0.05147  0.61449  1.0000
  H   H197      1.0  0.41551  0.07236  0.87110  1.0000
  H   H198      1.0  0.39899  0.05408  0.63364  1.0000
  H   H199      1.0  0.41432  0.06763  0.60829  1.0000
  H   H200      1.0  0.40566  0.07786  0.63553  1.0000
  H   H201      1.0  0.43495  0.06205  0.68499  1.0000
  H   H202      1.0  0.41132  0.05006  0.67768  1.0000
  H   H203      1.0  0.41692  0.07385  0.68041  1.0000
  N   N15       1.0  0.43480  0.06060  0.89203  1.0000
  C   C126      1.0  0.42347  0.06195  0.86880  1.0000
  C   C127      1.0  0.44479  0.04638  0.88840  1.0000
  C   C128      1.0  0.42204  0.05630  0.91595  1.0000
  C   C129      1.0  0.44885  0.07783  0.89500  1.0000
  C   C130      1.0  0.37037  0.14634  0.51117  1.0000
  H   H204      1.0  0.41283  0.04914  0.86576  1.0000
  H   H205      1.0  0.43266  0.06561  0.85046  1.0000
  H   H206      1.0  0.45357  0.04507  0.90549  1.0000
  H   H207      1.0  0.43466  0.03313  0.88640  1.0000
  H   H208      1.0  0.45454  0.04915  0.87054  1.0000
  H   H209      1.0  0.43014  0.05511  0.93383  1.0000
  H   H210      1.0  0.41117  0.04344  0.91444  1.0000
  H   H211      1.0  0.41445  0.06687  0.91937  1.0000
  H   H212      1.0  0.45897  0.08140  0.87758  1.0000
  H   H213      1.0  0.45736  0.07741  0.91273  1.0000
  H   H214      1.0  0.44177  0.08888  0.89723  1.0000
  H   H215      1.0  0.49136  0.01154  0.52917  1.0000
  Fe  Fe24      1.0  0.48410  0.00754  0.90759  1.0000
  H   H216      1.0  0.47203  0.04237  0.49815  1.0000
  C   C131      1.0  0.46800  0.05445  0.50282  1.0000
  H   H217      1.0  0.28650  0.00169  0.94488  1.0000
  H   H218      1.0  0.46410  0.23266  0.57505  1.0000
  H   H219      1.0  0.32200  0.03142  0.74949  1.0000
  H   H220      1.0  0.39566  0.15590  0.93721  1.0000
  C   C132      1.0  0.46874  0.00370  0.81305  1.0000
  C   C133      1.0  0.46124  0.23499  0.59616  1.0000
  H   H221      1.0  0.28320  0.01004  0.73258  1.0000
  H   H222      1.0  0.40156  0.23242  0.82137  1.0000
  H   H223      1.0  0.30599  0.00884  0.49333  1.0000
  C   C134      1.0  0.38940  0.17091  0.48382  1.0000
  H   H224      1.0  0.38684  0.22880  0.90386  1.0000
  H   H225      1.0  0.33461  0.01813  0.97149  1.0000
  H   H226      1.0  0.39893  0.21335  0.89019  1.0000
  H   H227      1.0  0.44056  0.24238  0.63714  1.0000
  Fe  Fe25      1.0  0.39869  0.24416  0.53646  1.0000
  C   C135      1.0  0.29445  0.00301  0.73637  1.0000
  C   C136      1.0  0.39719  0.22715  0.88808  1.0000
  H   H228      1.0  0.41040  0.01714  0.58499  1.0000
  H   H229      1.0  0.27516  0.00692  0.78088  1.0000
  C   C137      1.0  0.48615  0.99985  0.54217  1.0000
  C   C138      1.0  0.42687  0.00300  0.54573  1.0000
  H   H230      1.0  0.99651  0.24780  0.66718  1.0000
  H   H231      1.0  0.37500  0.15604  0.97769  1.0000
  H   H232      1.0  0.32931  0.00201  0.75161  1.0000
  C   C139      1.0  0.44081  0.00369  0.58827  1.0000
  C   C140      1.0  0.40745  0.00232  0.58556  1.0000
  H   H233      1.0  0.32330  0.99956  0.78642  1.0000
  N   N16       1.0  0.40394  0.15397  0.97726  1.0000
  H   H234      1.0  0.29228  0.00319  0.80342  1.0000
  C   C141      1.0  0.38889  0.24924  0.85953  1.0000
  Fe  Fe26      1.0  0.07123  0.43725  0.22722  1.0000
  S   S49       1.0  0.04163  0.42291  0.24116  1.0000
  S   S50       1.0  0.09110  0.41970  0.22033  1.0000
  Fe  Fe27      1.0  0.06392  0.47351  0.23632  1.0000
  H   H235      1.0  0.09849  0.30700  0.98805  1.0000
  H   H236      1.0  0.19562  0.34821  0.04529  1.0000
  H   H237      1.0  0.07542  0.25308  0.40140  1.0000
  C   C142      1.0  0.33118  0.31840  0.97946  1.0000
  H   H238      1.0  0.44078  0.29395  0.18535  1.0000
  S   S51       1.0  0.07587  0.45508  0.26146  1.0000
  S   S52       1.0  0.06243  0.45701  0.20044  1.0000
  S   S53       1.0  0.04726  0.43929  0.03673  1.0000
  S   S54       1.0  0.01380  0.45039  0.42899  1.0000
  Fe  Fe28      1.0  0.03715  0.41727  0.00854  1.0000
  S   S55       1.0  0.03930  0.38877  0.01868  1.0000
  H   H239      1.0  0.42439  0.46085  0.04357  1.0000
  C   C143      1.0  0.03179  0.43114  0.39586  1.0000
  Fe  Fe29      1.0  0.43489  0.27421  0.30420  1.0000
  S   S56       1.0  0.40757  0.28231  0.30630  1.0000
  S   S57       1.0  0.44952  0.27148  0.34269  1.0000
  Fe  Fe30      1.0  0.43218  0.26967  0.24369  1.0000
  S   S58       1.0  0.40482  0.27782  0.24335  1.0000
  H   H240      1.0  0.18918  0.36036  0.40770  1.0000
  Fe  Fe31      1.0  0.41941  0.29954  0.26978  1.0000
  S   S59       1.0  0.41846  0.32888  0.26647  1.0000
  Fe  Fe32      1.0  0.39696  0.25951  0.27969  1.0000
  S   S60       1.0  0.44731  0.29218  0.26850  1.0000
  H   H241      1.0  0.23151  0.39121  0.05304  1.0000
  Fe  Fe33      1.0  0.41937  0.27451  0.05672  1.0000
  S   S61       1.0  0.00808  0.43796  0.18947  1.0000
  S   S62       1.0  0.43637  0.28940  0.08938  1.0000
  Fe  Fe34      1.0  0.41335  0.27657  0.99657  1.0000
  C   C144      1.0  0.19400  0.33561  0.44272  1.0000
  H   H242      1.0  0.09597  0.43344  0.03312  1.0000
  Fe  Fe35      1.0  0.37993  0.27159  0.03729  1.0000
  S   S63       1.0  0.35253  0.27877  0.04667  1.0000
  H   H243      1.0  0.38497  0.43900  0.98018  1.0000
  S   S64       1.0  0.40722  0.29241  0.03064  1.0000
  H   H244      1.0  0.35928  0.32612  0.43696  1.0000
  Fe  Fe36      1.0  0.18239  0.38282  0.10981  1.0000
  S   S65       1.0  0.16855  0.35363  0.11056  1.0000
  S   S66       1.0  0.21431  0.39343  0.10769  1.0000
  Fe  Fe37      1.0  0.14411  0.39203  0.10930  1.0000
  S   S67       1.0  0.12769  0.36331  0.10940  1.0000
  S   S68       1.0  0.12763  0.41295  0.10741  1.0000
  Fe  Fe38      1.0  0.14786  0.35968  0.14056  1.0000
  S   S69       1.0  0.14037  0.34218  0.17806  1.0000
  Fe  Fe39      1.0  0.15027  0.36076  0.07935  1.0000
  S   S70       1.0  0.14807  0.34529  0.04194  1.0000
  S   S71       1.0  0.16313  0.38859  0.14198  1.0000
  S   S72       1.0  0.16521  0.38977  0.07708  1.0000
  Fe  Fe40      1.0  0.29925  0.35512  0.14224  1.0000
  S   S73       1.0  0.31355  0.38440  0.14226  1.0000
  S   S74       1.0  0.26728  0.34401  0.14281  1.0000
  Fe  Fe41      1.0  0.33696  0.34481  0.14371  1.0000
  S   S75       1.0  0.35355  0.37341  0.14332  1.0000
  S   S76       1.0  0.35506  0.32520  0.14702  1.0000
  Fe  Fe42      1.0  0.33143  0.37642  0.17361  1.0000
  S   S77       1.0  0.33968  0.39119  0.21135  1.0000
  Fe  Fe43      1.0  0.33401  0.37793  0.11195  1.0000
  S   S78       1.0  0.34635  0.39502  0.07477  1.0000
  S   S79       1.0  0.31583  0.34757  0.17547  1.0000
  S   S80       1.0  0.31877  0.34894  0.11050  1.0000
  Fe  Fe44      1.0  0.32737  0.36880  0.42571  1.0000
  S   S81       1.0  0.32211  0.39610  0.42667  1.0000
  H   H245      1.0  0.06473  0.48551  0.44915  1.0000
  Fe  Fe45      1.0  0.33081  0.37016  0.36462  1.0000
  S   S82       1.0  0.32616  0.39751  0.36217  1.0000
  S   S83       1.0  0.33349  0.35525  0.32736  1.0000
  Fe  Fe46      1.0  0.34605  0.40343  0.39565  1.0000
  S   S84       1.0  0.37235  0.42667  0.39065  1.0000
  Fe  Fe47      1.0  0.30271  0.38689  0.39315  1.0000
  S   S85       1.0  0.27356  0.39202  0.38734  1.0000
  S   S86       1.0  0.35216  0.37648  0.39619  1.0000
  S   S87       1.0  0.30650  0.35918  0.39420  1.0000
  Fe  Fe48      1.0  0.14299  0.35890  0.32917  1.0000
  S   S88       1.0  0.14608  0.33078  0.33009  1.0000
  S   S89       1.0  0.14149  0.37523  0.29150  1.0000
  Fe  Fe49      1.0  0.14193  0.36006  0.39025  1.0000
  S   S90       1.0  0.14454  0.33201  0.39441  1.0000
  H   H246      1.0  0.48955  0.35400  0.32803  1.0000
  Fe  Fe50      1.0  0.16715  0.34026  0.36169  1.0000
  S   S91       1.0  0.19612  0.33426  0.36619  1.0000
  Fe  Fe51      1.0  0.12314  0.32593  0.36260  1.0000
  H   H247      1.0  0.00889  0.36808  0.08086  1.0000
  S   S92       1.0  0.16533  0.36857  0.35872  1.0000
  S   S93       1.0  0.11928  0.35378  0.36039  1.0000
  N   N17       1.0  0.35589  0.30598  0.46819  1.0000
  S   S94       1.0  0.46387  0.43408  0.23373  1.0000
  H   H248      1.0  0.46628  0.32615  0.05893  1.0000
  N   N18       1.0  0.03484  0.28783  0.23203  1.0000
  H   H249      1.0  0.18948  0.36205  0.00321  1.0000
  S   S95       1.0  0.46029  0.45935  0.30056  1.0000
  N   N19       1.0  0.46896  0.32853  0.32917  1.0000
  S   S96       1.0  0.46835  0.46204  0.16455  1.0000
  H   H250      1.0  0.47662  0.30590  0.31297  1.0000
  C   C145      1.0  0.04937  0.29482  0.21061  1.0000
  H   H251      1.0  0.02795  0.47554  0.18451  1.0000
  H   H252      1.0  0.38361  0.32416  0.46950  1.0000
  C   C146      1.0  0.48692  0.44531  0.12836  1.0000
  S   S97       1.0  0.48959  0.47545  0.23287  1.0000
  C   C147      1.0  0.18407  0.36160  0.42827  1.0000
  C   C148      1.0  0.38918  0.43096  0.07908  1.0000
  H   H253      1.0  0.08947  0.48908  0.44026  1.0000
  H   H254      1.0  0.38547  0.41634  0.08391  1.0000
  C   C149      1.0  0.38916  0.41109  0.32419  1.0000
  N   N20       1.0  0.40887  0.42100  0.32910  1.0000
  C   C150      1.0  0.04651  0.28227  0.33463  1.0000
  H   H255      1.0  0.35499  0.34885  0.99502  1.0000
  H   H256      1.0  0.41309  0.46363  0.07462  1.0000
  H   H257      1.0  0.12921  0.34104  0.44896  1.0000
  H   H258      1.0  0.21662  0.37935  0.44848  1.0000
  H   H259      1.0  0.48253  0.28984  0.02778  1.0000
  C   C151      1.0  0.47495  0.45661  0.13246  1.0000
  C   C152      1.0  0.06390  0.25690  0.39068  1.0000
  C   C153      1.0  0.03022  0.26813  0.23330  1.0000
  H   H260      1.0  0.12439  0.42545  0.05085  1.0000
  C   C154      1.0  0.47242  0.45961  0.08460  1.0000
  C   C155      1.0  0.46777  0.46374  0.11042  1.0000
  H   H261      1.0  0.04421  0.28995  0.19112  1.0000
  S   S98       1.0  0.32759  0.35197  0.46328  1.0000
  H   H262      1.0  0.46670  0.46517  0.06796  1.0000
  H   H263      1.0  0.45852  0.47250  0.11341  1.0000
  C   C156      1.0  0.46835  0.45457  0.33182  1.0000
  H   H264      1.0  0.47136  0.35221  0.30459  1.0000
  H   H265      1.0  0.04127  0.48328  0.41482  1.0000
  H   H266      1.0  0.43145  0.46041  0.42768  1.0000
  C   C157      1.0  0.46993  0.45958  0.37908  1.0000
  C   C158      1.0  0.46296  0.46257  0.35424  1.0000
  H   H267      1.0  0.01072  0.46337  0.37595  1.0000
  H   H268      1.0  0.42449  0.44811  0.33422  1.0000
  H   H269      1.0  0.46583  0.46595  0.39613  1.0000
  H   H270      1.0  0.45367  0.47139  0.35237  1.0000
  H   H271      1.0  0.39987  0.41256  0.04040  1.0000
  C   C159      1.0  0.06022  0.29343  0.34972  1.0000
  H   H272      1.0  0.03158  0.28151  0.33816  1.0000
  H   H273      1.0  0.05569  0.30096  0.36511  1.0000
  C   C160      1.0  0.38633  0.43585  0.41715  1.0000
  C   C161      1.0  0.40548  0.44497  0.41189  1.0000
  C   C162      1.0  0.41678  0.45330  0.43209  1.0000
  Fe  Fe52      1.0  0.04565  0.44185  0.27453  1.0000
  C   C163      1.0  0.01907  0.37013  0.02411  1.0000
  H   H274      1.0  0.40598  0.44568  0.31128  1.0000
  H   H275      1.0  0.41162  0.44586  0.39207  1.0000
  H   H276      1.0  0.33166  0.30564  0.02905  1.0000
  C   C164      1.0  0.25230  0.37567  0.38126  1.0000
  C   C165      1.0  0.23631  0.38130  0.37358  1.0000
  C   C166      1.0  0.21914  0.36884  0.36854  1.0000
  C   C167      1.0  0.21768  0.35052  0.37126  1.0000
  C   C168      1.0  0.23372  0.34489  0.37874  1.0000
  C   C169      1.0  0.25092  0.35736  0.38378  1.0000
  H   H277      1.0  0.23720  0.39542  0.37152  1.0000
  H   H278      1.0  0.20704  0.37344  0.36257  1.0000
  H   H279      1.0  0.23279  0.33076  0.38090  1.0000
  H   H280      1.0  0.26302  0.35278  0.38982  1.0000
  C   C170      1.0  0.33752  0.38091  0.24347  1.0000
  C   C171      1.0  0.34243  0.39165  0.26523  1.0000
  C   C172      1.0  0.34104  0.38401  0.29104  1.0000
  C   C173      1.0  0.33501  0.36549  0.29532  1.0000
  C   C174      1.0  0.33015  0.35475  0.27359  1.0000
  C   C175      1.0  0.33121  0.36241  0.24784  1.0000
  H   H281      1.0  0.34729  0.40598  0.26206  1.0000
  H   H282      1.0  0.34487  0.39246  0.30755  1.0000
  H   H283      1.0  0.32539  0.34041  0.27672  1.0000
  H   H284      1.0  0.32715  0.35398  0.23141  1.0000
  C   C176      1.0  0.34054  0.38679  0.04303  1.0000
  C   C177      1.0  0.32867  0.36977  0.04005  1.0000
  C   C178      1.0  0.32494  0.36322  0.01476  1.0000
  C   C179      1.0  0.33297  0.37356  0.99203  1.0000
  C   C180      1.0  0.34449  0.39079  0.99485  1.0000
  C   C181      1.0  0.34828  0.39734  0.02026  1.0000
  H   H285      1.0  0.32232  0.36161  0.05722  1.0000
  H   H286      1.0  0.31568  0.35006  0.01287  1.0000
  C   C182      1.0  0.04230  0.29463  0.25745  1.0000
  H   H287      1.0  0.35728  0.41061  0.02228  1.0000
  C   C183      1.0  0.22895  0.37927  0.11595  1.0000
  C   C184      1.0  0.24867  0.38637  0.11608  1.0000
  C   C185      1.0  0.26063  0.37563  0.12382  1.0000
  C   C186      1.0  0.25291  0.35772  0.13163  1.0000
  C   C187      1.0  0.23320  0.35055  0.13111  1.0000
  C   C188      1.0  0.22127  0.36126  0.12317  1.0000
  H   H288      1.0  0.25477  0.40029  0.11046  1.0000
  H   H289      1.0  0.27578  0.38128  0.12390  1.0000
  H   H290      1.0  0.22715  0.33666  0.13693  1.0000
  H   H291      1.0  0.20617  0.35556  0.12302  1.0000
  C   C189      1.0  0.14664  0.35508  0.01038  1.0000
  C   C190      1.0  0.14085  0.37086  0.00703  1.0000
  H   H292      1.0  0.21387  0.36019  0.06587  1.0000
  N   N21       1.0  0.09970  0.40685  0.03718  1.0000
  H   H293      1.0  0.99797  0.27078  0.38324  1.0000
  C   C191      1.0  0.15108  0.34651  0.98802  1.0000
  H   H294      1.0  0.13753  0.37763  0.02414  1.0000
  S   S99       1.0  0.49025  0.39576  0.24094  1.0000
  H   H295      1.0  0.36985  0.30661  0.00215  1.0000
  H   H296      1.0  0.15579  0.33442  0.99043  1.0000
  C   C192      1.0  0.13992  0.35150  0.20939  1.0000
  C   C193      1.0  0.13992  0.36939  0.21211  1.0000
  C   C194      1.0  0.14028  0.37646  0.23736  1.0000
  C   C195      1.0  0.14062  0.36573  0.26012  1.0000
  C   C196      1.0  0.14040  0.34781  0.25736  1.0000
  C   C197      1.0  0.14000  0.34073  0.23214  1.0000
  H   H297      1.0  0.13965  0.37779  0.19479  1.0000
  H   H298      1.0  0.14039  0.39034  0.23922  1.0000
  H   H299      1.0  0.14052  0.33935  0.27464  1.0000
  H   H300      1.0  0.13989  0.32685  0.23026  1.0000
  C   C198      1.0  0.35450  0.31292  0.11853  1.0000
  C   C199      1.0  0.33751  0.30679  0.10581  1.0000
  C   C200      1.0  0.33692  0.29603  0.08403  1.0000
  C   C201      1.0  0.35341  0.29169  0.07457  1.0000
  C   C202      1.0  0.37050  0.29807  0.08704  1.0000
  C   C203      1.0  0.37100  0.30853  0.10916  1.0000
  H   H301      1.0  0.32468  0.30998  0.11315  1.0000
  H   H302      1.0  0.32363  0.29102  0.07459  1.0000
  H   H303      1.0  0.38332  0.29491  0.07972  1.0000
  H   H304      1.0  0.38421  0.31338  0.11885  1.0000
  C   C204      1.0  0.43869  0.34733  0.25989  1.0000
  C   C205      1.0  0.45643  0.34498  0.25175  1.0000
  C   C206      1.0  0.47199  0.35992  0.24617  1.0000
  C   C207      1.0  0.47005  0.37743  0.24830  1.0000
  C   C208      1.0  0.45232  0.37978  0.25660  1.0000
  C   C209      1.0  0.43681  0.36483  0.26250  1.0000
  H   H305      1.0  0.45812  0.33169  0.24924  1.0000
  H   H306      1.0  0.45061  0.39314  0.25849  1.0000
  H   H307      1.0  0.42323  0.36687  0.26892  1.0000
  C   C210      1.0  0.43994  0.27528  0.37411  1.0000
  C   C211      1.0  0.42533  0.28393  0.37650  1.0000
  C   C212      1.0  0.41855  0.28737  0.40158  1.0000
  C   C213      1.0  0.42586  0.28182  0.42472  1.0000
  C   C214      1.0  0.44020  0.27281  0.42244  1.0000
  C   C215      1.0  0.44738  0.26981  0.39724  1.0000
  H   H308      1.0  0.41943  0.28832  0.35911  1.0000
  H   H309      1.0  0.40757  0.29446  0.40308  1.0000
  H   H310      1.0  0.43692  0.42465  0.31141  1.0000
  C   C216      1.0  0.43780  0.26693  0.17404  1.0000
  C   C217      1.0  0.43866  0.28498  0.16921  1.0000
  C   C218      1.0  0.43785  0.29163  0.14323  1.0000
  C   C219      1.0  0.43561  0.28024  0.12196  1.0000
  C   C220      1.0  0.43393  0.26205  0.12692  1.0000
  N   N22       1.0  0.34797  0.32024  0.99569  1.0000
  H   H311      1.0  0.38014  0.26240  0.19887  1.0000
  H   H312      1.0  0.43931  0.30574  0.13956  1.0000
  H   H313      1.0  0.40008  0.44283  0.34610  1.0000
  H   H314      1.0  0.20217  0.38454  0.99371  1.0000
  H   H315      1.0  0.03434  0.42403  0.41347  1.0000
  C   C221      1.0  0.42269  0.43221  0.07528  1.0000
  C   C222      1.0  0.02169  0.35315  0.03055  1.0000
  H   H316      1.0  0.01131  0.28865  0.20786  1.0000
  H   H317      1.0  0.03596  0.35150  0.03163  1.0000
  C   C223      1.0  0.10030  0.41779  0.18839  1.0000
  C   C224      1.0  0.09830  0.42909  0.16721  1.0000
  C   C225      1.0  0.10657  0.42751  0.14221  1.0000
  C   C226      1.0  0.11670  0.41458  0.13838  1.0000
  C   C227      1.0  0.11819  0.40302  0.15942  1.0000
  C   C228      1.0  0.11016  0.40472  0.18438  1.0000
  H   H318      1.0  0.09076  0.43925  0.17023  1.0000
  H   H319      1.0  0.10538  0.43650  0.12600  1.0000
  H   H320      1.0  0.12561  0.39278  0.15656  1.0000
  H   H321      1.0  0.11166  0.39588  0.20065  1.0000
  S   S100      1.0  0.46321  0.44376  0.98128  1.0000
  S   S101      1.0  0.05185  0.43680  0.47163  1.0000
  H   H322      1.0  0.20188  0.32965  0.45732  1.0000
  S   S102      1.0  0.14278  0.37729  0.42598  1.0000
  C   C229      1.0  0.06881  0.46625  0.40745  1.0000
  H   H323      1.0  0.43241  0.25317  0.11070  1.0000
  H   H324      1.0  0.12824  0.41558  0.02020  1.0000
  C   C230      1.0  0.38521  0.26914  0.13223  1.0000
  Fe  Fe53      1.0  0.47638  0.45395  0.26377  1.0000
  H   H325      1.0  0.09342  0.41578  0.07534  1.0000
  H   H326      1.0  0.13412  0.38963  0.97888  1.0000
  C   C231      1.0  0.05309  0.48979  0.40039  1.0000
  N   N23       1.0  0.01889  0.49798  0.16885  1.0000
  H   H327      1.0  0.02189  0.48102  0.13719  1.0000
  H   H328      1.0  0.03759  0.44365  0.14557  1.0000
  C   C232      1.0  0.02413  0.44418  0.13765  1.0000
  H   H329      1.0  0.03097  0.26565  0.38601  1.0000
  H   H330      1.0  0.18471  0.37591  0.43106  1.0000
  H   H331      1.0  0.10011  0.37945  0.03314  1.0000
  C   C233      1.0  0.46208  0.30754  0.99897  1.0000
  H   H332      1.0  0.35993  0.30439  0.42623  1.0000
  C   C234      1.0  0.00580  0.40176  0.07415  1.0000
  C   C235      1.0  0.40366  0.42730  0.03686  1.0000
  H   H333      1.0  0.44524  0.32475  0.30414  1.0000
  H   H334      1.0  0.20967  0.39743  0.04950  1.0000
  C   C236      1.0  0.42184  0.41815  0.30755  1.0000
  H   H335      1.0  0.22561  0.37710  0.17210  1.0000
  H   H336      1.0  0.01099  0.26707  0.42719  1.0000
  H   H337      1.0  0.42551  0.43922  0.09410  1.0000
  C   C237      1.0  0.07967  0.29426  0.34592  1.0000
  H   H338      1.0  0.19575  0.38933  0.22509  1.0000
  S   S103      1.0  0.42828  0.26040  0.02198  1.0000
  H   H339      1.0  0.39957  0.45991  0.04537  1.0000
  H   H340      1.0  0.06504  0.46093  0.38769  1.0000
  S   S104      1.0  0.09564  0.30395  0.37015  1.0000
  N   N24       1.0  0.38122  0.34822  0.21761  1.0000
  C   C238      1.0  0.37584  0.34886  0.24585  1.0000
  C   C239      1.0  0.36797  0.35502  0.20133  1.0000
  C   C240      1.0  0.38033  0.32960  0.21108  1.0000
  C   C241      1.0  0.40077  0.35938  0.21204  1.0000
  H   H341      1.0  0.38582  0.34416  0.25872  1.0000
  H   H342      1.0  0.36131  0.34026  0.25077  1.0000
  H   H343      1.0  0.37586  0.36265  0.25128  1.0000
  H   H344      1.0  0.37185  0.35489  0.17998  1.0000
  H   H345      1.0  0.35313  0.34668  0.20444  1.0000
  H   H346      1.0  0.36800  0.36898  0.20589  1.0000
  H   H347      1.0  0.38438  0.32871  0.18990  1.0000
  H   H348      1.0  0.36569  0.32086  0.21464  1.0000
  H   H349      1.0  0.39009  0.32399  0.22318  1.0000
  H   H350      1.0  0.40500  0.35967  0.19071  1.0000
  H   H351      1.0  0.41125  0.35413  0.22309  1.0000
  H   H352      1.0  0.40218  0.37340  0.21761  1.0000
  N   N25       1.0  0.40666  0.43664  0.06187  1.0000
  H   H353      1.0  0.42075  0.40373  0.30522  1.0000
  C   C242      1.0  0.41111  0.45611  0.05619  1.0000
  C   C243      1.0  0.43530  0.25550  0.15280  1.0000
  H   H354      1.0  0.39508  0.28274  0.13139  1.0000
  H   H355      1.0  0.05326  0.30967  0.20912  1.0000
  H   H356      1.0  0.07736  0.41642  0.02007  1.0000
  H   H357      1.0  0.22702  0.40140  0.02241  1.0000
  H   H358      1.0  0.41447  0.40021  0.35418  1.0000
  C   C244      1.0  0.00599  0.33823  0.03576  1.0000
  H   H359      1.0  0.04608  0.30945  0.25726  1.0000
  C   C245      1.0  0.13451  0.34992  0.46453  1.0000
  H   H360      1.0  0.45882  0.26326  0.39572  1.0000
  H   H361      1.0  0.09493  0.39317  0.07533  1.0000
  H   H362      1.0  0.02246  0.45617  0.33204  1.0000
  H   H363      1.0  0.00829  0.32529  0.04070  1.0000
  C   C246      1.0  0.00805  0.44204  0.15484  1.0000
  N   N26       1.0  0.27792  0.37276  0.30557  1.0000
  C   C247      1.0  0.28670  0.37173  0.27914  1.0000
  C   C248      1.0  0.28885  0.36617  0.32581  1.0000
  C   C249      1.0  0.25810  0.36167  0.30705  1.0000
  C   C250      1.0  0.27812  0.39150  0.31038  1.0000
  H   H364      1.0  0.27863  0.37620  0.26322  1.0000
  H   H365      1.0  0.28746  0.35788  0.27522  1.0000
  H   H366      1.0  0.30150  0.38034  0.27721  1.0000
  H   H367      1.0  0.28286  0.36702  0.34604  1.0000
  H   H368      1.0  0.28908  0.35205  0.32302  1.0000
  H   H369      1.0  0.30386  0.37417  0.32503  1.0000
  H   H370      1.0  0.25107  0.36227  0.32671  1.0000
  H   H371      1.0  0.25746  0.34740  0.30389  1.0000
  H   H372      1.0  0.24941  0.36621  0.29202  1.0000
  H   H373      1.0  0.27028  0.39708  0.29528  1.0000
  H   H374      1.0  0.29292  0.40015  0.31007  1.0000
  H   H375      1.0  0.27142  0.39273  0.33006  1.0000
  H   H376      1.0  0.03344  0.39209  0.09982  1.0000
  H   H377      1.0  0.33774  0.30880  0.43666  1.0000
  C   C251      1.0  0.40988  0.44024  0.33023  1.0000
  C   C252      1.0  0.07156  0.27268  0.31170  1.0000
  C   C253      1.0  0.48237  0.44857  0.38167  1.0000
  N   N27       1.0  0.19521  0.35453  0.44772  1.0000
  H   H378      1.0  0.21982  0.35353  0.00780  1.0000
  Fe  Fe54      1.0  0.49092  0.42549  0.23684  1.0000
  H   H379      1.0  0.35506  0.27570  0.18137  1.0000
  H   H380      1.0  0.18498  0.38018  0.02104  1.0000
  H   H381      1.0  0.44541  0.31371  0.04420  1.0000
  H   H382      1.0  0.22413  0.36002  0.45956  1.0000
  H   H383      1.0  0.16886  0.35422  0.43001  1.0000
  C   C254      1.0  0.36338  0.27835  0.16220  1.0000
  H   H384      1.0  0.39074  0.43785  0.09806  1.0000
  H   H385      1.0  0.07440  0.39894  0.06248  1.0000
  C   C255      1.0  0.09012  0.40352  0.06370  1.0000
  N   N28       1.0  0.21143  0.37395  0.02918  1.0000
  C   C256      1.0  0.20294  0.36170  0.05179  1.0000
  C   C257      1.0  0.19639  0.37528  0.01096  1.0000
  C   C258      1.0  0.22603  0.36703  0.01521  1.0000
  C   C259      1.0  0.22031  0.39179  0.03886  1.0000
  H   H386      1.0  0.33166  0.28326  0.46942  1.0000
  C   C260      1.0  0.48727  0.44019  0.35938  1.0000
  C   C261      1.0  0.37647  0.30974  0.47272  1.0000
  Fe  Fe55      1.0  0.48039  0.45438  0.20293  1.0000
  H   H387      1.0  0.20004  0.33411  0.42273  1.0000
  H   H388      1.0  0.47027  0.30031  0.98648  1.0000
  C   C262      1.0  0.35312  0.31153  0.44078  1.0000
  Fe  Fe56      1.0  0.01934  0.44530  0.03012  1.0000
  H   H389      1.0  0.17791  0.36855  0.22679  1.0000
  H   H390      1.0  0.01010  0.41628  0.07747  1.0000
  Fe  Fe57      1.0  0.45371  0.46900  0.98145  1.0000
  H   H391      1.0  0.02032  0.30847  0.22568  1.0000
  H   H392      1.0  0.46407  0.32900  0.37117  1.0000
  C   C263      1.0  0.47418  0.34816  0.32502  1.0000
  C   C264      1.0  0.09519  0.39018  0.02268  1.0000
  H   H393      1.0  0.37899  0.41316  0.33995  1.0000
  Fe  Fe58      1.0  0.03301  0.44395  0.21653  1.0000
  C   C265      1.0  0.49053  0.32518  0.01754  1.0000
  S   S105      1.0  0.47312  0.48091  0.01328  1.0000
  H   H394      1.0  0.10350  0.37862  0.27441  1.0000
  C   C266      1.0  0.18810  0.37822  0.21314  1.0000
  H   H395      1.0  0.22021  0.37226  0.23130  1.0000
  H   H396      1.0  0.22196  0.35517  0.20893  1.0000
  S   S106      1.0  0.44082  0.25833  0.20591  1.0000
  H   H397      1.0  0.47789  0.32418  0.28965  1.0000
  H   H398      1.0  0.04289  0.26318  0.23786  1.0000
  C   C267      1.0  0.41463  0.41456  0.35447  1.0000
  H   H399      1.0  0.08710  0.38789  0.25640  1.0000
  C   C268      1.0  0.40885  0.45317  0.45760  1.0000
  H   H400      1.0  0.17957  0.38381  0.19894  1.0000
  C   C269      1.0  0.37857  0.43510  0.44291  1.0000
  C   C270      1.0  0.01745  0.29368  0.22679  1.0000
  H   H401      1.0  0.00356  0.47483  0.19236  1.0000
  C   C271      1.0  0.01854  0.45327  0.37466  1.0000
  S   S107      1.0  0.08474  0.48027  0.99622  1.0000
  C   C272      1.0  0.09298  0.42072  0.02259  1.0000
  S   S108      1.0  0.03378  0.46166  0.25132  1.0000
  H   H402      1.0  0.06266  0.29060  0.21398  1.0000
  C   C273      1.0  0.02522  0.44925  0.34971  1.0000
  H   H403      1.0  0.38445  0.41554  0.30508  1.0000
  H   H404      1.0  0.41976  0.41764  0.08012  1.0000
  H   H405      1.0  0.07202  0.39036  0.32664  1.0000
  C   C274      1.0  0.21187  0.36183  0.21882  1.0000
  H   H406      1.0  0.19217  0.36677  0.06298  1.0000
  N   N29       1.0  0.37443  0.26504  0.15785  1.0000
  S   S109      1.0  0.04330  0.42974  0.31682  1.0000
  C   C275      1.0  0.03500  0.43594  0.34766  1.0000
  H   H407      1.0  0.48019  0.30067  0.05815  1.0000
  C   C276      1.0  0.09887  0.39102  0.27029  1.0000
  H   H408      1.0  0.11099  0.40072  0.25960  1.0000
  H   H409      1.0  0.07506  0.41232  0.27515  1.0000
  N   N30       1.0  0.20132  0.36957  0.19929  1.0000
  H   H410      1.0  0.20200  0.35163  0.23216  1.0000
  H   H411      1.0  0.17977  0.34506  0.19565  1.0000
  H   H412      1.0  0.45837  0.33467  0.02910  1.0000
  H   H413      1.0  0.10000  0.42369  0.00254  1.0000
  H   H414      1.0  0.37279  0.29212  0.16230  1.0000
  H   H415      1.0  0.37451  0.33936  0.00115  1.0000
  C   C277      1.0  0.07684  0.38516  0.30815  1.0000
  H   H416      1.0  0.06445  0.38190  0.29530  1.0000
  Fe  Fe59      1.0  0.02408  0.44416  0.46945  1.0000
  H   H417      1.0  0.48558  0.35792  0.23967  1.0000
  H   H418      1.0  0.22276  0.39439  0.19314  1.0000
  H   H419      1.0  0.34426  0.38882  0.47678  1.0000
  C   C278      1.0  0.34185  0.31875  0.02391  1.0000
  S   S110      1.0  0.42169  0.46322  0.98580  1.0000
  N   N31       1.0  0.09305  0.39836  0.29481  1.0000
  C   C279      1.0  0.08728  0.41490  0.28836  1.0000
  H   H420      1.0  0.08070  0.37252  0.31340  1.0000
  H   H421      1.0  0.00618  0.28861  0.24259  1.0000
  H   H422      1.0  0.09906  0.42511  0.27791  1.0000
  S   S111      1.0  0.47557  0.48359  0.44665  1.0000
  C   C280      1.0  0.21486  0.38296  0.18194  1.0000
  C   C281      1.0  0.19042  0.35523  0.18327  1.0000
  C   C282      1.0  0.08528  0.28411  0.32639  1.0000
  H   H423      1.0  0.41876  0.42390  0.28832  1.0000
  H   H424      1.0  0.40486  0.41609  0.37109  1.0000
  H   H425      1.0  0.01688  0.39887  0.06066  1.0000
  H   H426      1.0  0.08275  0.42086  0.30634  1.0000
  H   H427      1.0  0.39187  0.43066  0.02609  1.0000
  S   S112      1.0  0.38474  0.25713  0.00134  1.0000
  H   H428      1.0  0.36379  0.42829  0.44713  1.0000
  H   H429      1.0  0.04870  0.48489  0.38063  1.0000
  H   H430      1.0  0.18241  0.36058  0.16811  1.0000
  H   H431      1.0  0.04563  0.41654  0.36960  1.0000
  Fe  Fe60      1.0  0.05757  0.45788  0.00102  1.0000
  S   S113      1.0  0.42372  0.25070  0.27923  1.0000
  C   C283      1.0  0.05210  0.27137  0.31619  1.0000
  C   C284      1.0  0.01263  0.48960  0.14385  1.0000
  Fe  Fe61      1.0  0.00334  0.25181  0.30317  1.0000
  H   H432      1.0  0.17896  0.32749  0.44367  1.0000
  C   C285      1.0  0.38972  0.44399  0.46296  1.0000
  H   H433      1.0  0.46911  0.30892  0.36005  1.0000
  H   H434      1.0  0.43608  0.43614  0.06271  1.0000
  H   H435      1.0  0.10213  0.39222  0.00252  1.0000
  C   C286      1.0  0.10918  0.40235  0.31245  1.0000
  H   H436      1.0  0.10553  0.40836  0.33086  1.0000
  H   H437      1.0  0.12188  0.41177  0.30257  1.0000
  H   H438      1.0  0.20745  0.38847  0.16614  1.0000
  H   H439      1.0  0.19988  0.34821  0.17280  1.0000
  H   H440      1.0  0.10020  0.49187  0.39291  1.0000
  C   C287      1.0  0.03821  0.42694  0.37091  1.0000
  H   H441      1.0  0.45961  0.28756  0.04361  1.0000
  H   H442      1.0  0.38771  0.39648  0.32370  1.0000
  S   S114      1.0  0.03013  0.46498  0.99592  1.0000
  H   H443      1.0  0.06660  0.25551  0.36922  1.0000
  H   H444      1.0  0.44620  0.26871  0.44005  1.0000
  H   H445      1.0  0.37669  0.43378  0.06938  1.0000
  H   H446      1.0  0.02469  0.26248  0.21441  1.0000
  Fe  Fe62      1.0  0.48393  0.45651  0.01105  1.0000
  S   S115      1.0  0.41757  0.28787  0.45555  1.0000
  C   C288      1.0  0.02187  0.44433  0.39791  1.0000
  H   H447      1.0  0.41660  0.43118  0.02342  1.0000
  N   N32       1.0  0.07110  0.48571  0.40746  1.0000
  H   H448      1.0  0.42922  0.42220  0.35916  1.0000
  H   H449      1.0  0.11355  0.39004  0.31824  1.0000
  C   C289      1.0  0.47271  0.32368  0.35651  1.0000
  H   H450      1.0  0.12599  0.40285  0.05093  1.0000
  H   H451      1.0  0.05527  0.29021  0.26223  1.0000
  H   H452      1.0  0.03495  0.44814  0.09682  1.0000
  H   H453      1.0  0.01921  0.26247  0.24914  1.0000
  H   H454      1.0  0.08202  0.46260  0.41305  1.0000
  C   C290      1.0  0.02261  0.44666  0.11003  1.0000
  C   C291      1.0  0.12049  0.41296  0.03979  1.0000
  H   H455      1.0  0.10013  0.28424  0.32370  1.0000
  H   H456      1.0  0.02214  0.48967  0.20890  1.0000
  C   C292      1.0  0.44856  0.32143  0.32459  1.0000
  H   H457      1.0  0.39791  0.27897  0.17996  1.0000
  C   C293      1.0  0.48034  0.32075  0.31049  1.0000
  S   S116      1.0  0.39147  0.25459  0.06530  1.0000
  H   H458      1.0  0.35414  0.31997  0.03678  1.0000
  H   H459      1.0  0.35314  0.27830  0.14637  1.0000
  H   H460      1.0  0.07958  0.38518  0.02042  1.0000
  H   H461      1.0  0.06544  0.27135  0.39372  1.0000
  C   C294      1.0  0.48020  0.44307  0.33465  1.0000
  H   H462      1.0  0.46016  0.31916  0.98695  1.0000
  C   C295      1.0  0.35741  0.30596  0.98969  1.0000
  H   H463      1.0  0.39394  0.25954  0.12846  1.0000
  H   H464      1.0  0.48794  0.32896  0.36082  1.0000
  H   H465      1.0  0.02663  0.40960  0.11681  1.0000
  H   H466      1.0  0.48387  0.43626  0.31786  1.0000
  N   N33       1.0  0.47155  0.31305  0.02375  1.0000
  H   H467      1.0  0.44419  0.30667  0.32743  1.0000
  H   H468      1.0  0.44769  0.29846  0.00297  1.0000
  C   C296      1.0  0.08643  0.49471  0.38807  1.0000
  C   C297      1.0  0.48421  0.44816  0.08052  1.0000
  H   H469      1.0  0.43945  0.32697  0.33826  1.0000
  H   H470      1.0  0.05726  0.45913  0.42180  1.0000
  C   C298      1.0  0.45995  0.32236  0.03963  1.0000
  H   H471      1.0  0.33475  0.32935  0.02926  1.0000
  C   C299      1.0  0.13892  0.37762  0.98142  1.0000
  H   H472      1.0  0.08310  0.49016  0.36779  1.0000
  H   H473      1.0  0.38373  0.30229  0.45916  1.0000
  H   H474      1.0  0.23267  0.37591  0.99792  1.0000
  Fe  Fe63      1.0  0.48550  0.45850  0.44886  1.0000
  H   H475      1.0  0.03170  0.28961  0.27407  1.0000
  S   S117      1.0  0.49041  0.44253  0.04835  1.0000
  C   C300      1.0  0.47363  0.29710  0.03891  1.0000
  H   H476      1.0  0.23762  0.36595  0.02844  1.0000
  C   C301      1.0  0.21526  0.36497  0.44519  1.0000
  C   C302      1.0  0.14171  0.36818  0.45866  1.0000
  H   H477      1.0  0.46590  0.35448  0.33882  1.0000
  C   C303      1.0  0.01809  0.48393  0.18955  1.0000
  H   H478      1.0  0.37553  0.26851  0.11561  1.0000
  H   H479      1.0  0.22155  0.36411  0.42515  1.0000
  C   C304      1.0  0.07604  0.49206  0.43403  1.0000
  C   C305      1.0  0.49144  0.44106  0.10253  1.0000
  H   H480      1.0  0.99784  0.48097  0.14607  1.0000
  C   C306      1.0  0.34719  0.28665  0.47262  1.0000
  C   C307      1.0  0.02197  0.39521  0.11242  1.0000
  C   C308      1.0  0.38778  0.26558  0.17924  1.0000
  C   C309      1.0  0.03020  0.25121  0.38444  1.0000
  C   C310      1.0  0.36144  0.33781  0.98978  1.0000
  S   S118      1.0  0.49259  0.44533  0.41195  1.0000
  H   H481      1.0  0.32098  0.30509  0.98294  1.0000
  H   H482      1.0  0.39644  0.25576  0.17655  1.0000
  H   H483      1.0  0.48949  0.33736  0.00610  1.0000
  H   H484      1.0  0.99806  0.38478  0.01780  1.0000
  C   C311      1.0  0.00511  0.44735  0.09969  1.0000
  C   C312      1.0  0.99598  0.26575  0.42558  1.0000
  H   H485      1.0  0.49247  0.43965  0.14512  1.0000
  H   H486      1.0  0.11245  0.32926  0.97993  1.0000
  N   N34       1.0  0.00367  0.39107  0.09923  1.0000
  H   H487      1.0  0.34756  0.29250  0.99369  1.0000
  H   H488      1.0  0.02090  0.38745  0.13150  1.0000
  S   S119      1.0  0.00880  0.42283  0.00280  1.0000
  H   H489      1.0  0.15391  0.39369  0.47486  1.0000
  H   H490      1.0  0.32335  0.32859  0.98411  1.0000
  C   C313      1.0  0.00047  0.37195  0.02294  1.0000
  H   H491      1.0  0.35381  0.27868  0.45914  1.0000
  H   H492      1.0  0.00387  0.31715  0.47078  1.0000
  H   H493      1.0  0.07605  0.26432  0.29748  1.0000
  S   S120      1.0  0.03531  0.25515  0.29960  1.0000
  H   H494      1.0  0.04282  0.26333  0.43159  1.0000
  C   C314      1.0  0.18739  0.35590  0.47461  1.0000
  S   S121      1.0  0.00156  0.45019  0.06551  1.0000
  H   H495      1.0  0.08706  0.32424  0.97916  1.0000
  C   C315      1.0  0.99801  0.37189  0.09377  1.0000
  H   H496      1.0  0.99732  0.32119  0.42320  1.0000
  H   H497      1.0  0.99611  0.36339  0.11225  1.0000
  H   H498      1.0  0.17250  0.34762  0.47739  1.0000
  Fe  Fe64      1.0  0.08166  0.44660  0.72925  1.0000
  S   S122      1.0  0.05499  0.42615  0.74186  1.0000
  S   S123      1.0  0.10942  0.43983  0.72077  1.0000
  Fe  Fe65      1.0  0.06304  0.47712  0.73551  1.0000
  C   C316      1.0  0.40301  0.45588  0.54597  1.0000
  S   S124      1.0  0.02128  0.42817  0.68449  1.0000
  Fe  Fe66      1.0  0.05179  0.44458  0.77432  1.0000
  C   C317      1.0  0.25983  0.38235  0.56036  1.0000
  Fe  Fe67      1.0  0.04066  0.44228  0.71563  1.0000
  S   S125      1.0  0.07959  0.46413  0.76267  1.0000
  S   S126      1.0  0.06781  0.46135  0.70092  1.0000
  S   S127      1.0  0.04883  0.43947  0.53502  1.0000
  H   H499      1.0  0.34905  0.28208  0.49319  1.0000
  Fe  Fe68      1.0  0.03743  0.41835  0.50603  1.0000
  H   H500      1.0  0.29036  0.40650  0.80545  1.0000
  C   C318      1.0  0.07774  0.36814  0.53539  1.0000
  C   C319      1.0  0.28998  0.39006  0.53566  1.0000
  Fe  Fe69      1.0  0.43748  0.27497  0.80567  1.0000
  S   S128      1.0  0.40866  0.28011  0.80351  1.0000
  S   S129      1.0  0.44792  0.26895  0.84601  1.0000
  Fe  Fe70      1.0  0.44093  0.27316  0.74451  1.0000
  S   S130      1.0  0.41207  0.27759  0.73995  1.0000
  S   S131      1.0  0.45920  0.27077  0.70819  1.0000
  Fe  Fe71      1.0  0.42159  0.29915  0.76909  1.0000
  S   S132      1.0  0.41798  0.32722  0.75964  1.0000
  Fe  Fe72      1.0  0.40330  0.25788  0.77484  1.0000
  S   S133      1.0  0.45080  0.29514  0.77277  1.0000
  H   H501      1.0  0.28551  0.37893  0.52206  1.0000
  Fe  Fe73      1.0  0.42656  0.27587  0.55663  1.0000
  H   H502      1.0  0.46592  0.46846  0.89576  1.0000
  S   S134      1.0  0.45071  0.28343  0.58475  1.0000
  Fe  Fe74      1.0  0.41579  0.27602  0.49777  1.0000
  H   H503      1.0  0.46949  0.35348  0.70978  1.0000
  C   C320      1.0  0.45378  0.31938  0.70131  1.0000
  Fe  Fe75      1.0  0.38757  0.27909  0.54222  1.0000
  S   S135      1.0  0.36348  0.29222  0.54590  1.0000
  H   H504      1.0  0.03840  0.42289  0.63428  1.0000
  S   S136      1.0  0.41679  0.29542  0.53020  1.0000
  H   H505      1.0  0.33527  0.32021  0.95802  1.0000
  Fe  Fe76      1.0  0.17833  0.38399  0.61153  1.0000
  S   S137      1.0  0.16546  0.35450  0.61193  1.0000
  S   S138      1.0  0.20990  0.39560  0.61607  1.0000
  Fe  Fe77      1.0  0.13943  0.39207  0.60966  1.0000
  S   S139      1.0  0.12420  0.36306  0.61032  1.0000
  S   S140      1.0  0.11976  0.41027  0.60810  1.0000
  Fe  Fe78      1.0  0.14422  0.35996  0.64172  1.0000
  S   S141      1.0  0.13608  0.34294  0.67972  1.0000
  Fe  Fe79      1.0  0.14703  0.36117  0.58037  1.0000
  S   S142      1.0  0.13967  0.34507  0.54374  1.0000
  S   S143      1.0  0.15805  0.38913  0.64288  1.0000
  S   S144      1.0  0.16126  0.39044  0.57803  1.0000
  Fe  Fe80      1.0  0.29402  0.35444  0.64381  1.0000
  S   S145      1.0  0.30931  0.38344  0.64002  1.0000
  S   S146      1.0  0.26245  0.34364  0.63987  1.0000
  Fe  Fe81      1.0  0.33072  0.34289  0.64919  1.0000
  S   S147      1.0  0.34864  0.37108  0.64580  1.0000
  S   S148      1.0  0.34683  0.32193  0.65554  1.0000
  Fe  Fe82      1.0  0.32634  0.37680  0.67353  1.0000
  S   S149      1.0  0.33382  0.39461  0.70835  1.0000
  Fe  Fe83      1.0  0.32992  0.37455  0.61278  1.0000
  S   S150      1.0  0.34168  0.38907  0.57359  1.0000
  S   S151      1.0  0.30958  0.34829  0.67898  1.0000
  S   S152      1.0  0.31347  0.34598  0.61446  1.0000
  Fe  Fe84      1.0  0.33034  0.37980  0.92283  1.0000
  S   S153      1.0  0.32559  0.40727  0.92202  1.0000
  C   C321      1.0  0.06462  0.47611  0.93314  1.0000
  Fe  Fe85      1.0  0.33303  0.37919  0.86184  1.0000
  S   S154      1.0  0.32880  0.40662  0.85749  1.0000
  S   S155      1.0  0.33520  0.36319  0.82566  1.0000
  Fe  Fe86      1.0  0.34905  0.41324  0.89034  1.0000
  S   S156      1.0  0.37544  0.43621  0.88480  1.0000
  Fe  Fe87      1.0  0.30574  0.39725  0.88936  1.0000
  S   S157      1.0  0.27676  0.40246  0.88329  1.0000
  S   S158      1.0  0.35483  0.38620  0.89275  1.0000
  S   S159      1.0  0.30907  0.36941  0.89217  1.0000
  Fe  Fe88      1.0  0.14591  0.36257  0.82905  1.0000
  S   S160      1.0  0.15202  0.33560  0.82862  1.0000
  S   S161      1.0  0.14325  0.37856  0.79158  1.0000
  Fe  Fe89      1.0  0.14439  0.36259  0.89011  1.0000
  S   S162      1.0  0.15010  0.33563  0.89296  1.0000
  C   C322      1.0  0.01780  0.37108  0.52010  1.0000
  Fe  Fe90      1.0  0.17236  0.34620  0.86051  1.0000
  S   S163      1.0  0.20185  0.34144  0.86366  1.0000
  Fe  Fe91      1.0  0.12911  0.32823  0.86105  1.0000
  H   H506      1.0  0.42588  0.43883  0.83102  1.0000
  S   S164      1.0  0.16759  0.37364  0.85898  1.0000
  S   S165      1.0  0.12208  0.35474  0.86003  1.0000
  C   C323      1.0  0.02993  0.43229  0.63099  1.0000
  S   S166      1.0  0.46154  0.43543  0.73358  1.0000
  H   H507      1.0  0.00724  0.39213  0.55995  1.0000
  H   H508      1.0  0.44559  0.32142  0.68391  1.0000
  H   H509      1.0  0.05402  0.46332  0.93000  1.0000
  S   S167      1.0  0.46017  0.46225  0.80011  1.0000
  S   S168      1.0  0.48785  0.44268  0.54843  1.0000
  S   S169      1.0  0.46576  0.46321  0.66395  1.0000
  C   C324      1.0  0.02430  0.44265  0.89715  1.0000
  H   H510      1.0  0.11878  0.30397  0.92075  1.0000
  H   H511      1.0  0.08084  0.35491  0.53324  1.0000
  H   H512      1.0  0.45114  0.42861  0.93037  1.0000
  H   H513      1.0  0.07385  0.48522  0.63020  1.0000
  H   H514      1.0  0.42254  0.43120  0.78430  1.0000
  H   H515      1.0  0.26987  0.39902  0.82736  1.0000
  H   H516      1.0  0.06946  0.44436  0.59164  1.0000
  H   H517      1.0  0.38411  0.41737  0.83706  1.0000
  C   C325      1.0  0.42163  0.45303  0.58351  1.0000
  N   N35       1.0  0.09767  0.40619  0.78920  1.0000
  C   C326      1.0  0.48281  0.44488  0.62833  1.0000
  H   H518      1.0  0.10415  0.38652  0.76400  1.0000
  C   C327      1.0  0.10339  0.38264  0.50457  1.0000
  H   H519      1.0  0.08552  0.47482  0.57497  1.0000
  H   H520      1.0  0.10336  0.38065  0.57158  1.0000
  H   H521      1.0  0.04766  0.26706  0.69958  1.0000
  H   H522      1.0  0.00218  0.45400  0.66473  1.0000
  N   N36       1.0  0.47416  0.32865  0.69733  1.0000
  C   C328      1.0  0.46736  0.46628  0.60975  1.0000
  S   S170      1.0  0.48949  0.44476  0.91224  1.0000
  H   H523      1.0  0.08379  0.29739  0.91933  1.0000
  H   H524      1.0  0.10686  0.36971  0.50096  1.0000
  C   C329      1.0  0.47623  0.34801  0.69313  1.0000
  S   S171      1.0  0.03181  0.46677  0.49723  1.0000
  C   C330      1.0  0.01439  0.44841  0.60052  1.0000
  H   H525      1.0  0.43009  0.44500  0.59390  1.0000
  H   H526      1.0  0.45965  0.47635  0.61246  1.0000
  C   C331      1.0  0.46828  0.45731  0.83129  1.0000
  H   H527      1.0  0.40040  0.41057  0.91598  1.0000
  C   C332      1.0  0.07951  0.44597  0.60793  1.0000
  H   H528      1.0  0.10451  0.30493  0.81165  1.0000
  H   H529      1.0  0.27803  0.36512  0.59291  1.0000
  C   C333      1.0  0.46325  0.46550  0.85376  1.0000
  H   H530      1.0  0.46781  0.46858  0.56716  1.0000
  H   H531      1.0  0.25114  0.36796  0.82832  1.0000
  H   H532      1.0  0.38349  0.25215  0.84005  1.0000
  H   H533      1.0  0.39112  0.45775  0.55899  1.0000
  H   H534      1.0  0.42120  0.45992  0.82322  1.0000
  C   C334      1.0  0.06809  0.28660  0.85591  1.0000
  H   H535      1.0  0.41223  0.46934  0.53996  1.0000
  H   H536      1.0  0.06485  0.28496  0.87692  1.0000
  C   C335      1.0  0.38789  0.44388  0.91314  1.0000
  C   C336      1.0  0.38058  0.43753  0.93846  1.0000
  H   H537      1.0  0.36253  0.30685  0.96867  1.0000
  C   C337      1.0  0.40889  0.45585  0.95766  1.0000
  H   H538      1.0  0.41783  0.45225  0.77666  1.0000
  C   C338      1.0  0.40577  0.45616  0.91015  1.0000
  H   H539      1.0  0.36678  0.42811  0.94100  1.0000
  Fe  Fe92      1.0  0.47494  0.45547  0.76296  1.0000
  C   C339      1.0  0.25558  0.38528  0.88040  1.0000
  C   C340      1.0  0.23900  0.38989  0.87287  1.0000
  C   C341      1.0  0.22227  0.37664  0.86849  1.0000
  C   C342      1.0  0.22196  0.35857  0.87146  1.0000
  C   C343      1.0  0.23845  0.35395  0.87940  1.0000
  C   C344      1.0  0.25512  0.36720  0.88404  1.0000
  H   H540      1.0  0.23913  0.40381  0.87011  1.0000
  H   H541      1.0  0.20975  0.38043  0.86230  1.0000
  H   H542      1.0  0.23835  0.34002  0.88185  1.0000
  H   H543      1.0  0.26762  0.36339  0.89021  1.0000
  C   C345      1.0  0.33416  0.38570  0.74086  1.0000
  C   C346      1.0  0.33903  0.39735  0.76160  1.0000
  C   C347      1.0  0.33925  0.39068  0.78771  1.0000
  C   C348      1.0  0.33477  0.37225  0.79327  1.0000
  C   C349      1.0  0.32991  0.36063  0.77257  1.0000
  C   C350      1.0  0.32949  0.36729  0.74652  1.0000
  H   H544      1.0  0.34259  0.41160  0.75741  1.0000
  H   H545      1.0  0.34306  0.39978  0.80345  1.0000
  H   H546      1.0  0.32625  0.34638  0.77680  1.0000
  H   H547      1.0  0.32552  0.35822  0.73081  1.0000
  C   C351      1.0  0.33732  0.37857  0.54309  1.0000
  C   C352      1.0  0.32838  0.36038  0.54191  1.0000
  C   C353      1.0  0.32535  0.35244  0.51736  1.0000
  C   C354      1.0  0.39094  0.44369  0.96066  1.0000
  C   C355      1.0  0.33972  0.38084  0.49485  1.0000
  C   C356      1.0  0.34302  0.38873  0.51943  1.0000
  H   H548      1.0  0.32401  0.35229  0.55982  1.0000
  H   H549      1.0  0.31857  0.33833  0.51670  1.0000
  C   C357      1.0  0.99606  0.26258  0.92502  1.0000
  H   H550      1.0  0.34993  0.40281  0.52002  1.0000
  C   C358      1.0  0.22438  0.38105  0.62270  1.0000
  C   C359      1.0  0.21849  0.36294  0.61752  1.0000
  C   C360      1.0  0.23028  0.35161  0.62297  1.0000
  C   C361      1.0  0.24813  0.35832  0.63341  1.0000
  C   C362      1.0  0.25412  0.37645  0.63850  1.0000
  C   C363      1.0  0.24228  0.38779  0.63309  1.0000
  H   H551      1.0  0.20498  0.35765  0.60894  1.0000
  H   H552      1.0  0.22559  0.33760  0.61891  1.0000
  H   H553      1.0  0.26773  0.38169  0.64695  1.0000
  H   H554      1.0  0.24693  0.40180  0.63715  1.0000
  C   C364      1.0  0.14055  0.35442  0.51126  1.0000
  C   C365      1.0  0.14781  0.37269  0.50539  1.0000
  H   H555      1.0  0.06188  0.46298  0.64163  1.0000
  N   N37       1.0  0.10071  0.31452  0.94666  1.0000
  S   S172      1.0  0.48788  0.47655  0.73140  1.0000
  C   C366      1.0  0.13387  0.34311  0.49070  1.0000
  H   H556      1.0  0.15307  0.38155  0.52097  1.0000
  H   H557      1.0  0.99620  0.46285  0.61913  1.0000
  C   C367      1.0  0.08323  0.30109  0.94032  1.0000
  H   H558      1.0  0.12817  0.32896  0.49504  1.0000
  C   C368      1.0  0.13713  0.35298  0.71072  1.0000
  C   C369      1.0  0.13994  0.37141  0.71271  1.0000
  C   C370      1.0  0.14172  0.37904  0.73758  1.0000
  C   C371      1.0  0.14071  0.36836  0.76073  1.0000
  C   C372      1.0  0.13768  0.34991  0.75879  1.0000
  C   C373      1.0  0.13585  0.34226  0.73391  1.0000
  H   H559      1.0  0.14062  0.37982  0.69515  1.0000
  H   H560      1.0  0.14401  0.39332  0.73881  1.0000
  H   H561      1.0  0.13660  0.34148  0.77644  1.0000
  H   H562      1.0  0.13355  0.32798  0.73265  1.0000
  C   C374      1.0  0.35015  0.31122  0.62652  1.0000
  C   C375      1.0  0.33734  0.31007  0.60640  1.0000
  C   C376      1.0  0.34128  0.30364  0.58197  1.0000
  C   C377      1.0  0.35788  0.29799  0.57770  1.0000
  C   C378      1.0  0.37033  0.29834  0.59817  1.0000
  C   C379      1.0  0.36645  0.30498  0.62260  1.0000
  H   H563      1.0  0.32438  0.31416  0.60963  1.0000
  H   H564      1.0  0.33149  0.30315  0.56630  1.0000
  H   H565      1.0  0.38315  0.29394  0.59496  1.0000
  H   H566      1.0  0.37635  0.30573  0.63819  1.0000
  C   C380      1.0  0.43710  0.34699  0.75718  1.0000
  C   C381      1.0  0.45518  0.34717  0.76577  1.0000
  C   C382      1.0  0.47032  0.36268  0.76197  1.0000
  C   C383      1.0  0.46758  0.37838  0.74988  1.0000
  C   C384      1.0  0.44932  0.37841  0.74206  1.0000
  C   C385      1.0  0.43421  0.36281  0.74565  1.0000
  H   H567      1.0  0.45757  0.33533  0.77533  1.0000
  H   H568      1.0  0.44697  0.39031  0.73259  1.0000
  H   H569      1.0  0.42029  0.36296  0.73906  1.0000
  C   C386      1.0  0.43969  0.27511  0.87683  1.0000
  C   C387      1.0  0.43105  0.28922  0.87875  1.0000
  C   C388      1.0  0.42557  0.29424  0.90370  1.0000
  C   C389      1.0  0.42810  0.28490  0.92696  1.0000
  C   C390      1.0  0.43614  0.27039  0.92498  1.0000
  C   C391      1.0  0.44218  0.26573  0.90008  1.0000
  H   H570      1.0  0.42917  0.29665  0.86109  1.0000
  H   H571      1.0  0.41954  0.30558  0.90499  1.0000
  H   H572      1.0  0.38166  0.41173  0.80316  1.0000
  C   C392      1.0  0.45496  0.27375  0.67426  1.0000
  C   C393      1.0  0.47035  0.27530  0.65628  1.0000
  C   C394      1.0  0.46865  0.27864  0.62935  1.0000
  C   C395      1.0  0.45123  0.27953  0.61939  1.0000
  C   C396      1.0  0.43545  0.27754  0.63712  1.0000
  C   C397      1.0  0.43740  0.27494  0.66464  1.0000
  H   H573      1.0  0.40123  0.43201  0.76792  1.0000
  H   H574      1.0  0.07995  0.40227  0.52117  1.0000
  H   H575      1.0  0.42191  0.27831  0.62972  1.0000
  H   H576      1.0  0.42534  0.27369  0.67829  1.0000
  H   H577      1.0  0.28660  0.40207  0.52656  1.0000
  H   H578      1.0  0.40713  0.44548  0.84870  1.0000
  C   C398      1.0  0.01989  0.35425  0.52857  1.0000
  H   H579      1.0  0.40292  0.41078  0.81938  1.0000
  H   H580      1.0  0.03393  0.35247  0.53150  1.0000
  C   C399      1.0  0.11180  0.43099  0.68981  1.0000
  C   C400      1.0  0.09615  0.42542  0.67407  1.0000
  C   C401      1.0  0.09859  0.41881  0.64908  1.0000
  C   C402      1.0  0.11663  0.41782  0.63980  1.0000
  C   C403      1.0  0.13215  0.42313  0.65575  1.0000
  C   C404      1.0  0.12973  0.42964  0.68072  1.0000
  H   H581      1.0  0.08218  0.42609  0.68125  1.0000
  H   H582      1.0  0.08645  0.41406  0.63721  1.0000
  H   H583      1.0  0.14615  0.42258  0.64863  1.0000
  H   H584      1.0  0.14185  0.43388  0.69287  1.0000
  H   H585      1.0  0.07039  0.30618  0.94334  1.0000
  C   C405      1.0  0.05828  0.28017  0.81120  1.0000
  H   H586      1.0  0.48206  0.30751  0.67743  1.0000
  S   S173      1.0  0.13917  0.37692  0.92716  1.0000
  H   H587      1.0  0.01453  0.39996  0.59160  1.0000
  H   H588      1.0  0.39172  0.46120  0.80113  1.0000
  C   C406      1.0  0.01914  0.44996  0.87362  1.0000
  N   N38       1.0  0.19548  0.35918  0.69970  1.0000
  C   C407      1.0  0.18530  0.34007  0.70035  1.0000
  C   C408      1.0  0.21607  0.36110  0.69511  1.0000
  C   C409      1.0  0.19199  0.36684  0.72511  1.0000
  C   C410      1.0  0.18852  0.36871  0.67812  1.0000
  H   H589      1.0  0.16974  0.33812  0.70403  1.0000
  H   H590      1.0  0.19030  0.33237  0.71621  1.0000
  H   H591      1.0  0.18722  0.33396  0.68123  1.0000
  H   H592      1.0  0.22196  0.35443  0.71129  1.0000
  H   H593      1.0  0.21902  0.35500  0.67641  1.0000
  H   H594      1.0  0.22414  0.37539  0.69349  1.0000
  H   H595      1.0  0.19927  0.38131  0.72522  1.0000
  H   H596      1.0  0.19694  0.35995  0.74196  1.0000
  H   H597      1.0  0.17655  0.36555  0.72909  1.0000
  H   H598      1.0  0.19610  0.38313  0.67649  1.0000
  H   H599      1.0  0.17311  0.36777  0.68122  1.0000
  H   H600      1.0  0.38339  0.44392  0.48254  1.0000
  H   H601      1.0  0.11598  0.34107  0.93345  1.0000
  H   H602      1.0  0.25235  0.37859  0.58000  1.0000
  H   H603      1.0  0.30572  0.39302  0.53654  1.0000
  H   H604      1.0  0.09056  0.42926  0.77247  1.0000
  H   H605      1.0  0.10511  0.48034  0.64187  1.0000
  H   H606      1.0  0.09333  0.38459  0.48942  1.0000
  C   C411      1.0  0.48438  0.32535  0.72086  1.0000
  H   H607      1.0  0.10476  0.40576  0.82996  1.0000
  H   H608      1.0  0.03898  0.26523  0.73335  1.0000
  H   H609      1.0  0.07182  0.40044  0.81344  1.0000
  C   C412      1.0  0.41066  0.41053  0.89918  1.0000
  C   C413      1.0  0.43674  0.42769  0.92298  1.0000
  H   H610      1.0  0.37512  0.44091  0.79268  1.0000
  H   H611      1.0  0.45439  0.47471  0.85189  1.0000
  H   H612      1.0  0.43842  0.26322  0.94268  1.0000
  C   C414      1.0  0.42911  0.39559  0.92607  1.0000
  H   H613      1.0  0.44899  0.25489  0.89885  1.0000
  C   C415      1.0  0.47267  0.45776  0.63204  1.0000
  H   H614      1.0  0.19045  0.36301  0.65872  1.0000
  N   N39       1.0  0.41391  0.44465  0.55914  1.0000
  C   C416      1.0  0.34680  0.31600  0.48664  1.0000
  H   H615      1.0  0.09583  0.40374  0.74718  1.0000
  H   H616      1.0  0.37777  0.44654  0.82663  1.0000
  S   S174      1.0  0.10416  0.30391  0.86928  1.0000
  C   C417      1.0  0.28778  0.40024  0.57979  1.0000
  H   H617      1.0  0.33136  0.31383  0.48322  1.0000
  H   H618      1.0  0.48097  0.28031  0.61601  1.0000
  C   C418      1.0  0.02694  0.43770  0.60504  1.0000
  H   H619      1.0  0.46939  0.35100  0.67488  1.0000
  H   H620      1.0  0.05894  0.47036  0.60860  1.0000
  N   N40       1.0  0.08601  0.46480  0.61495  1.0000
  C   C419      1.0  0.09965  0.46629  0.63620  1.0000
  H   H621      1.0  0.00858  0.45756  0.87448  1.0000
  Fe  Fe93      1.0  0.47790  0.45528  0.70205  1.0000
  C   C420      1.0  0.09539  0.47572  0.59147  1.0000
  H   H622      1.0  0.13082  0.31696  0.94649  1.0000
  C   C421      1.0  0.48138  0.45018  0.88135  1.0000
  S   S175      1.0  0.04174  0.26887  0.78871  1.0000
  C   C422      1.0  0.00391  0.33961  0.53358  1.0000
  H   H623      1.0  0.44342  0.39585  0.93345  1.0000
  H   H624      1.0  0.02097  0.28927  0.67953  1.0000
  H   H625      1.0  0.10322  0.32803  0.90850  1.0000
  S   S176      1.0  0.99691  0.28553  0.79713  1.0000
  C   C423      1.0  0.10910  0.38045  0.55100  1.0000
  Fe  Fe94      1.0  0.48445  0.45837  0.94979  1.0000
  H   H626      1.0  0.48395  0.27439  0.66335  1.0000
  N   N41       1.0  0.42987  0.41130  0.90841  1.0000
  N   N42       1.0  0.03866  0.28982  0.71275  1.0000
  C   C424      1.0  0.02436  0.29367  0.73149  1.0000
  C   C425      1.0  0.03547  0.29600  0.68584  1.0000
  C   C426      1.0  0.03690  0.27040  0.71325  1.0000
  C   C427      1.0  0.05790  0.29918  0.72053  1.0000
  H   H627      1.0  0.02656  0.28945  0.75203  1.0000
  H   H628      1.0  0.00969  0.28655  0.72667  1.0000
  H   H629      1.0  0.02504  0.30815  0.73133  1.0000
  H   H630      1.0  0.12250  0.39127  0.54874  1.0000
  H   H631      1.0  0.03680  0.31062  0.68467  1.0000
  H   H632      1.0  0.04588  0.29316  0.67109  1.0000
  H   H633      1.0  0.11290  0.36753  0.54886  1.0000
  H   H634      1.0  0.45774  0.41225  0.89188  1.0000
  Fe  Fe95      1.0  0.02371  0.44172  0.96918  1.0000
  H   H635      1.0  0.06066  0.29468  0.74078  1.0000
  H   H636      1.0  0.05975  0.31387  0.72060  1.0000
  H   H637      1.0  0.06913  0.29665  0.70686  1.0000
  H   H638      1.0  0.28000  0.35760  0.56018  1.0000
  H   H639      1.0  0.43875  0.43504  0.55062  1.0000
  H   H640      1.0  0.15342  0.34694  0.94556  1.0000
  H   H641      1.0  0.11627  0.29481  0.95396  1.0000
  S   S177      1.0  0.05163  0.43500  0.97355  1.0000
  C   C428      1.0  0.09960  0.31892  0.97469  1.0000
  N   N43       1.0  0.06650  0.48867  0.91011  1.0000
  H   H642      1.0  0.44401  0.42319  0.87184  1.0000
  H   H643      1.0  0.49145  0.35562  0.69146  1.0000
  H   H644      1.0  0.38907  0.42758  0.57921  1.0000
  H   H645      1.0  0.00982  0.25982  0.92688  1.0000
  S   S178      1.0  0.05124  0.43298  0.81675  1.0000
  H   H646      1.0  0.06842  0.39950  0.77876  1.0000
  S   S179      1.0  0.39723  0.26113  0.57110  1.0000
  H   H647      1.0  0.37884  0.25171  0.87511  1.0000
  H   H648      1.0  0.28099  0.39721  0.59997  1.0000
  H   H649      1.0  0.34808  0.31183  0.50751  1.0000
  C   C429      1.0  0.25759  0.36640  0.80866  1.0000
  H   H650      1.0  0.26691  0.40116  0.79261  1.0000
  H   H651      1.0  0.24785  0.36928  0.79372  1.0000
  H   H652      1.0  0.25777  0.35215  0.80755  1.0000
  C   C430      1.0  0.11737  0.30725  0.94180  1.0000
  H   H653      1.0  0.30049  0.37105  0.57505  1.0000
  S   S180      1.0  0.48774  0.39680  0.74277  1.0000
  H   H654      1.0  0.07365  0.48944  0.86849  1.0000
  C   C431      1.0  0.33094  0.36262  0.49370  1.0000
  H   H655      1.0  0.25397  0.37134  0.54709  1.0000
  N   N44       1.0  0.36350  0.32054  0.73258  1.0000
  C   C432      1.0  0.35157  0.30289  0.72600  1.0000
  C   C433      1.0  0.35286  0.33421  0.72844  1.0000
  C   C434      1.0  0.38101  0.32503  0.71538  1.0000
  C   C435      1.0  0.36856  0.32001  0.76050  1.0000
  H   H656      1.0  0.35923  0.29227  0.72878  1.0000
  H   H657      1.0  0.34746  0.30284  0.70506  1.0000
  H   H658      1.0  0.33822  0.29904  0.73857  1.0000
  H   H659      1.0  0.34912  0.33526  0.70748  1.0000
  H   H660      1.0  0.33933  0.33097  0.74060  1.0000
  H   H661      1.0  0.36128  0.34764  0.73375  1.0000
  H   H662      1.0  0.39043  0.33821  0.71997  1.0000
  H   H663      1.0  0.37767  0.32559  0.69417  1.0000
  H   H664      1.0  0.38939  0.31498  0.71805  1.0000
  H   H665      1.0  0.37644  0.30969  0.76442  1.0000
  H   H666      1.0  0.35572  0.31700  0.77410  1.0000
  H   H667      1.0  0.37795  0.33301  0.76596  1.0000
  N   N45       1.0  0.38398  0.35408  0.56061  1.0000
  C   C436      1.0  0.37307  0.34445  0.53918  1.0000
  C   C437      1.0  0.39901  0.34529  0.56778  1.0000
  C   C438      1.0  0.37112  0.35376  0.58390  1.0000
  C   C439      1.0  0.39263  0.37278  0.55157  1.0000
  H   H668      1.0  0.36225  0.35120  0.53232  1.0000
  H   H669      1.0  0.36546  0.33059  0.54583  1.0000
  H   H670      1.0  0.38251  0.34358  0.52182  1.0000
  H   H671      1.0  0.40724  0.35186  0.58439  1.0000
  H   H672      1.0  0.39285  0.33102  0.57405  1.0000
  H   H673      1.0  0.40921  0.34554  0.55083  1.0000
  H   H674      1.0  0.35915  0.35962  0.57907  1.0000
  H   H675      1.0  0.37869  0.36131  0.60027  1.0000
  H   H676      1.0  0.36480  0.33993  0.59171  1.0000
  H   H677      1.0  0.40122  0.38035  0.56712  1.0000
  H   H678      1.0  0.38149  0.37977  0.54654  1.0000
  H   H679      1.0  0.40213  0.37356  0.53366  1.0000
  N   N46       1.0  0.40073  0.43731  0.80930  1.0000
  C   C440      1.0  0.38568  0.44691  0.80729  1.0000
  C   C441      1.0  0.41096  0.43819  0.78339  1.0000
  C   C442      1.0  0.39201  0.41846  0.81760  1.0000
  C   C443      1.0  0.41430  0.44570  0.82898  1.0000
  C   C444      1.0  0.09931  0.42558  0.78815  1.0000
  H   H680      1.0  0.10822  0.38718  0.81194  1.0000
  H   H681      1.0  0.43004  0.47153  0.92984  1.0000
  C   C445      1.0  0.05399  0.27895  0.83838  1.0000
  H   H682      1.0  0.29908  0.38564  0.77436  1.0000
  C   C446      1.0  0.27597  0.39709  0.80757  1.0000
  H   H683      1.0  0.10341  0.41144  0.53269  1.0000
  H   H684      1.0  0.30402  0.38250  0.82217  1.0000
  C   C447      1.0  0.04591  0.42998  0.87088  1.0000
  H   H685      1.0  0.00582  0.32681  0.54020  1.0000
  H   H686      1.0  0.05613  0.42203  0.86996  1.0000
  H   H687      1.0  0.48315  0.43850  0.81724  1.0000
  C   C448      1.0  0.47194  0.46187  0.58405  1.0000
  S   S181      1.0  0.03465  0.45901  0.74915  1.0000
  H   H688      1.0  0.11675  0.39338  0.50105  1.0000
  S   S182      1.0  0.47412  0.48323  0.94868  1.0000
  N   N47       1.0  0.27689  0.37842  0.80476  1.0000
  H   H689      1.0  0.07573  0.38182  0.79572  1.0000
  C   C449      1.0  0.03788  0.43274  0.89561  1.0000
  H   H690      1.0  0.43848  0.39921  0.87407  1.0000
  H   H691      1.0  0.25593  0.39452  0.55278  1.0000
  H   H692      1.0  0.39517  0.42016  0.54777  1.0000
  C   C450      1.0  0.41632  0.46199  0.93231  1.0000
  C   C451      1.0  0.07754  0.39650  0.79454  1.0000
  C   C452      1.0  0.28474  0.37638  0.77813  1.0000
  H   H693      1.0  0.28411  0.37559  0.84507  1.0000
  H   H694      1.0  0.27553  0.37932  0.76247  1.0000
  H   H695      1.0  0.41149  0.46128  0.89070  1.0000
  C   C453      1.0  0.08638  0.29604  0.84642  1.0000
  H   H696      1.0  0.48431  0.36250  0.76828  1.0000
  H   H697      1.0  0.08564  0.47661  0.88867  1.0000
  C   C454      1.0  0.44305  0.41145  0.88551  1.0000
  H   H698      1.0  0.06712  0.36936  0.52066  1.0000
  H   H699      1.0  0.04196  0.42694  0.91342  1.0000
  H   H700      1.0  0.40490  0.39828  0.88820  1.0000
  C   C455      1.0  0.28933  0.37384  0.82476  1.0000
  H   H701      1.0  0.29028  0.35978  0.82364  1.0000
  H   H702      1.0  0.28628  0.36260  0.77568  1.0000
  H   H703      1.0  0.00762  0.34431  0.96017  1.0000
  C   C456      1.0  0.00945  0.44971  0.64820  1.0000
  H   H704      1.0  0.09426  0.43006  0.80706  1.0000
  S   S183      1.0  0.03837  0.38942  0.51507  1.0000
  C   C457      1.0  0.09052  0.40007  0.53540  1.0000
  C   C458      1.0  0.09043  0.29788  0.81919  1.0000
  C   C459      1.0  0.04076  0.43728  0.84733  1.0000
  Fe  Fe96      1.0  0.02121  0.44645  0.53064  1.0000
  H   H705      1.0  0.47407  0.32276  0.65615  1.0000
  H   H706      1.0  0.02265  0.26289  0.70730  1.0000
  C   C460      1.0  0.10452  0.40096  0.76365  1.0000
  C   C461      1.0  0.46984  0.46202  0.87867  1.0000
  C   C462      1.0  0.10929  0.40177  0.81044  1.0000
  S   S184      1.0  0.00927  0.42480  0.50266  1.0000
  H   H707      1.0  0.43117  0.46658  0.57911  1.0000
  H   H708      1.0  0.11423  0.43339  0.78360  1.0000
  H   H709      1.0  0.11948  0.40851  0.75862  1.0000
  S   S185      1.0  0.47322  0.48157  0.51114  1.0000
  H   H710      1.0  0.42450  0.43655  0.52266  1.0000
  H   H711      1.0  0.48775  0.49735  0.82076  1.0000
  C   C463      1.0  0.40125  0.42678  0.56580  1.0000
  H   H712      1.0  0.08007  0.29059  0.78077  1.0000
  N   N48       1.0  0.09520  0.38284  0.53158  1.0000
  H   H713      1.0  0.42712  0.42822  0.94030  1.0000
  C   C464      1.0  0.07652  0.28972  0.80170  1.0000
  C   C465      1.0  0.02117  0.43826  0.65273  1.0000
  H   H714      1.0  0.42402  0.38293  0.91574  1.0000
  S   S186      1.0  0.42272  0.29291  0.95800  1.0000
  C   C466      1.0  0.10268  0.33085  0.92980  1.0000
  H   H715      1.0  0.43923  0.45627  0.53523  1.0000
  H   H716      1.0  0.07088  0.36813  0.55534  1.0000
  C   C467      1.0  0.42976  0.44297  0.54122  1.0000
  C   C468      1.0  0.28496  0.36908  0.57300  1.0000
  H   H717      1.0  0.12463  0.40857  0.80666  1.0000
  H   H718      1.0  0.49497  0.43027  0.60001  1.0000
  H   H719      1.0  0.10792  0.47124  0.58403  1.0000
  H   H720      1.0  0.09291  0.45844  0.65432  1.0000
  H   H721      1.0  0.07834  0.47294  0.93730  1.0000
  H   H722      1.0  0.47886  0.33049  0.73882  1.0000
  Fe  Fe97      1.0  0.05897  0.45892  0.50041  1.0000
  H   H723      1.0  0.39681  0.44985  0.52763  1.0000
  S   S187      1.0  0.38592  0.26063  0.50908  1.0000
  C   C469      1.0  0.04810  0.49300  0.90638  1.0000
  C   C470      1.0  0.14830  0.37953  0.47922  1.0000
  C   C471      1.0  0.99943  0.37297  0.51641  1.0000
  H   H724      1.0  0.09167  0.44057  0.60147  1.0000
  H   H725      1.0  0.43784  0.43986  0.91020  1.0000
  H   H726      1.0  0.48280  0.31080  0.72474  1.0000
  S   S188      1.0  0.08615  0.48136  0.49984  1.0000
  H   H727      1.0  0.30344  0.40280  0.58177  1.0000
  N   N49       1.0  0.28062  0.38544  0.56218  1.0000
  H   H728      1.0  0.28481  0.41285  0.57225  1.0000
  H   H729      1.0  0.09063  0.33699  0.93329  1.0000
  H   H730      1.0  0.03354  0.43277  0.58859  1.0000
  H   H731      1.0  0.03663  0.48079  0.90314  1.0000
  C   C472      1.0  0.02742  0.44745  0.84890  1.0000
  H   H732      1.0  0.36570  0.33978  0.96842  1.0000
  C   C473      1.0  0.48613  0.44181  0.85895  1.0000
  Fe  Fe98      1.0  0.48841  0.42638  0.73572  1.0000
  H   H733      1.0  0.04007  0.27150  0.84596  1.0000
  H   H734      1.0  0.02316  0.45303  0.83101  1.0000
  H   H735      1.0  0.41072  0.42225  0.88593  1.0000
  H   H736      1.0  0.41011  0.45448  0.59760  1.0000
  H   H737      1.0  0.08435  0.40063  0.55564  1.0000
  S   S189      1.0  0.01381  0.44667  0.92791  1.0000
  H   H738      1.0  0.45167  0.30478  0.70470  1.0000
  H   H739      1.0  0.40904  0.41801  0.57583  1.0000
  C   C474      1.0  0.48727  0.44038  0.60262  1.0000
  Fe  Fe99      1.0  0.48347  0.45684  0.51004  1.0000
  H   H740      1.0  0.06105  0.46798  0.88213  1.0000
  H   H741      1.0  0.44726  0.32420  0.71881  1.0000
  C   C475      1.0  0.14309  0.36886  0.95903  1.0000
  H   H742      1.0  0.07205  0.43747  0.62511  1.0000
  C   C476      1.0  0.06948  0.47115  0.62419  1.0000
  S   S190      1.0  0.43174  0.25236  0.77772  1.0000
  H   H743      1.0  0.04348  0.49919  0.92408  1.0000
  H   H744      1.0  0.41933  0.39516  0.94358  1.0000
  S   S191      1.0  0.42871  0.25788  0.52298  1.0000
  H   H745      1.0  0.11207  0.46113  0.63026  1.0000
  C   C477      1.0  0.07200  0.48035  0.88631  1.0000
  S   S192      1.0  0.33013  0.36358  0.96096  1.0000
  C   C478      1.0  0.48183  0.44879  0.58035  1.0000
  H   H746      1.0  0.99749  0.38567  0.50948  1.0000
  H   H747      1.0  0.19575  0.35123  0.48996  1.0000
  H   H748      1.0  0.37909  0.30562  0.49317  1.0000
  Fe  Fe100     1.0  0.00982  0.26216  0.79731  1.0000
  C   C479      1.0  0.47960  0.44532  0.83410  1.0000
  C   C480      1.0  0.00413  0.40033  0.57619  1.0000
  H   H749      1.0  0.99991  0.26801  0.88284  1.0000
  H   H750      1.0  0.08123  0.28860  0.95273  1.0000
  C   C481      1.0  0.14960  0.35350  0.96252  1.0000
  H   H751      1.0  0.48695  0.43817  0.64528  1.0000
  H   H752      1.0  0.35323  0.33062  0.48416  1.0000
  H   H753      1.0  0.10047  0.49004  0.59601  1.0000
  H   H754      1.0  0.40279  0.25910  0.86151  1.0000
  C   C482      1.0  0.00600  0.45466  0.62228  1.0000
  H   H755      1.0  0.01045  0.31497  0.97619  1.0000
  H   H756      1.0  0.05981  0.48169  0.95126  1.0000
  S   S193      1.0  0.00688  0.45244  0.56847  1.0000
  C   C483      1.0  0.48224  0.32178  0.67403  1.0000
  H   H757      1.0  0.18719  0.36988  0.47863  1.0000
  H   H758      1.0  0.00692  0.41427  0.56798  1.0000
  H   H759      1.0  0.00833  0.32123  0.92739  1.0000
  S   S194      1.0  0.42230  0.46506  0.48271  1.0000
  S   S195      1.0  0.46335  0.44415  0.47947  1.0000
  Fe  Fe101     1.0  0.45429  0.46962  0.47870  1.0000
  H   H760      1.0  0.35080  0.39892  0.97753  1.0000
  H   H761      1.0  0.49486  0.43248  0.86083  1.0000
  H   H762      1.0  0.46324  0.24961  0.59763  1.0000
  Fe  Fe102     1.0  0.06632  0.61616  0.24412  1.0000
  S   S196      1.0  0.03502  0.60367  0.24897  1.0000
  S   S197      1.0  0.08519  0.62337  0.27901  1.0000
  Fe  Fe103     1.0  0.06575  0.61507  0.18316  1.0000
  S   S198      1.0  0.03442  0.60244  0.18408  1.0000
  S   S199      1.0  0.08378  0.62303  0.14509  1.0000
  Fe  Fe104     1.0  0.03268  0.62205  0.21500  1.0000
  S   S200      1.0  0.01086  0.63798  0.21380  1.0000
  Fe  Fe105     1.0  0.04015  0.58533  0.21778  1.0000
  S   S201      1.0  0.02583  0.55594  0.22342  1.0000
  S   S202      1.0  0.06370  0.63599  0.21197  1.0000
  S   S203      1.0  0.07177  0.59656  0.21499  1.0000
  Fe  Fe106     1.0  0.10847  0.63260  0.45921  1.0000
  S   S204      1.0  0.07859  0.63572  0.46049  1.0000
  H   H763      1.0  0.01841  0.67804  0.36192  1.0000
  H   H764      1.0  0.06063  0.73983  0.20128  1.0000
  H   H765      1.0  0.07279  0.57138  0.33158  1.0000
  H   H766      1.0  0.13000  0.70229  0.32033  1.0000
  Fe  Fe107     1.0  0.07283  0.61246  0.43369  1.0000
  S   S205      1.0  0.05374  0.61098  0.39873  1.0000
  H   H767      1.0  0.14159  0.70148  0.02118  1.0000
  S   S206      1.0  0.05145  0.60851  0.03077  1.0000
  S   S207      1.0  0.10299  0.61016  0.43088  1.0000
  H   H768      1.0  0.02724  0.66684  0.10231  1.0000
  S   S208      1.0  0.17772  0.73291  0.40939  1.0000
  N   N50       1.0  0.03514  0.66005  0.14101  1.0000
  H   H769      1.0  0.02217  0.63409  0.15881  1.0000
  S   S209      1.0  0.06413  0.59197  0.46743  1.0000
  S   S210      1.0  0.03358  0.72106  0.11644  1.0000
  H   H770      1.0  0.08469  0.54280  0.29702  1.0000
  H   H771      1.0  0.11975  0.68502  0.43830  1.0000
  S   S211      1.0  0.02062  0.69049  0.30781  1.0000
  H   H772      1.0  0.10439  0.56977  0.27266  1.0000
  N   N51       1.0  0.07643  0.56725  0.29016  1.0000
  C   C484      1.0  0.00025  0.66282  0.24398  1.0000
  H   H773      1.0  0.15863  0.70516  0.99377  1.0000
  C   C485      1.0  0.09103  0.57363  0.26862  1.0000
  H   H774      1.0  0.06100  0.54234  0.30914  1.0000
  C   C486      1.0  0.16161  0.71395  0.34737  1.0000
  C   C487      1.0  0.02137  0.63734  0.38552  1.0000
  C   C488      1.0  0.14569  0.67691  0.44303  1.0000
  C   C489      1.0  0.13509  0.68908  0.43595  1.0000
  C   C490      1.0  0.14451  0.70663  0.42621  1.0000
  C   C491      1.0  0.16449  0.71184  0.42310  1.0000
  C   C492      1.0  0.17477  0.69951  0.42981  1.0000
  C   C493      1.0  0.16553  0.68241  0.44006  1.0000
  C   C494      1.0  0.04119  0.65656  0.35161  1.0000
  H   H775      1.0  0.13634  0.71594  0.42078  1.0000
  H   H776      1.0  0.19012  0.70322  0.42728  1.0000
  H   H777      1.0  0.08556  0.53841  0.21019  1.0000
  H   H778      1.0  0.02910  0.74867  0.05430  1.0000
  C   C495      1.0  0.01896  0.64408  0.14464  1.0000
  H   H779      1.0  0.00758  0.72180  0.45953  1.0000
  H   H780      1.0  0.04235  0.66758  0.33654  1.0000
  H   H781      1.0  0.17628  0.72222  0.35026  1.0000
  H   H782      1.0  0.07798  0.50673  0.43489  1.0000
  H   H783      1.0  0.08602  0.56803  0.24949  1.0000
  C   C496      1.0  0.07186  0.54758  0.29291  1.0000
  C   C497      1.0  0.05214  0.65469  0.13114  1.0000
  C   C498      1.0  0.07446  0.61916  0.11346  1.0000
  C   C499      1.0  0.05543  0.61032  0.11027  1.0000
  C   C500      1.0  0.04854  0.60741  0.08480  1.0000
  C   C501      1.0  0.06059  0.61322  0.06230  1.0000
  C   C502      1.0  0.07956  0.62225  0.06544  1.0000
  C   C503      1.0  0.08646  0.62516  0.09093  1.0000
  H   H784      1.0  0.04603  0.60561  0.12737  1.0000
  H   H785      1.0  0.03382  0.60047  0.08252  1.0000
  H   H786      1.0  0.08894  0.62694  0.04827  1.0000
  H   H787      1.0  0.10117  0.63210  0.09323  1.0000
  C   C504      1.0  0.07610  0.62047  0.31217  1.0000
  C   C505      1.0  0.08876  0.62462  0.33268  1.0000
  C   C506      1.0  0.08219  0.62159  0.35929  1.0000
  C   C507      1.0  0.06285  0.61436  0.36563  1.0000
  C   C508      1.0  0.05021  0.61014  0.34512  1.0000
  C   C509      1.0  0.05676  0.61327  0.31855  1.0000
  H   H788      1.0  0.10377  0.63010  0.32797  1.0000
  H   H789      1.0  0.09208  0.62493  0.37489  1.0000
  H   H790      1.0  0.03525  0.60435  0.34977  1.0000
  H   H791      1.0  0.04682  0.61003  0.30307  1.0000
  C   C510      1.0  0.01351  0.65279  0.23962  1.0000
  C   C511      1.0  0.02894  0.65471  0.25586  1.0000
  C   C512      1.0  0.03113  0.66661  0.27636  1.0000
  C   C513      1.0  0.01772  0.67639  0.28108  1.0000
  H   H792      1.0  0.01775  0.67728  0.12877  1.0000
  H   H793      1.0  0.01067  0.51591  0.19564  1.0000
  H   H794      1.0  0.03921  0.64701  0.25271  1.0000
  H   H795      1.0  0.04322  0.66810  0.28864  1.0000
  H   H796      1.0  0.12049  0.72121  0.32551  1.0000
  H   H797      1.0  0.00737  0.63351  0.39656  1.0000
  C   C514      1.0  0.06393  0.51769  0.23074  1.0000
  C   C515      1.0  0.07112  0.53462  0.21845  1.0000
  C   C516      1.0  0.05951  0.54648  0.21611  1.0000
  C   C517      1.0  0.04078  0.54154  0.22646  1.0000
  C   C518      1.0  0.03372  0.52474  0.23918  1.0000
  C   C519      1.0  0.04528  0.51284  0.24136  1.0000
  H   H798      1.0  0.00598  0.64750  0.15277  1.0000
  H   H799      1.0  0.06494  0.55924  0.20576  1.0000
  H   H800      1.0  0.01927  0.52093  0.24746  1.0000
  C   C520      1.0  0.00775  0.64448  0.34521  1.0000
  N   N52       1.0  0.15290  0.72905  0.00858  1.0000
  C   C521      1.0  0.08376  0.57500  0.31511  1.0000
  H   H801      1.0  0.08824  0.58982  0.31317  1.0000
  C   C522      1.0  0.16810  0.73188  0.02774  1.0000
  Fe  Fe108     1.0  0.99759  0.70415  0.31793  1.0000
  N   N53       1.0  0.08358  0.56557  0.05116  1.0000
  C   C523      1.0  0.06821  0.56733  0.03380  1.0000
  C   C524      1.0  0.08978  0.58195  0.06602  1.0000
  C   C525      1.0  0.09985  0.56290  0.03502  1.0000
  C   C526      1.0  0.07645  0.55009  0.06982  1.0000
  H   H802      1.0  0.06320  0.55525  0.02216  1.0000
  H   H803      1.0  0.07304  0.57886  0.01946  1.0000
  H   H804      1.0  0.05577  0.56961  0.04526  1.0000
  H   H805      1.0  0.07784  0.58446  0.07833  1.0000
  H   H806      1.0  0.10131  0.58114  0.07946  1.0000
  H   H807      1.0  0.09528  0.59386  0.05246  1.0000
  H   H808      1.0  0.11197  0.56210  0.04734  1.0000
  H   H809      1.0  0.10515  0.57399  0.01997  1.0000
  H   H810      1.0  0.09585  0.55035  0.02420  1.0000
  H   H811      1.0  0.08771  0.54833  0.08318  1.0000
  H   H812      1.0  0.07163  0.53750  0.05917  1.0000
  H   H813      1.0  0.06420  0.55172  0.08235  1.0000
  H   H814      1.0  0.03986  0.51977  0.14950  1.0000
  H   H815      1.0  0.15588  0.70777  0.36707  1.0000
  H   H816      1.0  0.04233  0.68504  0.11850  1.0000
  H   H817      1.0  0.16275  0.70298  0.33434  1.0000
  H   H818      1.0  0.08859  0.50945  0.38770  1.0000
  Fe  Fe109     1.0  0.09461  0.59112  0.46657  1.0000
  H   H819      1.0  0.00647  0.52000  0.16178  1.0000
  H   H820      1.0  0.15717  0.73645  0.46105  1.0000
  H   H821      1.0  0.17389  0.67324  0.44550  1.0000
  H   H822      1.0  0.03255  0.64171  0.40007  1.0000
  C   C527      1.0  0.15744  0.73249  0.31001  1.0000
  H   H823      1.0  0.06470  0.66635  0.12822  1.0000
  C   C528      1.0  0.13657  0.73491  0.01974  1.0000
  H   H824      1.0  0.05607  0.64507  0.14527  1.0000
  Fe  Fe110     1.0  0.00467  0.72448  0.10470  1.0000
  H   H825      1.0  0.05428  0.50437  0.40015  1.0000
  H   H826      1.0  0.01068  0.63281  0.33529  1.0000
  C   C529      1.0  0.00226  0.67452  0.26485  1.0000
  H   H827      1.0  0.02378  0.62506  0.37695  1.0000
  H   H828      1.0  0.05304  0.56712  0.26535  1.0000
  H   H829      1.0  0.04971  0.64809  0.11196  1.0000
  C   C530      1.0  0.99790  0.73031  0.46033  1.0000
  H   H830      1.0  0.09465  0.58846  0.26590  1.0000
  H   H831      1.0  0.05243  0.66116  0.36596  1.0000
  H   H832      1.0  0.06318  0.74418  0.23564  1.0000
  H   H833      1.0  0.06604  0.54136  0.27453  1.0000
  H   H834      1.0  0.06208  0.58755  0.28125  1.0000
  H   H835      1.0  0.04455  0.64518  0.34140  1.0000
  H   H836      1.0  0.02205  0.71211  0.20781  1.0000
  H   H837      1.0  0.18070  0.72768  0.01991  1.0000
  H   H838      1.0  0.12500  0.73337  0.00556  1.0000
  C   C531      1.0  0.00626  0.50926  0.17694  1.0000
  H   H839      1.0  0.01132  0.73369  0.25262  1.0000
  S   S212      1.0  0.13578  0.65517  0.45747  1.0000
  H   H840      1.0  0.07422  0.72889  0.12196  1.0000
  C   C532      1.0  0.05005  0.73971  0.12883  1.0000
  C   C533      1.0  0.01789  0.66712  0.37696  1.0000
  H   H841      1.0  0.02868  0.73023  0.18347  1.0000
  H   H842      1.0  0.05084  0.68095  0.16443  1.0000
  H   H843      1.0  0.13504  0.70727  0.98897  1.0000
  C   C534      1.0  0.03905  0.66858  0.16654  1.0000
  H   H844      1.0  0.09640  0.57048  0.32103  1.0000
  C   C535      1.0  0.03041  0.67282  0.12179  1.0000
  H   H845      1.0  0.03447  0.74030  0.26556  1.0000
  S   S213      1.0  0.00854  0.73236  0.32941  1.0000
  C   C536      1.0  0.13004  0.71340  0.33369  1.0000
  H   H846      1.0  0.14279  0.73401  0.37400  1.0000
  N   N54       1.0  0.03435  0.73774  0.22342  1.0000
  H   H847      1.0  0.14859  0.74072  0.30103  1.0000
  H   H848      1.0  0.04369  0.51567  0.18351  1.0000
  N   N55       1.0  0.02205  0.65138  0.36483  1.0000
  H   H849      1.0  0.17206  0.74127  0.31127  1.0000
  H   H850      1.0  0.04778  0.56855  0.29988  1.0000
  C   C537      1.0  0.05906  0.57283  0.28394  1.0000
  H   H851      1.0  0.01542  0.63741  0.12574  1.0000
  H   H852      1.0  0.02836  0.67261  0.39194  1.0000
  S   S214      1.0  0.10020  0.60934  0.99373  1.0000
  C   C538      1.0  0.08754  0.50329  0.98731  1.0000
  C   C539      1.0  0.06946  0.74011  0.12902  1.0000
  H   H853      1.0  0.12365  0.70733  0.35317  1.0000
  H   H854      1.0  0.02628  0.67216  0.17507  1.0000
  C   C540      1.0  0.05400  0.73573  0.22142  1.0000
  C   C541      1.0  0.14677  0.70991  0.00293  1.0000
  N   N56       1.0  0.14947  0.72478  0.33626  1.0000
  H   H855      1.0  0.13054  0.72712  0.03825  1.0000
  Fe  Fe111     1.0  0.07014  0.61158  0.99332  1.0000
  C   C542      1.0  0.07267  0.51191  0.98796  1.0000
  H   H856      1.0  0.17300  0.74618  0.03254  1.0000
  C   C543      1.0  0.02607  0.73214  0.25035  1.0000
  H   H857      1.0  0.05438  0.72166  0.22565  1.0000
  H   H858      1.0  0.04310  0.65946  0.18133  1.0000
  H   H859      1.0  0.00791  0.72786  0.20465  1.0000
  C   C544      1.0  0.14881  0.73934  0.35403  1.0000
  H   H860      1.0  0.16311  0.72417  0.04667  1.0000
  H   H861      1.0  0.05846  0.50440  0.99424  1.0000
  C   C545      1.0  0.02276  0.72648  0.20400  1.0000
  H   H862      1.0  0.15826  0.72192  0.29604  1.0000
  H   H863      1.0  0.00769  0.65479  0.32950  1.0000
  H   H864      1.0  0.05092  0.74323  0.04564  1.0000
  H   H865      1.0  0.02549  0.71790  0.25528  1.0000
  C   C546      1.0  0.03863  0.50907  0.16508  1.0000
  H   H866      1.0  0.14079  0.74922  0.02463  1.0000
  H   H867      1.0  0.03980  0.50000  0.25148  1.0000
  S   S215      1.0  0.10460  0.56566  0.47390  1.0000
  H   H868      1.0  0.00346  0.66380  0.38682  1.0000
  S   S216      1.0  0.99742  0.72710  0.40665  1.0000
  H   H869      1.0  0.16330  0.74793  0.35673  1.0000
  C   C547      1.0  0.16018  0.73954  0.98386  1.0000
  H   H870      1.0  0.12784  0.71365  0.47643  1.0000
  S   S217      1.0  0.07850  0.50290  0.23240  1.0000
  C   C548      1.0  0.07632  0.53040  0.98068  1.0000
  H   H871      1.0  0.04861  0.50091  0.15949  1.0000
  H   H872      1.0  0.14004  0.74806  0.34618  1.0000
  H   H873      1.0  0.06487  0.53696  0.98121  1.0000
  H   H874      1.0  0.01295  0.49975  0.12773  1.0000
  C   C549      1.0  0.10581  0.51328  0.97921  1.0000
  H   H875      1.0  0.11744  0.50693  0.97868  1.0000
  Fe  Fe112     1.0  0.06973  0.61396  0.74561  1.0000
  S   S218      1.0  0.03790  0.60580  0.74984  1.0000
  S   S219      1.0  0.08819  0.61443  0.78094  1.0000
  Fe  Fe113     1.0  0.06945  0.61639  0.68456  1.0000
  S   S220      1.0  0.03766  0.60844  0.68491  1.0000
  S   S221      1.0  0.08773  0.62280  0.64646  1.0000
  Fe  Fe114     1.0  0.03933  0.62706  0.71820  1.0000
  H   H876      1.0  0.01054  0.64154  0.62959  1.0000
  Fe  Fe115     1.0  0.03969  0.58803  0.71625  1.0000
  S   S222      1.0  0.02152  0.55966  0.71773  1.0000
  S   S223      1.0  0.07115  0.63655  0.71599  1.0000
  S   S224      1.0  0.07154  0.59477  0.71401  1.0000
  Fe  Fe116     1.0  0.10596  0.63072  0.96102  1.0000
  S   S225      1.0  0.07640  0.63437  0.96284  1.0000
  C   C550      1.0  0.12941  0.64194  0.87336  1.0000
  H   H877      1.0  0.03361  0.66069  0.59680  1.0000
  C   C551      1.0  0.01998  0.67563  0.79455  1.0000
  H   H878      1.0  0.05056  0.64791  0.60277  1.0000
  Fe  Fe117     1.0  0.07056  0.61310  0.93280  1.0000
  S   S226      1.0  0.05395  0.61756  0.89713  1.0000
  H   H879      1.0  0.03573  0.73607  0.68427  1.0000
  S   S227      1.0  0.05478  0.61420  0.53159  1.0000
  S   S228      1.0  0.10053  0.61045  0.92962  1.0000
  H   H880      1.0  0.14106  0.64287  0.85817  1.0000
  S   S229      1.0  0.16951  0.73325  0.91605  1.0000
  H   H881      1.0  0.07924  0.54010  0.70072  1.0000
  H   H882      1.0  0.05716  0.67158  0.60629  1.0000
  S   S230      1.0  0.06100  0.59057  0.96343  1.0000
  S   S231      1.0  0.03608  0.73182  0.59817  1.0000
  H   H883      1.0  0.07722  0.51203  0.93208  1.0000
  H   H884      1.0  0.04378  0.68476  0.64408  1.0000
  H   H885      1.0  0.01197  0.52228  0.73385  1.0000
  H   H886      1.0  0.08348  0.51480  0.89749  1.0000
  H   H887      1.0  0.17046  0.67428  0.94985  1.0000
  C   C552      1.0  0.10625  0.65586  0.89233  1.0000
  C   C553      1.0  0.05461  0.65468  0.65391  1.0000
  H   H888      1.0  0.09461  0.57188  0.57865  1.0000
  Fe  Fe118     1.0  0.07314  0.61497  0.49406  1.0000
  H   H889      1.0  0.08725  0.54503  0.55073  1.0000
  N   N57       1.0  0.00817  0.64379  0.88053  1.0000
  C   C554      1.0  0.14146  0.67584  0.94777  1.0000
  C   C555      1.0  0.16116  0.68271  0.94499  1.0000
  C   C556      1.0  0.16911  0.70022  0.93536  1.0000
  C   C557      1.0  0.15762  0.71151  0.92879  1.0000
  C   C558      1.0  0.13774  0.70496  0.93197  1.0000
  C   C559      1.0  0.12963  0.68703  0.94129  1.0000
  C   C560      1.0  0.15990  0.71380  0.50100  1.0000
  H   H890      1.0  0.18442  0.70502  0.93291  1.0000
  H   H891      1.0  0.12869  0.71354  0.92684  1.0000
  C   C561      1.0  0.07865  0.53186  0.48414  1.0000
  H   H892      1.0  0.06702  0.66651  0.65144  1.0000
  C   C562      1.0  0.04528  0.65935  0.60966  1.0000
  S   S232      1.0  0.01901  0.68600  0.82480  1.0000
  H   H893      1.0  0.07336  0.56924  0.51308  1.0000
  C   C563      1.0  0.03789  0.51385  0.72822  1.0000
  H   H894      1.0  0.11178  0.65470  0.91228  1.0000
  Fe  Fe119     1.0  0.09138  0.58925  0.96251  1.0000
  H   H895      1.0  0.12082  0.72991  0.49613  1.0000
  H   H896      1.0  0.07332  0.53215  0.78548  1.0000
  C   C564      1.0  0.07837  0.61987  0.61467  1.0000
  C   C565      1.0  0.05893  0.61303  0.61125  1.0000
  C   C566      1.0  0.05191  0.61153  0.58570  1.0000
  C   C567      1.0  0.06428  0.61648  0.56330  1.0000
  C   C568      1.0  0.08377  0.62298  0.56668  1.0000
  C   C569      1.0  0.09074  0.62475  0.59226  1.0000
  H   H897      1.0  0.04931  0.60886  0.62826  1.0000
  H   H898      1.0  0.03683  0.60636  0.58326  1.0000
  H   H899      1.0  0.09345  0.62689  0.54963  1.0000
  H   H900      1.0  0.10581  0.63002  0.59470  1.0000
  C   C570      1.0  0.07809  0.61473  0.81299  1.0000
  C   C571      1.0  0.06086  0.61928  0.81717  1.0000
  C   C572      1.0  0.05347  0.61984  0.84301  1.0000
  C   C573      1.0  0.06312  0.61573  0.86487  1.0000
  C   C574      1.0  0.08008  0.61073  0.86062  1.0000
  C   C575      1.0  0.08767  0.61047  0.83482  1.0000
  H   H901      1.0  0.05340  0.62269  0.80053  1.0000
  H   H902      1.0  0.04027  0.62354  0.84593  1.0000
  H   H903      1.0  0.08738  0.60708  0.87718  1.0000
  H   H904      1.0  0.10099  0.60691  0.83174  1.0000
  H   H905      1.0  0.05431  0.53529  0.76625  1.0000
  H   H906      1.0  0.01476  0.61830  0.88284  1.0000
  H   H907      1.0  0.09031  0.57939  0.76251  1.0000
  N   N58       1.0  0.14931  0.72773  0.50148  1.0000
  H   H908      1.0  0.07630  0.73964  0.60655  1.0000
  H   H909      1.0  0.10131  0.64681  0.84236  1.0000
  H   H910      1.0  0.04257  0.64729  0.76500  1.0000
  H   H911      1.0  0.06721  0.56034  0.82668  1.0000
  C   C576      1.0  0.02288  0.64043  0.64124  1.0000
  C   C577      1.0  0.08124  0.50518  0.91474  1.0000
  C   C578      1.0  0.05712  0.51920  0.71996  1.0000
  S   S233      1.0  0.13324  0.65309  0.95872  1.0000
  C   C579      1.0  0.02653  0.52601  0.72606  1.0000
  C   C580      1.0  0.03436  0.54335  0.71534  1.0000
  C   C581      1.0  0.05302  0.54796  0.70487  1.0000
  C   C582      1.0  0.06445  0.53602  0.70749  1.0000
  C   C583      1.0  0.11329  0.65864  0.84533  1.0000
  C   C584      1.0  0.07920  0.57142  0.57912  1.0000
  H   H912      1.0  0.05883  0.56089  0.69528  1.0000
  H   H913      1.0  0.07240  0.56356  0.59722  1.0000
  H   H914      1.0  0.14783  0.67616  0.85877  1.0000
  H   H915      1.0  0.15400  0.70290  0.51613  1.0000
  C   C585      1.0  0.13663  0.67397  0.87492  1.0000
  C   C586      1.0  0.04984  0.56367  0.55636  1.0000
  C   C587      1.0  0.03217  0.67224  0.64628  1.0000
  Fe  Fe120     1.0  0.00496  0.73152  0.59375  1.0000
  S   S234      1.0  0.02151  0.64689  0.71752  1.0000
  H   H916      1.0  0.01022  0.65940  0.91501  1.0000
  H   H917      1.0  0.04740  0.56435  0.76114  1.0000
  H   H918      1.0  0.10007  0.66757  0.89192  1.0000
  N   N59       1.0  0.06946  0.55881  0.78453  1.0000
  H   H919      1.0  0.02709  0.67052  0.66743  1.0000
  C   C588      1.0  0.08415  0.56468  0.76298  1.0000
  C   C589      1.0  0.07802  0.56383  0.81002  1.0000
  C   C590      1.0  0.05385  0.56751  0.78054  1.0000
  H   H920      1.0  0.14379  0.67320  0.89376  1.0000
  C   C591      1.0  0.02114  0.65792  0.74719  1.0000
  H   H921      1.0  0.05964  0.64284  0.64846  1.0000
  H   H922      1.0  0.09600  0.55815  0.76501  1.0000
  H   H923      1.0  0.07815  0.56136  0.74345  1.0000
  H   H924      1.0  0.99655  0.66626  0.87284  1.0000
  H   H925      1.0  0.08946  0.55705  0.81397  1.0000
  C   C592      1.0  0.00831  0.67789  0.77411  1.0000
  H   H926      1.0  0.08450  0.57844  0.81008  1.0000
  H   H927      1.0  0.05896  0.58226  0.78091  1.0000
  H   H928      1.0  0.04226  0.56310  0.79602  1.0000
  C   C593      1.0  0.12919  0.71973  0.49606  1.0000
  H   H929      1.0  0.07828  0.58863  0.53259  1.0000
  N   N60       1.0  0.07018  0.56376  0.55502  1.0000
  H   H930      1.0  0.06547  0.53675  0.57038  1.0000
  H   H931      1.0  0.03213  0.50085  0.73785  1.0000
  H   H932      1.0  0.13534  0.64067  0.89310  1.0000
  H   H933      1.0  0.04217  0.55559  0.57378  1.0000
  C   C594      1.0  0.11219  0.53374  0.48560  1.0000
  H   H934      1.0  0.06498  0.53908  0.53512  1.0000
  H   H935      1.0  0.09442  0.64374  0.89012  1.0000
  C   C595      1.0  0.00893  0.66911  0.75046  1.0000
  H   H936      1.0  0.10766  0.67064  0.84299  1.0000
  Fe  Fe121     1.0  0.99581  0.73524  0.86345  1.0000
  C   C596      1.0  0.03295  0.65575  0.76750  1.0000
  H   H937      1.0  0.99976  0.67081  0.73481  1.0000
  H   H938      1.0  0.05142  0.53421  0.80132  1.0000
  H   H939      1.0  0.02019  0.67420  0.63451  1.0000
  C   C597      1.0  0.04056  0.74736  0.73397  1.0000
  C   C598      1.0  0.08945  0.50481  0.49374  1.0000
  H   H940      1.0  0.12409  0.65926  0.82901  1.0000
  H   H941      1.0  0.09509  0.57529  0.52998  1.0000
  H   H942      1.0  0.04798  0.57743  0.55784  1.0000
  C   C599      1.0  0.06185  0.53926  0.78455  1.0000
  H   H943      1.0  0.13102  0.68605  0.87523  1.0000
  H   H944      1.0  0.04263  0.55814  0.53835  1.0000
  S   S235      1.0  0.10336  0.61335  0.49465  1.0000
  H   H945      1.0  0.14429  0.72532  0.54367  1.0000
  N   N61       1.0  0.03874  0.65669  0.63775  1.0000
  C   C600      1.0  0.07205  0.54533  0.55280  1.0000
  H   H946      1.0  0.11437  0.68193  0.94351  1.0000
  H   H947      1.0  0.01775  0.63790  0.66231  1.0000
  N   N62       1.0  0.12138  0.65761  0.87147  1.0000
  H   H948      1.0  0.07801  0.58533  0.58133  1.0000
  C   C601      1.0  0.07964  0.57471  0.53168  1.0000
  C   C602      1.0  0.00725  0.64522  0.90948  1.0000
  H   H949      1.0  0.02727  0.62843  0.63487  1.0000
  H   H950      1.0  0.04187  0.66314  0.80641  1.0000
  H   H951      1.0  0.11841  0.62936  0.87056  1.0000
  C   C603      1.0  0.03244  0.66467  0.79105  1.0000
  H   H952      1.0  0.06842  0.74406  0.88931  1.0000
  H   H953      1.0  0.03061  0.66780  0.87376  1.0000
  C   C604      1.0  0.15045  0.73557  0.52773  1.0000
  S   S236      1.0  0.10134  0.56351  0.96346  1.0000
  H   H954      1.0  0.11982  0.50921  0.49413  1.0000
  H   H955      1.0  0.03855  0.64779  0.87880  1.0000
  H   H956      1.0  0.14910  0.73782  0.96891  1.0000
  H   H957      1.0  0.04886  0.50234  0.88907  1.0000
  H   H958      1.0  0.01788  0.63921  0.91901  1.0000
  H   H959      1.0  0.05999  0.50527  0.49192  1.0000
  H   H960      1.0  0.04898  0.73820  0.74124  1.0000
  S   S237      1.0  0.07318  0.50691  0.72921  1.0000
  C   C605      1.0  0.02736  0.65331  0.86994  1.0000
  H   H961      1.0  0.17520  0.71939  0.50473  1.0000
  H   H962      1.0  0.14261  0.74616  0.52876  1.0000
  C   C606      1.0  0.00424  0.62479  0.87409  1.0000
  S   S238      1.0  0.01582  0.73452  0.82881  1.0000
  H   H963      1.0  0.99865  0.68624  0.77653  1.0000
  H   H964      1.0  0.02860  0.65224  0.84821  1.0000
  H   H965      1.0  0.05027  0.65295  0.67526  1.0000
  H   H966      1.0  0.06721  0.53817  0.48109  1.0000
  H   H967      1.0  0.17285  0.74825  0.48459  1.0000
  H   H968      1.0  0.16544  0.74181  0.53246  1.0000
  H   H969      1.0  0.02583  0.73921  0.73126  1.0000
  H   H970      1.0  0.12242  0.70898  0.51104  1.0000
  C   C607      1.0  0.15768  0.74186  0.48110  1.0000
  Fe  Fe122     1.0  0.00075  0.70558  0.82745  1.0000
  H   H971      1.0  0.02553  0.74709  0.54789  1.0000
  H   H972      1.0  0.17248  0.73545  0.97474  1.0000
  C   C608      1.0  0.10818  0.51535  0.49152  1.0000
  H   H973      1.0  0.15921  0.70753  0.48153  1.0000
  H   H974      1.0  0.12369  0.53877  0.96563  1.0000
  H   H975      1.0  0.99909  0.73268  0.50260  1.0000
  H   H976      1.0  0.12685  0.54149  0.48383  1.0000
  H   H977      1.0  0.03360  0.74410  0.51497  1.0000
  C   C609      1.0  0.07457  0.51318  0.49025  1.0000
  H   H978      1.0  0.05872  0.73496  0.69500  1.0000
  H   H979      1.0  0.04959  0.74626  0.54166  1.0000
  C   C610      1.0  0.05013  0.74423  0.68876  1.0000
  C   C611      1.0  0.09761  0.54222  0.48173  1.0000
  C   C612      1.0  0.10936  0.53143  0.97175  1.0000
  H   H980      1.0  0.09514  0.50231  0.91877  1.0000
  H   H981      1.0  0.00495  0.62326  0.85236  1.0000
  C   C613      1.0  0.09481  0.54024  0.97250  1.0000
  H   H982      1.0  0.04619  0.74313  0.87422  1.0000
  Fe  Fe123     1.0  0.29600  0.94630  0.16484  1.0000
  S   S239      1.0  0.30924  0.92350  0.17077  1.0000
  S   S240      1.0  0.28659  0.95917  0.20083  1.0000
  Fe  Fe124     1.0  0.29728  0.94323  0.10433  1.0000
  S   S241      1.0  0.31091  0.92035  0.10711  1.0000
  S   S242      1.0  0.28766  0.95344  0.06580  1.0000
  Fe  Fe125     1.0  0.28922  0.90983  0.14057  1.0000
  S   S243      1.0  0.27218  0.88073  0.14789  1.0000
  Fe  Fe126     1.0  0.32935  0.93676  0.13712  1.0000
  S   S244      1.0  0.36127  0.93951  0.13997  1.0000
  S   S245      1.0  0.27483  0.93196  0.13653  1.0000
  S   S246      1.0  0.31690  0.96029  0.13238  1.0000
  Fe  Fe127     1.0  0.16467  0.82153  0.15720  1.0000
  S   S247      1.0  0.17989  0.79991  0.15833  1.0000
  S   S248      1.0  0.18151  0.85088  0.15261  1.0000
  Fe  Fe128     1.0  0.12528  0.79352  0.15866  1.0000
  S   S249      1.0  0.13874  0.77052  0.15999  1.0000
  S   S250      1.0  0.09308  0.78911  0.15797  1.0000
  Fe  Fe129     1.0  0.15769  0.78653  0.18973  1.0000
  S   S251      1.0  0.16743  0.77551  0.22754  1.0000
  Fe  Fe130     1.0  0.15915  0.78677  0.12861  1.0000
  S   S252      1.0  0.16991  0.77798  0.08995  1.0000
  S   S253      1.0  0.14324  0.80884  0.19002  1.0000
  S   S254      1.0  0.14485  0.80900  0.12596  1.0000
  Fe  Fe131     1.0  0.15604  0.78651  0.38111  1.0000
  S   S255      1.0  0.18468  0.78106  0.37806  1.0000
  S   S256      1.0  0.14065  0.79017  0.34394  1.0000
  Fe  Fe132     1.0  0.15636  0.78607  0.44194  1.0000
  S   S257      1.0  0.18516  0.78059  0.44201  1.0000
  C   C614      1.0  0.28337  0.89379  0.22178  1.0000
  Fe  Fe133     1.0  0.19271  0.80161  0.40878  1.0000
  S   S258      1.0  0.22064  0.82318  0.40311  1.0000
  H   H983      1.0  0.20573  0.85790  0.34979  1.0000
  S   S259      1.0  0.16446  0.80813  0.41028  1.0000
  Fe  Fe134     1.0  0.28047  0.96845  0.38163  1.0000
  S   S260      1.0  0.30871  0.96196  0.37951  1.0000
  Fe  Fe135     1.0  0.25865  0.92829  0.38633  1.0000
  S   S261      1.0  0.28586  0.91989  0.38446  1.0000
  S   S262      1.0  0.23025  0.90738  0.39293  1.0000
  Fe  Fe136     1.0  0.29638  0.94181  0.41247  1.0000
  S   S263      1.0  0.31236  0.93762  0.44890  1.0000
  Fe  Fe137     1.0  0.29467  0.94107  0.35174  1.0000
  S   S264      1.0  0.30953  0.93595  0.31386  1.0000
  S   S265      1.0  0.26872  0.94921  0.41608  1.0000
  S   S266      1.0  0.26684  0.94853  0.35212  1.0000
  C   C615      1.0  0.26917  0.89085  0.98770  1.0000
  H   H984      1.0  0.07891  0.79040  0.03366  1.0000
  H   H985      1.0  0.06667  0.76265  0.08022  1.0000
  H   H986      1.0  0.01724  0.78127  0.98108  1.0000
  C   C616      1.0  0.04104  0.78377  0.04189  1.0000
  S   S267      1.0  0.47613  0.97678  0.00133  1.0000
  C   C617      1.0  0.04242  0.75302  0.04173  1.0000
  C   C618      1.0  0.48031  0.97917  0.03547  1.0000
  H   H987      1.0  0.26252  0.90412  0.18445  1.0000
  C   C619      1.0  0.49009  0.99522  0.04616  1.0000
  Fe  Fe138     1.0  0.17342  0.76082  0.41141  1.0000
  H   H988      1.0  0.04849  0.79777  0.04589  1.0000
  H   H989      1.0  0.19282  0.86734  0.32628  1.0000
  H   H990      1.0  0.17948  0.81095  0.34125  1.0000
  C   C620      1.0  0.17357  0.83596  0.30737  1.0000
  S   S268      1.0  0.46190  0.97980  0.18168  1.0000
  H   H991      1.0  0.44185  0.95399  0.23034  1.0000
  H   H992      1.0  0.26369  0.89377  0.26749  1.0000
  N   N63       1.0  0.26390  0.89611  0.22511  1.0000
  C   C621      1.0  0.47436  0.96387  0.05218  1.0000
  H   H993      1.0  0.25141  0.86886  0.23822  1.0000
  H   H994      1.0  0.17254  0.77699  0.32361  1.0000
  H   H995      1.0  0.03807  0.75198  0.02089  1.0000
  H   H996      1.0  0.31570  0.99424  0.41456  1.0000
  H   H997      1.0  0.20919  0.85488  0.31529  1.0000
  C   C622      1.0  0.49441  0.99566  0.07319  1.0000
  H   H998      1.0  0.16501  0.75402  0.98733  1.0000
  C   C623      1.0  0.08288  0.75509  0.13787  1.0000
  N   N64       1.0  0.18281  0.83889  0.33290  1.0000
  C   C624      1.0  0.26126  0.90674  0.45418  1.0000
  H   H999      1.0  0.28314  0.95399  0.47002  1.0000
  C   C625      1.0  0.47301  0.98873  0.33629  1.0000
  H   H1000     1.0  0.06727  0.77609  0.00884  1.0000
  H   H1001     1.0  0.29824  0.99120  0.23654  1.0000
  H   H1002     1.0  0.02003  0.75861  0.21828  1.0000
  C   C626      1.0  0.16859  0.84038  0.35364  1.0000
  C   C627      1.0  0.19075  0.82368  0.33975  1.0000
  H   H1003     1.0  0.24692  0.90506  0.25460  1.0000
  S   S269      1.0  0.48709  0.99302  0.42590  1.0000
  H   H1004     1.0  0.46681  0.95140  0.04422  1.0000
  H   H1005     1.0  0.17023  0.78633  0.99397  1.0000
  C   C628      1.0  0.41799  0.95951  0.26889  1.0000
  C   C629      1.0  0.99946  0.75465  0.98805  1.0000
  H   H1006     1.0  0.25941  0.89421  0.00291  1.0000
  H   H1007     1.0  0.27309  0.91906  0.45262  1.0000
  H   H1008     1.0  0.23511  0.88010  0.22378  1.0000
  C   C630      1.0  0.26091  0.90893  0.20456  1.0000
  H   H1009     1.0  0.27057  0.96079  0.25288  1.0000
  C   C631      1.0  0.22286  0.84651  0.40015  1.0000
  C   C632      1.0  0.24032  0.85791  0.39092  1.0000
  C   C633      1.0  0.24274  0.87652  0.38836  1.0000
  C   C634      1.0  0.22775  0.88398  0.39528  1.0000
  C   C635      1.0  0.21026  0.87257  0.40442  1.0000
  C   C636      1.0  0.20782  0.85394  0.40691  1.0000
  H   H1010     1.0  0.25203  0.85230  0.38553  1.0000
  H   H1011     1.0  0.25615  0.88505  0.38081  1.0000
  H   H1012     1.0  0.19858  0.87820  0.40988  1.0000
  H   H1013     1.0  0.19440  0.84539  0.41443  1.0000
  C   C637      1.0  0.16016  0.78033  0.25960  1.0000
  C   C638      1.0  0.17027  0.77675  0.28133  1.0000
  C   C639      1.0  0.16455  0.77976  0.30722  1.0000
  C   C640      1.0  0.14847  0.78619  0.31169  1.0000
  C   C641      1.0  0.13842  0.78987  0.28997  1.0000
  C   C642      1.0  0.14428  0.78706  0.26404  1.0000
  H   H1014     1.0  0.12597  0.79488  0.29316  1.0000
  H   H1015     1.0  0.13629  0.78979  0.24753  1.0000
  C   C643      1.0  0.14323  0.78715  0.01167  1.0000
  C   C644      1.0  0.16192  0.78552  0.01215  1.0000
  C   C645      1.0  0.16991  0.78276  0.03625  1.0000
  C   C646      1.0  0.15949  0.78207  0.06022  1.0000
  C   C647      1.0  0.14103  0.78432  0.05990  1.0000
  C   C648      1.0  0.13291  0.78674  0.03570  1.0000
  H   H1016     1.0  0.31821  0.97989  0.44214  1.0000
  H   H1017     1.0  0.18426  0.78122  0.03633  1.0000
  H   H1018     1.0  0.13285  0.78380  0.07826  1.0000
  H   H1019     1.0  0.11852  0.78816  0.03561  1.0000
  C   C649      1.0  0.07696  0.76980  0.14678  1.0000
  C   C650      1.0  0.05752  0.76924  0.14695  1.0000
  C   C651      1.0  0.47129  0.98784  0.28812  1.0000
  H   H1020     1.0  0.16143  0.82383  0.30858  1.0000
  H   H1021     1.0  0.16782  0.84738  0.30118  1.0000
  S   S270      1.0  0.14430  0.76522  0.41291  1.0000
  H   H1022     1.0  0.05278  0.78052  0.15382  1.0000
  S   S271      1.0  0.47617  0.97810  0.25821  1.0000
  H   H1023     1.0  0.17507  0.84266  0.37316  1.0000
  C   C652      1.0  0.37900  0.95897  0.14735  1.0000
  C   C653      1.0  0.39791  0.95787  0.14893  1.0000
  C   C654      1.0  0.41252  0.97287  0.15464  1.0000
  C   C655      1.0  0.40844  0.98926  0.15885  1.0000
  C   C656      1.0  0.38955  0.99044  0.15717  1.0000
  C   C657      1.0  0.37489  0.97537  0.15154  1.0000
  H   H1024     1.0  0.40128  0.94529  0.14552  1.0000
  H   H1025     1.0  0.42694  0.97171  0.15529  1.0000
  H   H1026     1.0  0.28589  0.88895  0.20187  1.0000
  H   H1027     1.0  0.36041  0.97645  0.15034  1.0000
  C   C658      1.0  0.20675  0.85901  0.15238  1.0000
  C   C659      1.0  0.21870  0.84772  0.15674  1.0000
  C   C660      1.0  0.23863  0.85456  0.15494  1.0000
  C   C661      1.0  0.24694  0.87278  0.14900  1.0000
  C   C662      1.0  0.23502  0.88411  0.14496  1.0000
  C   C663      1.0  0.21507  0.87726  0.14663  1.0000
  H   H1028     1.0  0.21261  0.83370  0.16151  1.0000
  H   H1029     1.0  0.24767  0.84566  0.15833  1.0000
  H   H1030     1.0  0.24112  0.89816  0.14039  1.0000
  H   H1031     1.0  0.20602  0.88615  0.14322  1.0000
  C   C664      1.0  0.29315  0.94695  0.03389  1.0000
  C   C665      1.0  0.30729  0.93797  0.02934  1.0000
  C   C666      1.0  0.31176  0.93376  0.00347  1.0000
  H   H1032     1.0  0.04509  0.76874  0.08848  1.0000
  H   H1033     1.0  0.31836  0.97795  0.97868  1.0000
  C   C667      1.0  0.28335  0.95138  0.01235  1.0000
  H   H1034     1.0  0.31502  0.93456  0.04570  1.0000
  N   N65       1.0  0.05304  0.77139  0.04721  1.0000
  S   S272      1.0  0.13214  0.78906  0.98156  1.0000
  H   H1035     1.0  0.27235  0.95828  0.01572  1.0000
  C   C668      1.0  0.29302  0.95258  0.23212  1.0000
  C   C669      1.0  0.30841  0.94504  0.23481  1.0000
  C   C670      1.0  0.31325  0.93998  0.25996  1.0000
  C   C671      1.0  0.30289  0.94255  0.28268  1.0000
  C   C672      1.0  0.28751  0.95012  0.27999  1.0000
  C   C673      1.0  0.28259  0.95509  0.25481  1.0000
  H   H1036     1.0  0.31687  0.94346  0.21760  1.0000
  H   H1037     1.0  0.32523  0.93422  0.26185  1.0000
  H   H1038     1.0  0.27935  0.95208  0.29728  1.0000
  H   H1039     1.0  0.04276  0.76547  0.23259  1.0000
  N   N66       1.0  0.19775  0.83574  0.07716  1.0000
  C   C674      1.0  0.20523  0.82963  0.05273  1.0000
  C   C675      1.0  0.17696  0.83306  0.07596  1.0000
  C   C676      1.0  0.20681  0.85488  0.08011  1.0000
  C   C677      1.0  0.20192  0.82530  0.10001  1.0000
  H   H1040     1.0  0.22087  0.83140  0.05311  1.0000
  H   H1041     1.0  0.20221  0.83708  0.03499  1.0000
  H   H1042     1.0  0.19858  0.81520  0.05020  1.0000
  H   H1043     1.0  0.17098  0.83800  0.09388  1.0000
  H   H1044     1.0  0.17318  0.84029  0.05853  1.0000
  H   H1045     1.0  0.16959  0.81867  0.07474  1.0000
  H   H1046     1.0  0.20089  0.85989  0.09798  1.0000
  H   H1047     1.0  0.20439  0.86315  0.06292  1.0000
  H   H1048     1.0  0.22242  0.85739  0.08234  1.0000
  H   H1049     1.0  0.19537  0.82873  0.11850  1.0000
  H   H1050     1.0  0.21746  0.82781  0.10270  1.0000
  H   H1051     1.0  0.19614  0.81073  0.09793  1.0000
  H   H1052     1.0  0.20162  0.82215  0.32467  1.0000
  H   H1053     1.0  0.42560  0.95255  0.20410  1.0000
  C   C678      1.0  0.28760  0.94692  0.98657  1.0000
  H   H1054     1.0  0.29436  0.90039  0.43853  1.0000
  H   H1055     1.0  0.48402  0.97093  0.31207  1.0000
  H   H1056     1.0  0.41084  0.96813  0.28038  1.0000
  H   H1057     1.0  0.19763  0.82532  0.35905  1.0000
  H   H1058     1.0  0.18363  0.83403  0.29138  1.0000
  H   H1059     1.0  0.28775  0.87682  0.44625  1.0000
  H   H1060     1.0  0.31238  0.99877  0.34730  1.0000
  C   C679      1.0  0.47678  0.98151  0.31212  1.0000
  Fe  Fe139     1.0  0.47808  0.99125  0.21695  1.0000
  H   H1061     1.0  0.44171  0.99495  0.11479  1.0000
  C   C680      1.0  0.04414  0.75426  0.13827  1.0000
  H   H1062     1.0  0.25456  0.90525  0.43476  1.0000
  H   H1063     1.0  0.25206  0.87299  0.20325  1.0000
  H   H1064     1.0  0.38914  0.94366  0.23874  1.0000
  H   H1065     1.0  0.27140  0.92205  0.20551  1.0000
  H   H1066     1.0  0.38836  0.96627  0.24388  1.0000
  H   H1067     1.0  0.24648  0.91126  0.20655  1.0000
  H   H1068     1.0  0.09779  0.75530  0.13772  1.0000
  H   H1069     1.0  0.32293  0.92705  0.00016  1.0000
  N   N67       1.0  0.26815  0.89100  0.46164  1.0000
  Fe  Fe140     1.0  0.48857  0.99190  0.15679  1.0000
  C   C681      1.0  0.47888  0.96424  0.07882  1.0000
  H   H1070     1.0  0.02761  0.78014  0.05439  1.0000
  C   C682      1.0  0.48901  0.98004  0.08957  1.0000
  H   H1071     1.0  0.04127  0.76145  0.19802  1.0000
  H   H1072     1.0  0.41871  0.98021  0.06743  1.0000
  H   H1073     1.0  0.15678  0.82798  0.35582  1.0000
  H   H1074     1.0  0.16216  0.85163  0.34905  1.0000
  C   C683      1.0  0.19830  0.85549  0.33092  1.0000
  H   H1075     1.0  0.18263  0.77163  0.27804  1.0000
  C   C684      1.0  0.44848  0.99728  0.09455  1.0000
  C   C685      1.0  0.25190  0.87502  0.46403  1.0000
  H   H1076     1.0  0.07999  0.76756  0.03372  1.0000
  H   H1077     1.0  0.47499  0.95203  0.09100  1.0000
  H   H1078     1.0  0.06640  0.78574  0.08004  1.0000
  H   H1079     1.0  0.42025  0.93648  0.23134  1.0000
  H   H1080     1.0  0.42463  0.98388  0.21097  1.0000
  C   C686      1.0  0.26140  0.90301  0.25144  1.0000
  N   N68       1.0  0.41654  0.96235  0.24017  1.0000
  C   C687      1.0  0.42547  0.98123  0.23249  1.0000
  H   H1081     1.0  0.43313  0.96271  0.27450  1.0000
  C   C688      1.0  0.42649  0.95084  0.22585  1.0000
  C   C689      1.0  0.39633  0.95787  0.23339  1.0000
  C   C690      1.0  0.24997  0.87875  0.22259  1.0000
  C   C691      1.0  0.31029  0.98955  0.43503  1.0000
  S   S273      1.0  0.99725  0.75829  0.02250  1.0000
  H   H1082     1.0  0.03678  0.78341  0.02104  1.0000
  C   C692      1.0  0.03462  0.75663  0.21785  1.0000
  H   H1083     1.0  0.27549  0.88612  0.42168  1.0000
  H   H1084     1.0  0.25658  0.86278  0.46908  1.0000
  H   H1085     1.0  0.29425  0.90659  0.22397  1.0000
  C   C693      1.0  0.05806  0.77218  0.07516  1.0000
  H   H1086     1.0  0.41135  0.94541  0.27550  1.0000
  H   H1087     1.0  0.39481  0.95998  0.21181  1.0000
  H   H1088     1.0  0.28603  0.88396  0.23666  1.0000
  H   H1089     1.0  0.24442  0.87275  0.44519  1.0000
  H   H1090     1.0  0.44075  0.98499  0.23718  1.0000
  H   H1091     1.0  0.41842  0.99035  0.24299  1.0000
  C   C694      1.0  0.28203  0.88844  0.44114  1.0000
  H   H1092     1.0  0.27176  0.91609  0.25382  1.0000
  C   C695      1.0  0.07057  0.77659  0.03009  1.0000
  S   S274      1.0  0.00277  0.75240  0.09680  1.0000
  H   H1093     1.0  0.44989  0.98419  0.08763  1.0000
  H   H1094     1.0  0.27286  0.87844  0.99460  1.0000
  H   H1095     1.0  0.44803  0.99556  0.04145  1.0000
  H   H1096     1.0  0.41052  0.99080  0.09476  1.0000
  H   H1097     1.0  0.25052  0.90897  0.46891  1.0000
  H   H1098     1.0  0.29515  0.98211  0.43373  1.0000
  H   H1099     1.0  0.28577  0.98714  0.28390  1.0000
  C   C696      1.0  0.30201  0.93827  0.98196  1.0000
  H   H1100     1.0  0.28254  0.90176  0.98698  1.0000
  H   H1101     1.0  0.47727  0.98365  0.35457  1.0000
  H   H1102     1.0  0.02923  0.75406  0.13884  1.0000
  C   C697      1.0  0.41808  0.99338  0.07497  1.0000
  S   S275      1.0  0.28015  0.99762  0.38414  1.0000
  H   H1103     1.0  0.40918  0.99914  0.06159  1.0000
  H   H1104     1.0  0.30877  0.99913  0.29365  1.0000
  Fe  Fe141     1.0  0.29847  0.94714  0.66451  1.0000
  S   S276      1.0  0.31211  0.92447  0.66929  1.0000
  S   S277      1.0  0.28734  0.95834  0.70089  1.0000
  Fe  Fe142     1.0  0.30046  0.94580  0.60367  1.0000
  S   S278      1.0  0.31426  0.92303  0.60534  1.0000
  S   S279      1.0  0.29107  0.95672  0.56552  1.0000
  Fe  Fe143     1.0  0.29235  0.91157  0.63822  1.0000
  S   S280      1.0  0.27459  0.88261  0.64417  1.0000
  Fe  Fe144     1.0  0.33235  0.93880  0.63631  1.0000
  S   S281      1.0  0.36458  0.94237  0.63730  1.0000
  S   S282      1.0  0.27781  0.93360  0.63509  1.0000
  S   S283      1.0  0.31954  0.96220  0.63291  1.0000
  Fe  Fe145     1.0  0.16514  0.82640  0.65546  1.0000
  S   S284      1.0  0.17813  0.80346  0.66133  1.0000
  S   S285      1.0  0.18366  0.85519  0.65049  1.0000
  Fe  Fe146     1.0  0.12468  0.80062  0.65345  1.0000
  S   S286      1.0  0.13574  0.77637  0.65934  1.0000
  S   S287      1.0  0.09301  0.79785  0.64869  1.0000
  Fe  Fe147     1.0  0.15344  0.79219  0.69040  1.0000
  S   S288      1.0  0.15945  0.78063  0.73023  1.0000
  Fe  Fe148     1.0  0.15892  0.79053  0.62976  1.0000
  S   S289      1.0  0.17099  0.77938  0.59409  1.0000
  S   S290      1.0  0.14121  0.81587  0.68608  1.0000
  S   S291      1.0  0.14701  0.81402  0.62244  1.0000
  Fe  Fe149     1.0  0.14345  0.78467  0.88182  1.0000
  S   S292      1.0  0.17207  0.77916  0.87665  1.0000
  S   S293      1.0  0.12597  0.78792  0.84635  1.0000
  Fe  Fe150     1.0  0.14693  0.78663  0.94211  1.0000
  S   S294      1.0  0.17587  0.78155  0.93996  1.0000
  H   H1105     1.0  0.40872  0.96526  0.78016  1.0000
  Fe  Fe151     1.0  0.18174  0.80112  0.90497  1.0000
  S   S295      1.0  0.21009  0.82189  0.89624  1.0000
  C   C698      1.0  0.47325  0.98480  0.53300  1.0000
  S   S296      1.0  0.15342  0.80752  0.90867  1.0000
  Fe  Fe152     1.0  0.27988  0.96669  0.88178  1.0000
  S   S297      1.0  0.30737  0.95882  0.88088  1.0000
  Fe  Fe153     1.0  0.25624  0.92699  0.88501  1.0000
  S   S298      1.0  0.28266  0.91726  0.88393  1.0000
  S   S299      1.0  0.22705  0.90709  0.89035  1.0000
  Fe  Fe154     1.0  0.29345  0.93850  0.91289  1.0000
  S   S300      1.0  0.30824  0.93282  0.94974  1.0000
  Fe  Fe155     1.0  0.29316  0.93879  0.85201  1.0000
  S   S301      1.0  0.30872  0.93431  0.81434  1.0000
  S   S302      1.0  0.26656  0.94734  0.91551  1.0000
  S   S303      1.0  0.26610  0.94755  0.85143  1.0000
  C   C699      1.0  0.20377  0.82580  0.60277  1.0000
  H   H1106     1.0  0.05778  0.79122  0.85413  1.0000
  H   H1107     1.0  0.40041  0.95860  0.70868  1.0000
  H   H1108     1.0  0.99641  0.78665  0.73270  1.0000
  H   H1109     1.0  0.17516  0.83992  0.58794  1.0000
  S   S304      1.0  0.46502  0.98359  0.50039  1.0000
  H   H1110     1.0  0.24941  0.90464  0.93393  1.0000
  C   C700      1.0  0.04569  0.76492  0.62062  1.0000
  N   N69       1.0  0.31449  0.99834  0.95123  1.0000
  H   H1111     1.0  0.06409  0.79027  0.50458  1.0000
  S   S305      1.0  0.13968  0.78772  0.48006  1.0000
  N   N70       1.0  0.20226  0.83518  0.57747  1.0000
  H   H1112     1.0  0.39144  0.96336  0.75523  1.0000
  C   C701      1.0  0.05946  0.77558  0.50872  1.0000
  C   C702      1.0  0.24334  0.87390  0.96298  1.0000
  S   S306      1.0  0.46563  0.97955  0.68063  1.0000
  C   C703      1.0  0.05179  0.77835  0.86538  1.0000
  H   H1113     1.0  0.32763  0.93233  0.49905  1.0000
  H   H1114     1.0  0.39899  0.94411  0.76612  1.0000
  H   H1115     1.0  0.14994  0.75253  0.48075  1.0000
  C   C704      1.0  0.03780  0.75119  0.53338  1.0000
  H   H1116     1.0  0.05553  0.76923  0.48965  1.0000
  Fe  Fe156     1.0  0.16281  0.76029  0.91218  1.0000
  S   S307      1.0  0.13355  0.76447  0.91573  1.0000
  H   H1117     1.0  0.27986  0.95036  0.97032  1.0000
  H   H1118     1.0  0.22737  0.85613  0.58356  1.0000
  C   C705      1.0  0.40396  0.95873  0.76149  1.0000
  H   H1119     1.0  0.42392  0.95656  0.70055  1.0000
  C   C706      1.0  0.03727  0.76892  0.70027  1.0000
  C   C707      1.0  0.47308  0.96957  0.57593  1.0000
  H   H1120     1.0  0.19744  0.81121  0.60207  1.0000
  H   H1121     1.0  0.26819  0.91709  0.95283  1.0000
  C   C708      1.0  0.05778  0.75176  0.88523  1.0000
  H   H1122     1.0  0.28768  0.89650  0.94014  1.0000
  S   S308      1.0  0.00948  0.75141  0.89783  1.0000
  H   H1123     1.0  0.07538  0.77550  0.69539  1.0000
  H   H1124     1.0  0.04507  0.78128  0.88420  1.0000
  C   C709      1.0  0.04921  0.77950  0.55337  1.0000
  H   H1125     1.0  0.46845  0.95754  0.58841  1.0000
  C   C710      1.0  0.21099  0.82712  0.55598  1.0000
  H   H1126     1.0  0.43074  0.98961  0.75323  1.0000
  H   H1127     1.0  0.24489  0.90854  0.96788  1.0000
  N   N71       1.0  0.04338  0.77075  0.52847  1.0000
  H   H1128     1.0  0.28749  0.98541  0.97060  1.0000
  H   H1129     1.0  0.33911  0.98860  0.95849  1.0000
  H   H1130     1.0  0.26856  0.88374  0.92201  1.0000
  C   C711      1.0  0.27453  0.88534  0.94192  1.0000
  H   H1131     1.0  0.26926  0.95758  0.75225  1.0000
  C   C712      1.0  0.21445  0.84555  0.89527  1.0000
  C   C713      1.0  0.23288  0.85602  0.88819  1.0000
  C   C714      1.0  0.23692  0.87481  0.88638  1.0000
  C   C715      1.0  0.22260  0.88341  0.89187  1.0000
  C   C716      1.0  0.20416  0.87295  0.89890  1.0000
  C   C717      1.0  0.20008  0.85414  0.90056  1.0000
  H   H1132     1.0  0.24408  0.84953  0.88379  1.0000
  H   H1133     1.0  0.25107  0.88261  0.88043  1.0000
  H   H1134     1.0  0.19294  0.87945  0.90312  1.0000
  H   H1135     1.0  0.18582  0.84632  0.90598  1.0000
  C   C718      1.0  0.14939  0.78264  0.76204  1.0000
  C   C719      1.0  0.15603  0.77490  0.78398  1.0000
  C   C720      1.0  0.14888  0.77636  0.80972  1.0000
  C   C721      1.0  0.13493  0.78558  0.81395  1.0000
  C   C722      1.0  0.12808  0.79319  0.79203  1.0000
  C   C723      1.0  0.13534  0.79182  0.76619  1.0000
  H   H1136     1.0  0.11727  0.80034  0.79501  1.0000
  H   H1137     1.0  0.13009  0.79786  0.74950  1.0000
  C   C724      1.0  0.14906  0.78623  0.51156  1.0000
  C   C725      1.0  0.16692  0.78295  0.51459  1.0000
  C   C726      1.0  0.17344  0.78082  0.53997  1.0000
  C   C727      1.0  0.16236  0.78232  0.56256  1.0000
  C   C728      1.0  0.14470  0.78600  0.55958  1.0000
  C   C729      1.0  0.13804  0.78781  0.53419  1.0000
  H   H1138     1.0  0.17391  0.81921  0.57245  1.0000
  H   H1139     1.0  0.18022  0.83981  0.55309  1.0000
  H   H1140     1.0  0.13598  0.78711  0.57684  1.0000
  H   H1141     1.0  0.12423  0.79038  0.53209  1.0000
  C   C730      1.0  0.07783  0.77976  0.63324  1.0000
  C   C731      1.0  0.05861  0.77958  0.63096  1.0000
  Fe  Fe157     1.0  0.49068  0.99274  0.65325  1.0000
  C   C732      1.0  0.48173  0.98419  0.78537  1.0000
  H   H1142     1.0  0.43052  0.97181  0.56540  1.0000
  H   H1143     1.0  0.21003  0.83375  0.53650  1.0000
  H   H1144     1.0  0.05361  0.79076  0.63765  1.0000
  C   C733      1.0  0.07489  0.76493  0.84484  1.0000
  H   H1145     1.0  0.21167  0.86175  0.55993  1.0000
  C   C734      1.0  0.38212  0.96103  0.64777  1.0000
  C   C735      1.0  0.40127  0.96041  0.64659  1.0000
  C   C736      1.0  0.41579  0.97486  0.65439  1.0000
  C   C737      1.0  0.41135  0.99009  0.66394  1.0000
  H   H1146     1.0  0.49155  0.97926  0.85045  1.0000
  C   C738      1.0  0.37767  0.97635  0.65704  1.0000
  H   H1147     1.0  0.40490  0.94866  0.63940  1.0000
  H   H1148     1.0  0.43041  0.97416  0.65287  1.0000
  H   H1149     1.0  0.18714  0.77802  0.54212  1.0000
  H   H1150     1.0  0.36300  0.97705  0.65804  1.0000
  C   C739      1.0  0.20896  0.86261  0.64983  1.0000
  C   C740      1.0  0.21779  0.88054  0.64256  1.0000
  C   C741      1.0  0.23779  0.88686  0.64060  1.0000
  C   C742      1.0  0.24928  0.87531  0.64601  1.0000
  C   C743      1.0  0.24046  0.85741  0.65353  1.0000
  C   C744      1.0  0.22046  0.85111  0.65555  1.0000
  H   H1151     1.0  0.20910  0.88959  0.63807  1.0000
  H   H1152     1.0  0.24426  0.90063  0.63464  1.0000
  H   H1153     1.0  0.24917  0.84835  0.65788  1.0000
  H   H1154     1.0  0.21396  0.83732  0.66150  1.0000
  C   C745      1.0  0.29674  0.95061  0.53345  1.0000
  C   C746      1.0  0.31141  0.94231  0.52859  1.0000
  C   C747      1.0  0.31609  0.93853  0.50260  1.0000
  H   H1155     1.0  0.06824  0.77807  0.72887  1.0000
  H   H1156     1.0  0.03070  0.79135  0.51438  1.0000
  C   C748      1.0  0.28661  0.95476  0.51208  1.0000
  H   H1157     1.0  0.31938  0.93912  0.54482  1.0000
  H   H1158     1.0  0.04008  0.77028  0.85396  1.0000
  H   H1159     1.0  0.15399  0.77006  0.82622  1.0000
  H   H1160     1.0  0.27520  0.96112  0.51569  1.0000
  C   C749      1.0  0.29310  0.95116  0.73221  1.0000
  C   C750      1.0  0.30898  0.94441  0.73534  1.0000
  C   C751      1.0  0.31351  0.93922  0.76060  1.0000
  C   C752      1.0  0.30229  0.94082  0.78298  1.0000
  C   C753      1.0  0.28630  0.94746  0.77981  1.0000
  C   C754      1.0  0.28171  0.95257  0.75452  1.0000
  H   H1161     1.0  0.31805  0.94350  0.71840  1.0000
  H   H1162     1.0  0.32590  0.93410  0.76285  1.0000
  H   H1163     1.0  0.27744  0.94861  0.79679  1.0000
  H   H1164     1.0  0.28079  0.98567  0.78286  1.0000
  C   C755      1.0  0.30603  0.94278  0.48124  1.0000
  H   H1165     1.0  0.19608  0.83062  0.61904  1.0000
  C   C756      1.0  0.48635  0.98430  0.58502  1.0000
  S   S309      1.0  0.00150  0.75948  0.76795  1.0000
  C   C757      1.0  0.06848  0.76803  0.71379  1.0000
  C   C758      1.0  0.21219  0.85427  0.57883  1.0000
  C   C759      1.0  0.08414  0.76529  0.62426  1.0000
  H   H1166     1.0  0.06392  0.75656  0.83265  1.0000
  C   C760      1.0  0.41251  0.95390  0.71645  1.0000
  H   H1167     1.0  0.28980  0.98050  0.93647  1.0000
  H   H1168     1.0  0.40755  0.93918  0.71988  1.0000
  C   C761      1.0  0.43572  0.95653  0.74991  1.0000
  H   H1169     1.0  0.44159  0.96325  0.76798  1.0000
  C   C762      1.0  0.00449  0.75177  0.93253  1.0000
  C   C763      1.0  0.46655  0.96985  0.55024  1.0000
  H   H1170     1.0  0.04395  0.77739  0.68267  1.0000
  C   C764      1.0  0.42549  0.98237  0.73530  1.0000
  N   N72       1.0  0.18970  0.82511  0.81957  1.0000
  C   C765      1.0  0.18115  0.82530  0.79361  1.0000
  C   C766      1.0  0.20535  0.84136  0.82153  1.0000
  C   C767      1.0  0.19724  0.80920  0.82252  1.0000
  C   C768      1.0  0.17506  0.82455  0.84072  1.0000
  H   H1171     1.0  0.16908  0.81336  0.79177  1.0000
  H   H1172     1.0  0.19161  0.82522  0.77711  1.0000
  H   H1173     1.0  0.17551  0.83722  0.79053  1.0000
  H   H1174     1.0  0.20010  0.85363  0.82037  1.0000
  H   H1175     1.0  0.21239  0.84130  0.84065  1.0000
  H   H1176     1.0  0.21647  0.84244  0.80554  1.0000
  H   H1177     1.0  0.20360  0.80852  0.84206  1.0000
  H   H1178     1.0  0.20842  0.80920  0.80702  1.0000
  H   H1179     1.0  0.18584  0.79668  0.82097  1.0000
  H   H1180     1.0  0.18109  0.82469  0.86056  1.0000
  H   H1181     1.0  0.16324  0.81227  0.84021  1.0000
  H   H1182     1.0  0.16878  0.83617  0.83892  1.0000
  N   N73       1.0  0.25741  0.89797  0.72115  1.0000
  C   C769      1.0  0.25995  0.90604  0.74718  1.0000
  C   C770      1.0  0.26962  0.88547  0.71842  1.0000
  C   C771      1.0  0.26290  0.91218  0.70016  1.0000
  C   C772      1.0  0.23730  0.88826  0.71869  1.0000
  H   H1183     1.0  0.27513  0.91296  0.74983  1.0000
  H   H1184     1.0  0.25546  0.89582  0.76361  1.0000
  H   H1185     1.0  0.25160  0.91613  0.74951  1.0000
  H   H1186     1.0  0.26639  0.87490  0.73445  1.0000
  H   H1187     1.0  0.26763  0.87872  0.69934  1.0000
  H   H1188     1.0  0.28497  0.89255  0.71890  1.0000
  H   H1189     1.0  0.26146  0.90660  0.68023  1.0000
  H   H1190     1.0  0.27792  0.91981  0.70155  1.0000
  H   H1191     1.0  0.25407  0.92194  0.70139  1.0000
  H   H1192     1.0  0.23500  0.88211  0.69915  1.0000
  H   H1193     1.0  0.22774  0.89735  0.72047  1.0000
  H   H1194     1.0  0.23264  0.87735  0.73409  1.0000
  Fe  Fe158     1.0  0.48425  0.98970  0.71445  1.0000
  H   H1195     1.0  0.20368  0.81270  0.55468  1.0000
  Fe  Fe159     1.0  0.48536  0.99778  0.96777  1.0000
  N   N74       1.0  0.06652  0.76871  0.87029  1.0000
  C   C773      1.0  0.08162  0.77980  0.88572  1.0000
  C   C774      1.0  0.18201  0.83346  0.57246  1.0000
  H   H1196     1.0  0.23261  0.87609  0.97775  1.0000
  H   H1197     1.0  0.20552  0.86068  0.59455  1.0000
  H   H1198     1.0  0.29012  0.90549  0.48561  1.0000
  H   H1199     1.0  0.08171  0.77747  0.83313  1.0000
  H   H1200     1.0  0.09302  0.77295  0.88966  1.0000
  N   N75       1.0  0.26064  0.88888  0.96161  1.0000
  H   H1201     1.0  0.21881  0.82778  0.60821  1.0000
  H   H1202     1.0  0.16676  0.76763  0.78099  1.0000
  C   C775      1.0  0.01332  0.76736  0.94500  1.0000
  C   C776      1.0  0.29111  0.95075  0.48615  1.0000
  H   H1203     1.0  0.08618  0.75780  0.84784  1.0000
  C   C777      1.0  0.25554  0.90550  0.95374  1.0000
  H   H1204     1.0  0.22624  0.82809  0.55928  1.0000
  C   C778      1.0  0.27745  0.89385  0.48714  1.0000
  H   H1205     1.0  0.05368  0.79428  0.55048  1.0000
  H   H1206     1.0  0.41364  0.98764  0.72795  1.0000
  N   N76       1.0  0.41941  0.96288  0.74079  1.0000
  H   H1207     1.0  0.08862  0.79265  0.87490  1.0000
  H   H1208     1.0  0.28243  0.88207  0.49378  1.0000
  H   H1209     1.0  0.07200  0.77127  0.51565  1.0000
  C   C779      1.0  0.05195  0.75044  0.61165  1.0000
  H   H1210     1.0  0.03961  0.75668  0.74989  1.0000
  H   H1211     1.0  0.40567  0.97079  0.56475  1.0000
  H   H1212     1.0  0.45668  0.95812  0.54338  1.0000
  S   S310      1.0  0.28154  0.99635  0.88352  1.0000
  H   H1213     1.0  0.43168  0.94191  0.75456  1.0000
  H   H1214     1.0  0.44758  0.95927  0.73464  1.0000
  H   H1215     1.0  0.31986  0.97275  0.94461  1.0000
  C   C780      1.0  0.39221  0.99078  0.66508  1.0000
  H   H1216     1.0  0.17566  0.78189  0.49743  1.0000
  H   H1217     1.0  0.24124  0.87644  0.47950  1.0000
  H   H1218     1.0  0.43720  0.98598  0.71989  1.0000
  H   H1219     1.0  0.41692  0.97132  0.59566  1.0000
  H   H1220     1.0  0.27886  0.87297  0.94731  1.0000
  H   H1221     1.0  0.28801  0.98853  0.73435  1.0000
  H   H1222     1.0  0.03508  0.77800  0.71595  1.0000
  H   H1223     1.0  0.07786  0.75963  0.72062  1.0000
  C   C781      1.0  0.01065  0.76886  0.97224  1.0000
  H   H1224     1.0  0.31190  0.98269  0.76485  1.0000
  H   H1225     1.0  0.31862  0.99572  0.90955  1.0000
  C   C782      1.0  0.30482  0.99783  0.47947  1.0000
  C   C783      1.0  0.32335  0.98380  0.95856  1.0000
  S   S311      1.0  0.99761  0.75772  0.58891  1.0000
  H   H1226     1.0  0.02298  0.76110  0.69480  1.0000
  H   H1227     1.0  0.03088  0.76485  0.61982  1.0000
  H   H1228     1.0  0.01468  0.77329  0.53291  1.0000
  C   C784      1.0  0.48880  0.97774  0.80810  1.0000
  C   C785      1.0  0.48611  0.98442  0.83314  1.0000
  C   C786      1.0  0.47593  0.99738  0.83579  1.0000
  H   H1229     1.0  0.31280  0.98854  0.48771  1.0000
  H   H1230     1.0  0.09891  0.76525  0.62582  1.0000
  H   H1231     1.0  0.03738  0.77621  0.56865  1.0000
  H   H1232     1.0  0.24665  0.86103  0.96838  1.0000
  C   C787      1.0  0.02706  0.77667  0.51845  1.0000
  C   C788      1.0  0.41897  0.97674  0.57493  1.0000
  S   S312      1.0  0.48527  0.97534  0.75419  1.0000
  H   H1233     1.0  0.26768  0.89657  0.50291  1.0000
  H   H1234     1.0  0.05686  0.75116  0.67001  1.0000
  H   H1235     1.0  0.05120  0.75414  0.90447  1.0000
  C   C789      1.0  0.47176  0.99730  0.78800  1.0000
  N   N77       1.0  0.04911  0.75713  0.70920  1.0000
  H   H1236     1.0  0.02209  0.77016  0.49982  1.0000
  C   C790      1.0  0.31737  0.99735  0.76656  1.0000
  H   H1237     1.0  0.06132  0.77512  0.56175  1.0000
  H   H1238     1.0  0.02207  0.77859  0.93341  1.0000
  H   H1239     1.0  0.23647  0.87231  0.94362  1.0000
  C   C791      1.0  0.29365  0.99117  0.95089  1.0000
  H   H1240     1.0  0.31337  0.99478  0.84765  1.0000
  H   H1241     1.0  0.07586  0.78296  0.90506  1.0000
  C   C792      1.0  0.07126  0.75075  0.61340  1.0000
  H   H1242     1.0  0.41432  0.99741  0.53389  1.0000
  N   N78       1.0  0.42352  0.99644  0.57362  1.0000
  H   H1243     1.0  0.39415  0.99710  0.57499  1.0000
  H   H1244     1.0  0.43877  0.99920  0.60949  1.0000
  H   H1245     1.0  0.45313  0.99927  0.58003  1.0000
  H   H1246     1.0  0.40449  0.99744  0.60656  1.0000
  H   H1247     1.0  0.43922  0.99914  0.53630  1.0000
  H   H1248     1.0  0.28958  0.99037  0.47956  1.0000
  H   H1249     1.0  0.77758  0.14045  0.17490  1.0000
  H   H1250     1.0  0.83101  0.10269  0.46998  1.0000
  H   H1251     1.0  0.77629  0.12031  0.36001  1.0000
  H   H1252     1.0  0.53466  0.00659  0.30355  1.0000
  N   N79       1.0  0.87155  0.15738  0.38600  1.0000
  H   H1253     1.0  0.95756  0.19190  0.09892  1.0000
  H   H1254     1.0  0.60919  0.02964  0.42141  1.0000
  Fe  Fe160     1.0  0.65729  0.02411  0.01986  1.0000
  S   S313      1.0  0.66398  0.04038  0.05655  1.0000
  H   H1255     1.0  0.94483  0.23653  0.24199  1.0000
  S   S314      1.0  0.66373  0.04964  0.42179  1.0000
  H   H1256     1.0  0.91010  0.19184  0.12869  1.0000
  H   H1257     1.0  0.85890  0.15639  0.01088  1.0000
  Fe  Fe161     1.0  0.64570  0.03182  0.27210  1.0000
  S   S315      1.0  0.65021  0.06156  0.26950  1.0000
  S   S316      1.0  0.64059  0.01565  0.31119  1.0000
  Fe  Fe162     1.0  0.64920  0.02957  0.21128  1.0000
  S   S317      1.0  0.65421  0.05910  0.20525  1.0000
  S   S318      1.0  0.64660  0.01147  0.17635  1.0000
  Fe  Fe163     1.0  0.67359  0.06111  0.23942  1.0000
  S   S319      1.0  0.70472  0.07666  0.23487  1.0000
  Fe  Fe164     1.0  0.63022  0.05610  0.23574  1.0000
  S   S320      1.0  0.60657  0.07001  0.22936  1.0000
  S   S321      1.0  0.66992  0.03146  0.24359  1.0000
  S   S322      1.0  0.62428  0.02646  0.24028  1.0000
  S   S323      1.0  0.52034  0.05115  0.19491  1.0000
  Fe  Fe165     1.0  0.82278  0.11897  0.33541  1.0000
  S   S324      1.0  0.81184  0.14335  0.33634  1.0000
  S   S325      1.0  0.82968  0.10597  0.37330  1.0000
  Fe  Fe166     1.0  0.82340  0.11957  0.27442  1.0000
  S   S326      1.0  0.81279  0.14431  0.27204  1.0000
  S   S327      1.0  0.82832  0.10480  0.23804  1.0000
  Fe  Fe167     1.0  0.83380  0.15402  0.30348  1.0000
  S   S328      1.0  0.85348  0.18179  0.30684  1.0000
  Fe  Fe168     1.0  0.79230  0.13054  0.30504  1.0000
  S   S329      1.0  0.76052  0.12827  0.30830  1.0000
  S   S330      1.0  0.84559  0.13004  0.30383  1.0000
  S   S331      1.0  0.80197  0.10539  0.30616  1.0000
  H   H1258     1.0  0.51090  0.04367  0.30276  1.0000
  H   H1259     1.0  0.52094  0.02365  0.23997  1.0000
  H   H1260     1.0  0.78379  0.12389  0.21552  1.0000
  H   H1261     1.0  0.84480  0.02681  0.99791  1.0000
  Fe  Fe169     1.0  0.96286  0.22639  0.30470  1.0000
  S   S332      1.0  0.94398  0.19813  0.30359  1.0000
  S   S333      1.0  0.90851  0.23373  0.04720  1.0000
  H   H1262     1.0  0.81963  0.00591  0.20223  1.0000
  H   H1263     1.0  0.57592  0.04795  0.41923  1.0000
  Fe  Fe170     1.0  0.82076  0.12044  0.08740  1.0000
  S   S334      1.0  0.84681  0.11009  0.08857  1.0000
  S   S335      1.0  0.80916  0.13031  0.12441  1.0000
  Fe  Fe171     1.0  0.81939  0.11826  0.02678  1.0000
  S   S336      1.0  0.84515  0.10750  0.02495  1.0000
  H   H1264     1.0  0.51125  0.04049  0.25395  1.0000
  Fe  Fe172     1.0  0.83122  0.08993  0.06044  1.0000
  S   S337      1.0  0.82976  0.05995  0.06333  1.0000
  Fe  Fe173     1.0  0.85739  0.12897  0.05320  1.0000
  S   S338      1.0  0.88697  0.14822  0.04515  1.0000
  S   S339      1.0  0.80469  0.09969  0.06071  1.0000
  S   S340      1.0  0.83205  0.14022  0.05369  1.0000
  C   C793      1.0  0.78098  0.01171  0.09360  1.0000
  C   C794      1.0  0.77781  0.02885  0.09144  1.0000
  C   C795      1.0  0.79258  0.04387  0.08274  1.0000
  C   C796      1.0  0.81079  0.04193  0.07623  1.0000
  C   C797      1.0  0.81398  0.02483  0.07881  1.0000
  C   C798      1.0  0.79921  0.00986  0.08713  1.0000
  H   H1265     1.0  0.76384  0.03058  0.09643  1.0000
  H   H1266     1.0  0.78985  0.05692  0.08087  1.0000
  H   H1267     1.0  0.82800  0.02312  0.07408  1.0000
  H   H1268     1.0  0.77041  0.12010  0.39469  1.0000
  C   C799      1.0  0.90281  0.20997  0.04615  1.0000
  C   C800      1.0  0.88414  0.20000  0.05299  1.0000
  C   C801      1.0  0.87907  0.18118  0.05289  1.0000
  C   C802      1.0  0.89261  0.17199  0.04576  1.0000
  C   C803      1.0  0.91125  0.18196  0.03861  1.0000
  C   C804      1.0  0.91633  0.20080  0.03879  1.0000
  H   H1269     1.0  0.87352  0.20689  0.05867  1.0000
  H   H1270     1.0  0.86470  0.17380  0.05856  1.0000
  H   H1271     1.0  0.92184  0.17506  0.03290  1.0000
  H   H1272     1.0  0.93066  0.20823  0.03302  1.0000
  S   S341      1.0  0.80647  0.12600  0.98926  1.0000
  C   C805      1.0  0.95298  0.20435  0.09513  1.0000
  C   C806      1.0  0.88787  0.17268  0.37848  1.0000
  H   H1273     1.0  0.50272  0.00785  0.08105  1.0000
  H   H1274     1.0  0.59883  0.07241  0.43909  1.0000
  H   H1275     1.0  0.77300  0.07364  0.38225  1.0000
  H   H1276     1.0  0.67645  0.00575  0.06252  1.0000
  C   C807      1.0  0.52688  0.00790  0.28540  1.0000
  C   C808      1.0  0.87855  0.18571  0.30713  1.0000
  C   C809      1.0  0.88788  0.17292  0.29924  1.0000
  C   C810      1.0  0.90789  0.17678  0.29874  1.0000
  C   C811      1.0  0.91880  0.19347  0.30601  1.0000
  C   C812      1.0  0.90945  0.20615  0.31439  1.0000
  C   C813      1.0  0.88945  0.20230  0.31487  1.0000
  H   H1277     1.0  0.87975  0.16016  0.29299  1.0000
  H   H1278     1.0  0.91496  0.16686  0.29226  1.0000
  H   H1279     1.0  0.91761  0.21889  0.32067  1.0000
  H   H1280     1.0  0.88238  0.21225  0.32121  1.0000
  C   C814      1.0  0.82386  0.11204  0.40531  1.0000
  C   C815      1.0  0.83063  0.10458  0.42738  1.0000
  C   C816      1.0  0.82586  0.10867  0.45316  1.0000
  C   C817      1.0  0.81404  0.12011  0.45715  1.0000
  C   C818      1.0  0.80742  0.12770  0.43503  1.0000
  C   C819      1.0  0.81245  0.12385  0.40925  1.0000
  H   H1281     1.0  0.83949  0.09545  0.42456  1.0000
  H   H1282     1.0  0.59730  0.02864  0.16933  1.0000
  H   H1283     1.0  0.79833  0.13662  0.43795  1.0000
  H   H1284     1.0  0.80726  0.12981  0.39251  1.0000
  C   C820      1.0  0.82487  0.11288  0.20605  1.0000
  C   C821      1.0  0.82157  0.12971  0.20172  1.0000
  C   C822      1.0  0.81731  0.13515  0.17643  1.0000
  C   C823      1.0  0.81676  0.12398  0.15511  1.0000
  C   C824      1.0  0.82084  0.10745  0.15917  1.0000
  C   C825      1.0  0.82480  0.10191  0.18457  1.0000
  H   H1285     1.0  0.82202  0.13846  0.21790  1.0000
  H   H1286     1.0  0.81442  0.14805  0.17338  1.0000
  H   H1287     1.0  0.82044  0.09873  0.14289  1.0000
  H   H1288     1.0  0.82756  0.08895  0.18767  1.0000
  C   C826      1.0  0.71875  0.08834  0.25965  1.0000
  C   C827      1.0  0.73785  0.08778  0.26054  1.0000
  C   C828      1.0  0.75066  0.09963  0.27588  1.0000
  C   C829      1.0  0.74447  0.11219  0.29052  1.0000
  C   C830      1.0  0.72515  0.11218  0.29070  1.0000
  C   C831      1.0  0.71233  0.10032  0.27530  1.0000
  H   H1289     1.0  0.74292  0.07850  0.24861  1.0000
  H   H1290     1.0  0.76543  0.09935  0.27578  1.0000
  H   H1291     1.0  0.72020  0.12180  0.30206  1.0000
  H   H1292     1.0  0.69773  0.10109  0.27452  1.0000
  C   C832      1.0  0.58240  0.06293  0.22068  1.0000
  C   C833      1.0  0.57311  0.04534  0.21465  1.0000
  C   C834      1.0  0.55405  0.04123  0.20650  1.0000
  C   C835      1.0  0.54423  0.05468  0.20462  1.0000
  C   C836      1.0  0.55363  0.07202  0.21085  1.0000
  C   C837      1.0  0.57243  0.07609  0.21873  1.0000
  H   H1293     1.0  0.58055  0.03496  0.21626  1.0000
  H   H1294     1.0  0.54701  0.02776  0.20162  1.0000
  H   H1295     1.0  0.54633  0.08253  0.20944  1.0000
  H   H1296     1.0  0.57937  0.08969  0.22317  1.0000
  C   C838      1.0  0.65866  0.03208  0.08967  1.0000
  C   C839      1.0  0.66516  0.04346  0.11024  1.0000
  C   C840      1.0  0.66163  0.03733  0.13683  1.0000
  C   C841      1.0  0.65152  0.01972  0.14316  1.0000
  S   S342      1.0  0.63696  0.00628  0.46429  1.0000
  C   C842      1.0  0.64847  0.01448  0.09599  1.0000
  H   H1297     1.0  0.67314  0.05708  0.10556  1.0000
  H   H1298     1.0  0.66696  0.04617  0.15242  1.0000
  H   H1299     1.0  0.73873  0.09150  0.20219  1.0000
  H   H1300     1.0  0.89947  0.20515  0.22487  1.0000
  C   C843      1.0  0.65777  0.03969  0.39121  1.0000
  C   C844      1.0  0.66408  0.04978  0.36760  1.0000
  C   C845      1.0  0.65876  0.04270  0.34297  1.0000
  C   C846      1.0  0.64708  0.02541  0.34170  1.0000
  C   C847      1.0  0.64085  0.01529  0.36529  1.0000
  C   C848      1.0  0.64614  0.02238  0.38991  1.0000
  H   H1301     1.0  0.67302  0.06321  0.36835  1.0000
  H   H1302     1.0  0.66376  0.05060  0.32497  1.0000
  H   H1303     1.0  0.73172  0.09317  0.39377  1.0000
  H   H1304     1.0  0.64110  0.01446  0.40782  1.0000
  H   H1305     1.0  0.58001  0.04889  0.15006  1.0000
  H   H1306     1.0  0.73442  0.00502  0.07056  1.0000
  H   H1307     1.0  0.78810  0.09355  0.36666  1.0000
  H   H1308     1.0  0.78220  0.09277  0.40131  1.0000
  H   H1309     1.0  0.78270  0.10549  0.19450  1.0000
  C   C849      1.0  0.58701  0.01409  0.98156  1.0000
  H   H1310     1.0  0.90308  0.24394  0.20784  1.0000
  H   H1311     1.0  0.64320  0.00559  0.08043  1.0000
  H   H1312     1.0  0.87836  0.18525  0.99261  1.0000
  H   H1313     1.0  0.83229  0.03261  0.02585  1.0000
  C   C850      1.0  0.55321  0.02335  0.46331  1.0000
  C   C851      1.0  0.77403  0.11197  0.20750  1.0000
  H   H1314     1.0  0.59303  0.06737  0.16774  1.0000
  C   C852      1.0  0.68818  0.00057  0.36292  1.0000
  H   H1315     1.0  0.59262  0.06922  0.13253  1.0000
  H   H1316     1.0  0.61149  0.05377  0.10473  1.0000
  H   H1317     1.0  0.96588  0.21576  0.09524  1.0000
  C   C853      1.0  0.56962  0.00562  0.43766  1.0000
  H   H1318     1.0  0.85925  0.17185  0.41414  1.0000
  H   H1319     1.0  0.83929  0.15860  0.99172  1.0000
  H   H1320     1.0  0.86569  0.12883  0.39099  1.0000
  H   H1321     1.0  0.69731  0.02807  0.09005  1.0000
  H   H1322     1.0  0.88923  0.14068  0.39910  1.0000
  C   C854      1.0  0.85640  0.15670  0.36719  1.0000
  H   H1323     1.0  0.74209  0.11847  0.22844  1.0000
  H   H1324     1.0  0.55160  0.03605  0.26220  1.0000
  N   N80       1.0  0.61044  0.05310  0.14719  1.0000
  C   C855      1.0  0.69144  0.00740  0.31602  1.0000
  H   H1325     1.0  0.89676  0.20751  0.25959  1.0000
  N   N81       1.0  0.70620  0.00855  0.06717  1.0000
  H   H1326     1.0  0.58358  0.03519  0.39426  1.0000
  H   H1327     1.0  0.85186  0.14804  0.41916  1.0000
  C   C856      1.0  0.62754  0.06813  0.14839  1.0000
  N   N82       1.0  0.81433  0.01912  0.99616  1.0000
  N   N83       1.0  0.75957  0.09512  0.37636  1.0000
  H   H1328     1.0  0.92500  0.17803  0.11751  1.0000
  H   H1329     1.0  0.75273  0.12037  0.37079  1.0000
  H   H1330     1.0  0.75229  0.09275  0.17167  1.0000
  H   H1331     1.0  0.61564  0.06626  0.37049  1.0000
  H   H1332     1.0  0.63182  0.00189  0.36454  1.0000
  H   H1333     1.0  0.88363  0.18550  0.37825  1.0000
  H   H1334     1.0  0.52089  0.02942  0.32344  1.0000
  H   H1335     1.0  0.81299  0.04645  0.99776  1.0000
  H   H1336     1.0  0.75838  0.13904  0.21732  1.0000
  C   C857      1.0  0.86417  0.15943  0.41292  1.0000
  H   H1337     1.0  0.91861  0.23077  0.19645  1.0000
  Fe  Fe174     1.0  0.65524  0.03437  0.46135  1.0000
  H   H1338     1.0  0.73977  0.09395  0.34554  1.0000
  C   C858      1.0  0.75225  0.08885  0.35063  1.0000
  H   H1339     1.0  0.93553  0.20835  0.15690  1.0000
  S   S343      1.0  0.96338  0.24120  0.04726  1.0000
  H   H1340     1.0  0.59808  0.03298  0.12030  1.0000
  H   H1341     1.0  0.88447  0.21852  0.23733  1.0000
  H   H1342     1.0  0.62825  0.07829  0.13216  1.0000
  H   H1343     1.0  0.60511  0.08307  0.40686  1.0000
  C   C859      1.0  0.59326  0.05992  0.14942  1.0000
  C   C860      1.0  0.51332  0.03011  0.30491  1.0000
  H   H1344     1.0  0.79817  0.99987  0.02524  1.0000
  C   C861      1.0  0.74464  0.08839  0.39738  1.0000
  C   C862      1.0  0.93288  0.22303  0.10918  1.0000
  C   C863      1.0  0.54280  0.03917  0.27882  1.0000
  H   H1345     1.0  0.80123  0.02587  0.14427  1.0000
  H   H1346     1.0  0.80127  0.01494  0.21635  1.0000
  H   H1347     1.0  0.76322  0.09363  0.33437  1.0000
  H   H1348     1.0  0.70592  0.00796  0.41458  1.0000
  H   H1349     1.0  0.89386  0.17139  0.35836  1.0000
  H   H1350     1.0  0.62325  0.07865  0.42724  1.0000
  H   H1351     1.0  0.85147  0.16917  0.36684  1.0000
  H   H1352     1.0  0.95027  0.19418  0.14653  1.0000
  H   H1353     1.0  0.88300  0.13848  0.36514  1.0000
  C   C864      1.0  0.77641  0.08846  0.38190  1.0000
  H   H1354     1.0  0.87522  0.16001  0.42771  1.0000
  H   H1355     1.0  0.72162  0.02748  0.09368  1.0000
  H   H1356     1.0  0.89870  0.24774  0.25583  1.0000
  C   C865      1.0  0.55536  0.01472  0.44013  1.0000
  C   C866      1.0  0.79755  0.01242  0.01441  1.0000
  H   H1357     1.0  0.89954  0.17380  0.39242  1.0000
  S   S344      1.0  0.98303  0.23777  0.33624  1.0000
  C   C867      1.0  0.91179  0.24315  0.25883  1.0000
  H   H1358     1.0  0.78412  0.00956  0.00367  1.0000
  H   H1359     1.0  0.60095  0.04138  0.44743  1.0000
  H   H1360     1.0  0.95899  0.21798  0.14268  1.0000
  N   N84       1.0  0.93832  0.20625  0.11492  1.0000
  Fe  Fe175     1.0  0.51154  0.01729  0.42794  1.0000
  H   H1361     1.0  0.74970  0.09294  0.41706  1.0000
  H   H1362     1.0  0.84387  0.14536  0.37230  1.0000
  S   S345      1.0  0.50574  0.99953  0.19282  1.0000
  C   C868      1.0  0.64503  0.00832  0.12260  1.0000
  H   H1363     1.0  0.74022  0.07355  0.39861  1.0000
  H   H1364     1.0  0.64078  0.06348  0.14673  1.0000
  H   H1365     1.0  0.62354  0.03879  0.11980  1.0000
  H   H1366     1.0  0.62769  0.07492  0.16744  1.0000
  H   H1367     1.0  0.74784  0.07404  0.35049  1.0000
  H   H1368     1.0  0.86142  0.15500  0.34672  1.0000
  C   C869      1.0  0.92141  0.19099  0.11385  1.0000
  C   C870      1.0  0.87768  0.14063  0.38529  1.0000
  C   C871      1.0  0.94608  0.20668  0.14147  1.0000
  H   H1369     1.0  0.94516  0.23488  0.11034  1.0000
  H   H1370     1.0  0.92142  0.22472  0.12313  1.0000
  C   C872      1.0  0.76498  0.11483  0.37554  1.0000
  H   H1371     1.0  0.71078  0.01329  0.02520  1.0000
  C   C873      1.0  0.61012  0.04008  0.16921  1.0000
  H   H1372     1.0  0.49911  0.01732  0.25938  1.0000
  H   H1373     1.0  0.73685  0.13057  0.20033  1.0000
  H   H1374     1.0  0.59737  0.01880  0.99615  1.0000
  H   H1375     1.0  0.61026  0.04635  0.18859  1.0000
  H   H1376     1.0  0.62276  0.03455  0.16797  1.0000
  N   N85       1.0  0.91452  0.23064  0.23861  1.0000
  H   H1377     1.0  0.73320  0.10357  0.17424  1.0000
  H   H1378     1.0  0.61800  0.04409  0.37745  1.0000
  C   C874      1.0  0.89809  0.21480  0.24008  1.0000
  H   H1379     1.0  0.99319  0.23980  0.16724  1.0000
  H   H1380     1.0  0.70591  0.01633  0.31779  1.0000
  S   S346      1.0  0.98472  0.23747  0.27183  1.0000
  H   H1381     1.0  0.58230  0.05761  0.38661  1.0000
  N   N86       1.0  0.60598  0.05559  0.40970  1.0000
  C   C875      1.0  0.60839  0.07324  0.42121  1.0000
  C   C876      1.0  0.61893  0.05727  0.38615  1.0000
  C   C877      1.0  0.58611  0.04881  0.40208  1.0000
  C   C878      1.0  0.61054  0.04306  0.42945  1.0000
  S   S347      1.0  0.49760  0.03533  0.40543  1.0000
  H   H1382     1.0  0.79655  0.02235  0.02938  1.0000
  H   H1383     1.0  0.62535  0.04787  0.43586  1.0000
  H   H1384     1.0  0.94761  0.20391  0.07485  1.0000
  H   H1385     1.0  0.91044  0.23680  0.27904  1.0000
  H   H1386     1.0  0.63399  0.06287  0.39116  1.0000
  C   C879      1.0  0.58119  0.00454  0.45883  1.0000
  N   N87       1.0  0.52410  0.02603  0.28174  1.0000
  C   C880      1.0  0.91616  0.23966  0.21221  1.0000
  H   H1387     1.0  0.92758  0.22339  0.08899  1.0000
  N   N88       1.0  0.79682  0.00640  0.17663  1.0000
  H   H1388     1.0  0.54129  0.05292  0.27470  1.0000
  N   N89       1.0  0.75864  0.11683  0.19313  1.0000
  C   C881      1.0  0.76688  0.12821  0.16954  1.0000
  C   C882      1.0  0.74514  0.10045  0.18489  1.0000
  C   C883      1.0  0.74857  0.12669  0.21052  1.0000
  H   H1389     1.0  0.77429  0.12104  0.15576  1.0000
  H   H1390     1.0  0.75579  0.13243  0.15836  1.0000
  H   H1391     1.0  0.76838  0.10253  0.22449  1.0000
  H   H1392     1.0  0.84813  0.13916  0.98941  1.0000
  H   H1393     1.0  0.77020  0.00564  0.15902  1.0000
  H   H1394     1.0  0.55103  0.03934  0.29692  1.0000
  C   C884      1.0  0.70701  0.01905  0.09109  1.0000
  S   S348      1.0  0.50268  0.02498  0.46788  1.0000
  H   H1395     1.0  0.93155  0.21860  0.26338  1.0000
  S   S349      1.0  0.68130  0.02527  0.99023  1.0000
  Fe  Fe176     1.0  0.49827  0.02552  0.18745  1.0000
  C   C885      1.0  0.61087  0.04429  0.12188  1.0000
  C   C886      1.0  0.80402  0.00458  0.20318  1.0000
  H   H1396     1.0  0.77255  0.01486  0.19113  1.0000
  H   H1397     1.0  0.70277  0.00879  0.36631  1.0000
  H   H1398     1.0  0.91504  0.19052  0.09417  1.0000
  H   H1399     1.0  0.70264  0.01024  0.10918  1.0000
  H   H1400     1.0  0.82206  0.02597  0.16218  1.0000
  H   H1401     1.0  0.70191  0.02982  0.04188  1.0000
  H   H1402     1.0  0.72631  0.02936  0.04455  1.0000
  C   C887      1.0  0.81321  0.03611  0.98307  1.0000
  C   C888      1.0  0.83183  0.02218  0.01114  1.0000
  H   H1403     1.0  0.80381  0.03509  0.17635  1.0000
  C   C889      1.0  0.51337  0.02692  0.25777  1.0000
  S   S350      1.0  0.63790  0.02846  0.98796  1.0000
  C   C890      1.0  0.93209  0.22500  0.24337  1.0000
  H   H1404     1.0  0.93441  0.21520  0.22896  1.0000
  H   H1405     1.0  0.67823  0.00922  0.36533  1.0000
  C   C891      1.0  0.71158  0.02080  0.04366  1.0000
  C   C892      1.0  0.77608  0.00446  0.17879  1.0000
  H   H1406     1.0  0.83287  0.00981  0.02207  1.0000
  H   H1407     1.0  0.54278  0.03101  0.46489  1.0000
  S   S351      1.0  0.54069  0.01566  0.41392  1.0000
  H   H1408     1.0  0.68312  0.00531  0.45232  1.0000
  C   C893      1.0  0.80639  0.02411  0.16436  1.0000
  H   H1409     1.0  0.53511  0.00445  0.26835  1.0000
  H   H1410     1.0  0.98574  0.24764  0.21277  1.0000
  C   C894      1.0  0.85250  0.15385  0.99138  1.0000
  H   H1411     1.0  0.89036  0.15839  0.98914  1.0000
  H   H1412     1.0  0.68111  0.01579  0.31742  1.0000
  H   H1413     1.0  0.69064  0.00208  0.29588  1.0000
  H   H1414     1.0  0.49914  0.02045  0.30767  1.0000
  S   S352      1.0  0.94961  0.24934  0.30227  1.0000
  H   H1415     1.0  0.57821  0.03858  0.97908  1.0000
  H   H1416     1.0  0.78822  0.99966  0.47753  1.0000
  C   C895      1.0  0.51091  0.04198  0.77303  1.0000
  C   C896      1.0  0.87593  0.14149  0.63329  1.0000
  C   C897      1.0  0.62423  0.05118  0.88051  1.0000
  C   C898      1.0  0.76625  0.11201  0.90532  1.0000
  H   H1417     1.0  0.93346  0.19487  0.85762  1.0000
  C   C899      1.0  0.74684  0.11475  0.86855  1.0000
  H   H1418     1.0  0.79742  0.01882  0.52978  1.0000
  Fe  Fe177     1.0  0.65910  0.03579  0.52217  1.0000
  S   S353      1.0  0.67161  0.05204  0.55673  1.0000
  H   H1419     1.0  0.78218  0.01122  0.65394  1.0000
  S   S354      1.0  0.66951  0.04475  0.92184  1.0000
  H   H1420     1.0  0.91346  0.20626  0.71789  1.0000
  H   H1421     1.0  0.69232  0.01502  0.85945  1.0000
  Fe  Fe178     1.0  0.65437  0.03590  0.77009  1.0000
  S   S355      1.0  0.65605  0.06528  0.76957  1.0000
  S   S356      1.0  0.65023  0.01743  0.80683  1.0000
  Fe  Fe179     1.0  0.65856  0.03576  0.70949  1.0000
  S   S357      1.0  0.66068  0.06495  0.70512  1.0000
  S   S358      1.0  0.65843  0.01861  0.67414  1.0000
  Fe  Fe180     1.0  0.68017  0.06776  0.73926  1.0000
  S   S359      1.0  0.71035  0.08567  0.73347  1.0000
  Fe  Fe181     1.0  0.63633  0.05928  0.73546  1.0000
  S   S360      1.0  0.61116  0.07128  0.72892  1.0000
  S   S361      1.0  0.67937  0.03859  0.74164  1.0000
  S   S362      1.0  0.63320  0.02987  0.73806  1.0000
  S   S363      1.0  0.52515  0.05076  0.69316  1.0000
  Fe  Fe182     1.0  0.82828  0.12479  0.83500  1.0000
  S   S364      1.0  0.81846  0.14981  0.83607  1.0000
  S   S365      1.0  0.83212  0.10990  0.87310  1.0000
  Fe  Fe183     1.0  0.82978  0.12611  0.77376  1.0000
  S   S366      1.0  0.81998  0.15126  0.77165  1.0000
  S   S367      1.0  0.83601  0.11257  0.73663  1.0000
  Fe  Fe184     1.0  0.84084  0.16020  0.80350  1.0000
  S   S368      1.0  0.86082  0.18812  0.80417  1.0000
  Fe  Fe185     1.0  0.79894  0.13773  0.80425  1.0000
  S   S369      1.0  0.76717  0.13545  0.80853  1.0000
  S   S370      1.0  0.85173  0.13567  0.80399  1.0000
  S   S371      1.0  0.80774  0.11212  0.80477  1.0000
  H   H1422     1.0  0.85898  0.17371  0.66183  1.0000
  H   H1423     1.0  0.63195  0.04202  0.61931  1.0000
  H   H1424     1.0  0.49695  0.03191  0.77497  1.0000
  C   C900      1.0  0.75151  0.08600  0.88149  1.0000
  Fe  Fe186     1.0  0.97010  0.23519  0.80061  1.0000
  S   S372      1.0  0.95159  0.20660  0.80243  1.0000
  H   H1425     1.0  0.88140  0.13926  0.61323  1.0000
  H   H1426     1.0  0.79457  0.01431  0.71116  1.0000
  H   H1427     1.0  0.78830  0.10209  0.86827  1.0000
  Fe  Fe187     1.0  0.81917  0.12054  0.58751  1.0000
  S   S373      1.0  0.84558  0.11103  0.59051  1.0000
  S   S374      1.0  0.80520  0.12810  0.62469  1.0000
  Fe  Fe188     1.0  0.82035  0.11853  0.52684  1.0000
  S   S375      1.0  0.84681  0.10869  0.52684  1.0000
  H   H1428     1.0  0.73303  0.00707  0.56829  1.0000
  Fe  Fe189     1.0  0.83202  0.09072  0.56153  1.0000
  S   S376      1.0  0.83171  0.06123  0.56814  1.0000
  Fe  Fe190     1.0  0.85706  0.13021  0.55591  1.0000
  S   S377      1.0  0.88691  0.14926  0.55614  1.0000
  S   S378      1.0  0.80500  0.09952  0.55997  1.0000
  S   S379      1.0  0.83121  0.14072  0.55443  1.0000
  C   C901      1.0  0.78173  0.01270  0.59283  1.0000
  C   C902      1.0  0.77823  0.02944  0.58726  1.0000
  C   C903      1.0  0.79330  0.04455  0.58003  1.0000
  C   C904      1.0  0.81208  0.04306  0.57822  1.0000
  C   C905      1.0  0.81553  0.02637  0.58400  1.0000
  C   C906      1.0  0.80053  0.01136  0.59129  1.0000
  H   H1429     1.0  0.76380  0.03077  0.58846  1.0000
  H   H1430     1.0  0.79038  0.05731  0.57560  1.0000
  H   H1431     1.0  0.82998  0.02505  0.58268  1.0000
  H   H1432     1.0  0.82139  0.01682  0.53029  1.0000
  C   C907      1.0  0.90409  0.21118  0.55169  1.0000
  C   C908      1.0  0.88484  0.20172  0.55119  1.0000
  C   C909      1.0  0.87936  0.18286  0.55188  1.0000
  C   C910      1.0  0.89309  0.17312  0.55331  1.0000
  C   C911      1.0  0.91233  0.18256  0.55390  1.0000
  C   C912      1.0  0.91782  0.20142  0.55303  1.0000
  H   H1433     1.0  0.87407  0.20906  0.55007  1.0000
  H   H1434     1.0  0.86450  0.17593  0.55124  1.0000
  H   H1435     1.0  0.92312  0.17525  0.55507  1.0000
  H   H1436     1.0  0.93268  0.20842  0.55347  1.0000
  C   C913      1.0  0.63120  0.07063  0.64780  1.0000
  N   N90       1.0  0.60883  0.04248  0.89999  1.0000
  C   C914      1.0  0.57852  0.01264  0.48234  1.0000
  C   C915      1.0  0.93306  0.19847  0.87868  1.0000
  H   H1437     1.0  0.90810  0.21071  0.75129  1.0000
  C   C916      1.0  0.61641  0.04160  0.66790  1.0000
  H   H1438     1.0  0.80015  0.03433  0.97162  1.0000
  H   H1439     1.0  0.59344  0.04990  0.93277  1.0000
  C   C917      1.0  0.88598  0.19268  0.80417  1.0000
  C   C918      1.0  0.89573  0.17948  0.80046  1.0000
  C   C919      1.0  0.91578  0.18390  0.79999  1.0000
  C   C920      1.0  0.92632  0.20153  0.80317  1.0000
  C   C921      1.0  0.91652  0.21464  0.80723  1.0000
  C   C922      1.0  0.89653  0.21026  0.80759  1.0000
  H   H1440     1.0  0.88783  0.16589  0.79774  1.0000
  H   H1441     1.0  0.92314  0.17359  0.79697  1.0000
  H   H1442     1.0  0.92421  0.22818  0.81023  1.0000
  H   H1443     1.0  0.88914  0.22055  0.81062  1.0000
  C   C923      1.0  0.82563  0.11525  0.90525  1.0000
  C   C924      1.0  0.81560  0.12816  0.90947  1.0000
  C   C925      1.0  0.80985  0.13132  0.93530  1.0000
  C   C926      1.0  0.81438  0.12187  0.95720  1.0000
  C   C927      1.0  0.82483  0.10930  0.95304  1.0000
  C   C928      1.0  0.83029  0.10593  0.92719  1.0000
  H   H1444     1.0  0.81205  0.13555  0.89283  1.0000
  H   H1445     1.0  0.80187  0.14116  0.93834  1.0000
  C   C929      1.0  0.77745  0.10873  0.86095  1.0000
  H   H1446     1.0  0.83806  0.09593  0.92414  1.0000
  C   C930      1.0  0.82716  0.11709  0.70581  1.0000
  C   C931      1.0  0.81590  0.12915  0.70283  1.0000
  C   C932      1.0  0.80930  0.13247  0.67788  1.0000
  C   C933      1.0  0.81382  0.12372  0.65573  1.0000
  C   C934      1.0  0.82488  0.11153  0.65878  1.0000
  C   C935      1.0  0.83159  0.10831  0.68365  1.0000
  H   H1447     1.0  0.81228  0.13594  0.71973  1.0000
  H   H1448     1.0  0.80075  0.14193  0.67575  1.0000
  H   H1449     1.0  0.82805  0.10432  0.64213  1.0000
  H   H1450     1.0  0.84016  0.09887  0.68579  1.0000
  C   C936      1.0  0.72539  0.09722  0.75751  1.0000
  C   C937      1.0  0.74506  0.09888  0.75466  1.0000
  C   C938      1.0  0.75792  0.11025  0.77051  1.0000
  C   C939      1.0  0.75125  0.12015  0.78942  1.0000
  C   C940      1.0  0.73154  0.11803  0.79298  1.0000
  C   C941      1.0  0.71864  0.10657  0.77717  1.0000
  H   H1451     1.0  0.75049  0.09157  0.73984  1.0000
  H   H1452     1.0  0.77303  0.11167  0.76762  1.0000
  H   H1453     1.0  0.72625  0.12570  0.80749  1.0000
  H   H1454     1.0  0.70358  0.10564  0.77934  1.0000
  C   C942      1.0  0.58742  0.06388  0.71851  1.0000
  C   C943      1.0  0.57762  0.07699  0.71415  1.0000
  C   C944      1.0  0.55897  0.07257  0.70563  1.0000
  C   C945      1.0  0.54947  0.05488  0.70136  1.0000
  C   C946      1.0  0.55922  0.04153  0.70527  1.0000
  C   C947      1.0  0.57816  0.04601  0.71398  1.0000
  H   H1455     1.0  0.58453  0.09080  0.71742  1.0000
  H   H1456     1.0  0.55173  0.08302  0.70271  1.0000
  H   H1457     1.0  0.55216  0.02779  0.70187  1.0000
  H   H1458     1.0  0.58549  0.03569  0.71732  1.0000
  C   C948      1.0  0.66817  0.04257  0.58929  1.0000
  C   C949      1.0  0.67382  0.05352  0.61059  1.0000
  C   C950      1.0  0.67108  0.04636  0.63672  1.0000
  C   C951      1.0  0.66277  0.02815  0.64172  1.0000
  C   C952      1.0  0.65749  0.01716  0.62041  1.0000
  C   C953      1.0  0.66009  0.02434  0.59436  1.0000
  H   H1459     1.0  0.68027  0.06761  0.60684  1.0000
  H   H1460     1.0  0.67553  0.05489  0.65296  1.0000
  C   C954      1.0  0.92641  0.24043  0.70035  1.0000
  H   H1461     1.0  0.65583  0.01571  0.57829  1.0000
  C   C955      1.0  0.66518  0.03671  0.88983  1.0000
  C   C956      1.0  0.67075  0.04856  0.86777  1.0000
  C   C957      1.0  0.66629  0.04288  0.84216  1.0000
  C   C958      1.0  0.65629  0.02526  0.83844  1.0000
  C   C959      1.0  0.65102  0.01334  0.86045  1.0000
  C   C960      1.0  0.65546  0.01902  0.88600  1.0000
  H   H1462     1.0  0.67827  0.06228  0.87052  1.0000
  H   H1463     1.0  0.67052  0.05215  0.82532  1.0000
  H   H1464     1.0  0.50326  0.01093  0.57466  1.0000
  H   H1465     1.0  0.53639  0.01870  0.80796  1.0000
  H   H1466     1.0  0.74220  0.11000  0.84879  1.0000
  H   H1467     1.0  0.54658  0.05479  0.75503  1.0000
  H   H1468     1.0  0.60161  0.06712  0.90769  1.0000
  H   H1469     1.0  0.85301  0.14443  0.94072  1.0000
  H   H1470     1.0  0.55741  0.04162  0.77604  1.0000
  H   H1471     1.0  0.87373  0.16065  0.67584  1.0000
  H   H1472     1.0  0.94983  0.20731  0.92469  1.0000
  H   H1473     1.0  0.57946  0.02793  0.90031  1.0000
  N   N91       1.0  0.76050  0.10537  0.87911  1.0000
  H   H1474     1.0  0.86346  0.13010  0.63865  1.0000
  H   H1475     1.0  0.82708  0.01042  0.96180  1.0000
  Fe  Fe191     1.0  0.50257  0.02514  0.68656  1.0000
  H   H1476     1.0  0.88172  0.18930  0.95749  1.0000
  H   H1477     1.0  0.86125  0.15715  0.59433  1.0000
  C   C961      1.0  0.88775  0.17343  0.62706  1.0000
  H   H1478     1.0  0.85027  0.14997  0.66630  1.0000
  H   H1479     1.0  0.89415  0.17168  0.60740  1.0000
  H   H1480     1.0  0.88423  0.18658  0.62601  1.0000
  H   H1481     1.0  0.89894  0.17407  0.64161  1.0000
  H   H1482     1.0  0.88717  0.14093  0.64732  1.0000
  H   H1483     1.0  0.82835  0.10187  0.96967  1.0000
  C   C962      1.0  0.60541  0.05584  0.91835  1.0000
  H   H1484     1.0  0.95414  0.24344  0.73470  1.0000
  C   C963      1.0  0.94279  0.23076  0.73623  1.0000
  H   H1485     1.0  0.59348  0.02482  0.87190  1.0000
  C   C964      1.0  0.69707  0.00677  0.84438  1.0000
  H   H1486     1.0  0.81820  0.02793  0.70374  1.0000
  Fe  Fe192     1.0  0.65793  0.00189  0.49352  1.0000
  H   H1487     1.0  0.56291  0.02884  0.50246  1.0000
  C   C965      1.0  0.56232  0.01912  0.95358  1.0000
  C   C966      1.0  0.82035  0.01940  0.65296  1.0000
  H   H1488     1.0  0.62747  0.04143  0.86659  1.0000
  H   H1489     1.0  0.89559  0.21797  0.72511  1.0000
  H   H1490     1.0  0.71980  0.03232  0.55404  1.0000
  H   H1491     1.0  0.96930  0.19921  0.88788  1.0000
  H   H1492     1.0  0.64538  0.06769  0.64700  1.0000
  H   H1493     1.0  0.82941  0.00086  0.69367  1.0000
  N   N92       1.0  0.74948  0.09851  0.66721  1.0000
  C   C967      1.0  0.76148  0.09989  0.64276  1.0000
  C   C968      1.0  0.74720  0.08075  0.68031  1.0000
  C   C969      1.0  0.73061  0.10088  0.66070  1.0000
  C   C970      1.0  0.75863  0.11253  0.68507  1.0000
  H   H1494     1.0  0.76380  0.11322  0.63246  1.0000
  H   H1495     1.0  0.75500  0.08967  0.62863  1.0000
  H   H1496     1.0  0.77579  0.09806  0.64703  1.0000
  H   H1497     1.0  0.74039  0.06988  0.66735  1.0000
  H   H1498     1.0  0.76114  0.07863  0.68584  1.0000
  H   H1499     1.0  0.73807  0.07916  0.69869  1.0000
  H   H1500     1.0  0.72120  0.09983  0.67881  1.0000
  H   H1501     1.0  0.72326  0.09054  0.64727  1.0000
  H   H1502     1.0  0.73183  0.11420  0.65091  1.0000
  H   H1503     1.0  0.74931  0.11274  0.70285  1.0000
  H   H1504     1.0  0.76185  0.12603  0.67513  1.0000
  H   H1505     1.0  0.77229  0.11044  0.69197  1.0000
  H   H1506     1.0  0.77360  0.10387  0.84098  1.0000
  H   H1507     1.0  0.85179  0.17170  0.61437  1.0000
  N   N93       1.0  0.87074  0.15870  0.63394  1.0000
  H   H1508     1.0  0.84309  0.14796  0.61911  1.0000
  H   H1509     1.0  0.79855  0.03236  0.68676  1.0000
  N   N94       1.0  0.94852  0.21438  0.88357  1.0000
  H   H1510     1.0  0.76152  0.07854  0.88923  1.0000
  H   H1511     1.0  0.78440  0.12324  0.85836  1.0000
  S   S380      1.0  0.50182  0.02518  0.97699  1.0000
  C   C971      1.0  0.90975  0.21638  0.73064  1.0000
  C   C972      1.0  0.87151  0.18211  0.97342  1.0000
  N   N95       1.0  0.61577  0.05421  0.64570  1.0000
  C   C973      1.0  0.59724  0.05876  0.64668  1.0000
  S   S381      1.0  0.99105  0.24696  0.83106  1.0000
  C   C974      1.0  0.61826  0.04588  0.62050  1.0000
  S   S382      1.0  0.50090  0.03557  0.91382  1.0000
  H   H1512     1.0  0.58516  0.04662  0.64660  1.0000
  H   H1513     1.0  0.87929  0.14092  0.96832  1.0000
  H   H1514     1.0  0.64328  0.99969  0.85771  1.0000
  S   S383      1.0  0.63921  0.04399  0.49422  1.0000
  H   H1515     1.0  0.51112  0.01472  0.80694  1.0000
  H   H1516     1.0  0.73864  0.08295  0.89506  1.0000
  S   S384      1.0  0.67716  0.02950  0.48891  1.0000
  S   S385      1.0  0.99069  0.24741  0.76686  1.0000
  H   H1517     1.0  0.60674  0.03355  0.61818  1.0000
  N   N96       1.0  0.86601  0.16268  0.96975  1.0000
  H   H1518     1.0  0.52469  0.03505  0.81960  1.0000
  H   H1519     1.0  0.59596  0.06766  0.62958  1.0000
  C   C975      1.0  0.86314  0.16091  0.66066  1.0000
  N   N97       1.0  0.92443  0.23353  0.72808  1.0000
  H   H1520     1.0  0.70688  0.99966  0.89386  1.0000
  C   C976      1.0  0.61446  0.02812  0.91494  1.0000
  C   C977      1.0  0.59128  0.03480  0.88615  1.0000
  H   H1521     1.0  0.93129  0.23127  0.68691  1.0000
  H   H1522     1.0  0.62041  0.06191  0.86853  1.0000
  H   H1523     1.0  0.60483  0.02912  0.66735  1.0000
  H   H1524     1.0  0.81453  0.02983  0.64320  1.0000
  H   H1525     1.0  0.91883  0.20082  0.88307  1.0000
  H   H1526     1.0  0.63759  0.05733  0.89042  1.0000
  Fe  Fe193     1.0  0.66090  0.02629  0.95842  1.0000
  H   H1527     1.0  0.59534  0.06587  0.66485  1.0000
  H   H1528     1.0  0.94757  0.22106  0.72375  1.0000
  H   H1529     1.0  0.77317  0.12658  0.90410  1.0000
  H   H1530     1.0  0.91717  0.24182  0.76622  1.0000
  H   H1531     1.0  0.70205  0.00727  0.51162  1.0000
  N   N98       1.0  0.70516  0.00449  0.55339  1.0000
  C   C978      1.0  0.85607  0.15891  0.61464  1.0000
  C   C979      1.0  0.52645  0.01999  0.75764  1.0000
  H   H1532     1.0  0.72620  0.00029  0.87036  1.0000
  C   C980      1.0  0.54501  0.04749  0.77448  1.0000
  C   C981      1.0  0.78861  0.00102  0.66311  1.0000
  H   H1533     1.0  0.60320  0.02130  0.92982  1.0000
  H   H1534     1.0  0.94621  0.22702  0.84604  1.0000
  H   H1535     1.0  0.93432  0.22151  0.91783  1.0000
  H   H1536     1.0  0.62981  0.07710  0.66682  1.0000
  H   H1537     1.0  0.63114  0.08053  0.63147  1.0000
  C   C982      1.0  0.81472  0.00581  0.97609  1.0000
  S   S386      1.0  0.80656  0.12471  0.48920  1.0000
  C   C983      1.0  0.80450  0.02151  0.69486  1.0000
  H   H1538     1.0  0.83434  0.02623  0.66069  1.0000
  H   H1539     1.0  0.65112  0.00305  0.62411  1.0000
  H   H1540     1.0  0.94185  0.22558  0.75703  1.0000
  H   H1541     1.0  0.93424  0.18666  0.89087  1.0000
  C   C984      1.0  0.91884  0.24659  0.74516  1.0000
  H   H1542     1.0  0.51323  0.00900  0.75996  1.0000
  H   H1543     1.0  0.96811  0.20806  0.85504  1.0000
  H   H1544     1.0  0.82310  0.01047  0.63740  1.0000
  H   H1545     1.0  0.61502  0.04759  0.68723  1.0000
  C   C985      1.0  0.94605  0.22971  0.86736  1.0000
  H   H1546     1.0  0.68668  0.00501  0.82842  1.0000
  H   H1547     1.0  0.74703  0.08064  0.86197  1.0000
  H   H1548     1.0  0.85888  0.18775  0.97346  1.0000
  H   H1549     1.0  0.51066  0.05238  0.78751  1.0000
  S   S387      1.0  0.55058  0.03399  0.93936  1.0000
  H   H1550     1.0  0.75383  0.10974  0.91959  1.0000
  H   H1551     1.0  0.90511  0.24911  0.73947  1.0000
  H   H1552     1.0  0.72617  0.01095  0.52125  1.0000
  C   C986      1.0  0.70534  0.02328  0.55776  1.0000
  H   H1553     1.0  0.61711  0.01777  0.90172  1.0000
  H   H1554     1.0  0.55038  0.00091  0.52954  1.0000
  Fe  Fe194     1.0  0.62262  0.01539  0.49911  1.0000
  S   S388      1.0  0.91012  0.23503  0.55115  1.0000
  C   C987      1.0  0.52470  0.02520  0.80415  1.0000
  H   H1555     1.0  0.77662  0.10523  0.91378  1.0000
  H   H1556     1.0  0.97907  0.22257  0.88007  1.0000
  H   H1557     1.0  0.58640  0.04530  0.87510  1.0000
  C   C988      1.0  0.80845  0.01408  0.51846  1.0000
  C   C989      1.0  0.94799  0.21855  0.91176  1.0000
  C   C990      1.0  0.88307  0.15566  0.97021  1.0000
  H   H1558     1.0  0.63011  0.03775  0.66755  1.0000
  C   C991      1.0  0.96706  0.21089  0.87636  1.0000
  H   H1559     1.0  0.61819  0.06144  0.92979  1.0000
  H   H1560     1.0  0.73391  0.11273  0.88180  1.0000
  H   H1561     1.0  0.93242  0.23306  0.87248  1.0000
  N   N99       1.0  0.52678  0.03367  0.77733  1.0000
  S   S389      1.0  0.64148  0.00775  0.52869  1.0000
  H   H1562     1.0  0.61830  0.05512  0.60324  1.0000
  H   H1563     1.0  0.82565  0.04157  0.96915  1.0000
  H   H1564     1.0  0.75334  0.12938  0.86588  1.0000
  C   C992      1.0  0.56471  0.02224  0.48446  1.0000
  Fe  Fe195     1.0  0.51878  0.02332  0.93988  1.0000
  H   H1565     1.0  0.62767  0.03340  0.92564  1.0000
  H   H1566     1.0  0.65102  0.00977  0.90273  1.0000
  S   S390      1.0  0.96620  0.24418  0.54985  1.0000
  N   N100      1.0  0.80716  0.00928  0.67416  1.0000
  C   C993      1.0  0.85690  0.15898  0.94424  1.0000
  H   H1567     1.0  0.54608  0.05760  0.78978  1.0000
  H   H1568     1.0  0.71104  0.01461  0.83563  1.0000
  C   C994      1.0  0.71140  0.00279  0.52578  1.0000
  H   H1569     1.0  0.51208  0.04844  0.75285  1.0000
  S   S391      1.0  0.59147  0.00996  0.50975  1.0000
  H   H1570     1.0  0.86645  0.16578  0.92737  1.0000
  H   H1571     1.0  0.81211  0.02250  0.49990  1.0000
  C   C995      1.0  0.55939  0.00177  0.94483  1.0000
  H   H1572     1.0  0.95958  0.23050  0.91591  1.0000
  H   H1573     1.0  0.91273  0.24231  0.69327  1.0000
  H   H1574     1.0  0.52693  0.02571  0.73720  1.0000
  H   H1575     1.0  0.70056  0.02506  0.57834  1.0000
  H   H1576     1.0  0.71385  0.99984  0.59253  1.0000
  H   H1577     1.0  0.69564  0.02800  0.54443  1.0000
  H   H1578     1.0  0.84355  0.16347  0.94365  1.0000
  H   H1579     1.0  0.89351  0.16174  0.95389  1.0000
  H   H1580     1.0  0.80165  0.00304  0.96448  1.0000
  H   H1581     1.0  0.53867  0.01391  0.75934  1.0000
  C   C996      1.0  0.57601  0.02520  0.97213  1.0000
  H   H1582     1.0  0.95769  0.24177  0.87005  1.0000
  H   H1583     1.0  0.49850  0.47960  0.29983  1.0000
  Fe  Fe196     1.0  0.97078  0.26142  0.33200  1.0000
  C   C997      1.0  0.95640  0.30694  0.46100  1.0000
  H   H1584     1.0  0.97313  0.33844  0.47841  1.0000
  H   H1585     1.0  0.51846  0.46142  0.31935  1.0000
  H   H1586     1.0  0.94258  0.26374  0.42036  1.0000
  C   C998      1.0  0.95749  0.26419  0.42172  1.0000
  Fe  Fe197     1.0  0.51558  0.46522  0.23559  1.0000
  S   S392      1.0  0.54514  0.48451  0.23911  1.0000
  H   H1587     1.0  0.50352  0.47983  0.34772  1.0000
  S   S393      1.0  0.50701  0.44486  0.20432  1.0000
  H   H1588     1.0  0.96326  0.27628  0.13558  1.0000
  S   S394      1.0  0.96055  0.27276  0.36852  1.0000
  C   C999      1.0  0.51136  0.49093  0.29717  1.0000
  Fe  Fe198     1.0  0.96476  0.29181  0.04541  1.0000
  S   S395      1.0  0.96690  0.32183  0.04046  1.0000
  Fe  Fe199     1.0  0.97684  0.26269  0.01657  1.0000
  Fe  Fe200     1.0  0.97404  0.26147  0.07774  1.0000
  H   H1589     1.0  0.54362  0.47462  0.03924  1.0000
  S   S396      1.0  0.95128  0.27355  0.01384  1.0000
  S   S397      1.0  0.94841  0.27249  0.07778  1.0000
  C   C1000     1.0  0.97042  0.26657  0.20017  1.0000
  H   H1590     1.0  0.95538  0.25877  0.46388  1.0000
  C   C1001     1.0  0.96940  0.26736  0.39879  1.0000
  H   H1591     1.0  0.95422  0.29237  0.45875  1.0000
  H   H1592     1.0  0.92402  0.25523  0.25836  1.0000
  H   H1593     1.0  0.97823  0.44101  0.15724  1.0000
  H   H1594     1.0  0.49966  0.31856  0.00558  1.0000
  H   H1595     1.0  0.50053  0.43215  0.09964  1.0000
  H   H1596     1.0  0.54992  0.47533  0.07323  1.0000
  C   C1002     1.0  0.96407  0.27448  0.17815  1.0000
  C   C1003     1.0  0.99075  0.44272  0.14428  1.0000
  H   H1597     1.0  0.97052  0.35880  0.02752  1.0000
  H   H1598     1.0  0.98637  0.34245  0.98013  1.0000
  C   C1004     1.0  0.98413  0.26265  0.44855  1.0000
  C   C1005     1.0  0.97873  0.25748  0.14815  1.0000
  H   H1599     1.0  0.51223  0.48161  0.09475  1.0000
  C   C1006     1.0  0.53834  0.47587  0.05976  1.0000
  S   S398      1.0  0.96514  0.27301  0.23228  1.0000
  C   C1007     1.0  0.96477  0.26157  0.44646  1.0000
  H   H1600     1.0  0.97580  0.44612  0.10947  1.0000
  H   H1601     1.0  0.99376  0.34365  0.45637  1.0000
  C   C1008     1.0  0.98739  0.34013  0.03482  1.0000
  C   C1009     1.0  0.51707  0.49269  0.04374  1.0000
  H   H1602     1.0  0.50453  0.48118  0.04792  1.0000
  C   C1010     1.0  0.98865  0.26790  0.40075  1.0000
  H   H1603     1.0  0.52642  0.46386  0.06460  1.0000
  H   H1604     1.0  0.99228  0.39911  0.06360  1.0000
  H   H1605     1.0  0.94683  0.31154  0.44736  1.0000
  H   H1606     1.0  0.52634  0.49001  0.35976  1.0000
  S   S399      1.0  0.50671  0.46804  0.97952  1.0000
  H   H1607     1.0  0.97312  0.31768  0.41354  1.0000
  Fe  Fe201     1.0  0.49509  0.49209  0.98053  1.0000
  C   C1011     1.0  0.96812  0.26994  0.15230  1.0000
  S   S400      1.0  0.99092  0.28165  0.04699  1.0000
  H   H1608     1.0  0.51750  0.49032  0.27698  1.0000
  S   S401      1.0  0.50284  0.44467  0.26811  1.0000
  N   N101      1.0  0.97650  0.31667  0.45549  1.0000
  C   C1012     1.0  0.51646  0.49098  0.34387  1.0000
  N   N102      1.0  0.53213  0.49248  0.06238  1.0000
  H   H1609     1.0  0.97049  0.34149  0.44379  1.0000
  C   C1013     1.0  0.98480  0.35713  0.02851  1.0000
  H   H1610     1.0  0.95607  0.28433  0.18105  1.0000
  C   C1014     1.0  0.53089  0.47313  0.31571  1.0000
  Fe  Fe202     1.0  0.97243  0.26106  0.27101  1.0000
  N   N103      1.0  0.52523  0.49007  0.31741  1.0000
  C   C1015     1.0  0.98936  0.44560  0.11711  1.0000
  S   S402      1.0  0.98442  0.25144  0.11595  1.0000
  H   H1611     1.0  0.49665  0.43145  0.36125  1.0000
  C   C1016     1.0  0.97861  0.33593  0.45858  1.0000
  H   H1612     1.0  0.92829  0.25183  0.21075  1.0000
  Fe  Fe203     1.0  0.93833  0.25284  0.04609  1.0000
  H   H1613     1.0  0.49803  0.32957  0.03586  1.0000
  H   H1614     1.0  0.54152  0.47207  0.33048  1.0000
  H   H1615     1.0  0.98154  0.29932  0.42558  1.0000
  H   H1616     1.0  0.49583  0.32570  0.31345  1.0000
  C   C1017     1.0  0.52457  0.49323  0.08962  1.0000
  H   H1617     1.0  0.53726  0.47187  0.29579  1.0000
  C   C1018     1.0  0.98079  0.25390  0.19608  1.0000
  H   H1618     1.0  0.99289  0.40982  0.12128  1.0000
  H   H1619     1.0  0.52217  0.49192  0.02302  1.0000
  H   H1620     1.0  0.54323  0.49921  0.47237  1.0000
  C   C1019     1.0  0.98239  0.31364  0.42824  1.0000
  H   H1621     1.0  0.53548  0.49299  0.10433  1.0000
  H   H1622     1.0  0.98720  0.29564  0.47255  1.0000
  S   S403      1.0  0.99214  0.27615  0.30055  1.0000
  H   H1623     1.0  0.98683  0.38762  0.13565  1.0000
  C   C1020     1.0  0.98858  0.31015  0.47421  1.0000
  H   H1624     1.0  0.98969  0.31254  0.99754  1.0000
  H   H1625     1.0  0.98435  0.36835  0.08353  1.0000
  H   H1626     1.0  0.97499  0.39285  0.10705  1.0000
  C   C1021     1.0  0.98892  0.39549  0.11656  1.0000
  S   S404      1.0  0.99252  0.25795  0.97906  1.0000
  H   H1627     1.0  0.95982  0.31587  0.98000  1.0000
  C   C1022     1.0  0.98497  0.24946  0.17021  1.0000
  H   H1628     1.0  0.98452  0.31210  0.49497  1.0000
  C   C1023     1.0  0.98321  0.26601  0.64719  1.0000
  Fe  Fe204     1.0  0.93998  0.25425  0.54888  1.0000
  S   S405      1.0  0.99142  0.28574  0.54503  1.0000
  C   C1024     1.0  0.98428  0.26212  0.94767  1.0000
  H   H1629     1.0  0.96591  0.36931  0.60339  1.0000
  Fe  Fe205     1.0  0.97709  0.26958  0.82926  1.0000
  Fe  Fe206     1.0  0.51369  0.46603  0.73344  1.0000
  S   S406      1.0  0.54317  0.48552  0.73673  1.0000
  Fe  Fe207     1.0  0.49591  0.49241  0.47919  1.0000
  C   C1025     1.0  0.96848  0.28357  0.67612  1.0000
  C   C1026     1.0  0.54801  0.49110  0.57214  1.0000
  S   S407      1.0  0.96627  0.27905  0.86714  1.0000
  H   H1630     1.0  0.92972  0.25965  0.74387  1.0000
  Fe  Fe208     1.0  0.96421  0.29411  0.54383  1.0000
  S   S408      1.0  0.96480  0.32370  0.53650  1.0000
  Fe  Fe209     1.0  0.97777  0.26478  0.51703  1.0000
  Fe  Fe210     1.0  0.97656  0.26629  0.57781  1.0000
  H   H1631     1.0  0.95608  0.39107  0.57357  1.0000
  S   S409      1.0  0.95104  0.27387  0.51449  1.0000
  S   S410      1.0  0.94984  0.27569  0.57826  1.0000
  S   S411      1.0  0.99423  0.26110  0.47948  1.0000
  H   H1632     1.0  0.95697  0.26461  0.96195  1.0000
  C   C1027     1.0  0.97304  0.27147  0.89758  1.0000
  H   H1633     1.0  0.49730  0.32921  0.66952  1.0000
  C   C1028     1.0  0.99268  0.31596  0.93055  1.0000
  H   H1634     1.0  0.99077  0.29568  0.97488  1.0000
  C   C1029     1.0  0.98075  0.37476  0.59533  1.0000
  H   H1635     1.0  0.98576  0.32198  0.91475  1.0000
  C   C1030     1.0  0.98345  0.35844  0.52188  1.0000
  S   S412      1.0  0.95547  0.25719  0.80026  1.0000
  H   H1636     1.0  0.94736  0.27345  0.91825  1.0000
  H   H1637     1.0  0.96934  0.36015  0.51910  1.0000
  H   H1638     1.0  0.96681  0.39944  0.61884  1.0000
  S   S413      1.0  0.50709  0.46806  0.47947  1.0000
  C   C1031     1.0  0.96096  0.27036  0.92005  1.0000
  H   H1639     1.0  0.51523  0.49065  0.52611  1.0000
  C   C1032     1.0  0.97117  0.39587  0.56624  1.0000
  H   H1640     1.0  0.53878  0.48782  0.52169  1.0000
  H   H1641     1.0  0.99163  0.40370  0.62538  1.0000
  C   C1033     1.0  0.98554  0.34164  0.53046  1.0000
  C   C1034     1.0  0.96647  0.26553  0.94492  1.0000
  C   C1035     1.0  0.98391  0.26232  0.69514  1.0000
  C   C1036     1.0  0.51597  0.49409  0.57870  1.0000
  S   S414      1.0  0.50435  0.44540  0.70270  1.0000
  C   C1037     1.0  0.98865  0.25779  0.66963  1.0000
  H   H1642     1.0  0.98344  0.41864  0.60379  1.0000
  C   C1038     1.0  0.52669  0.48633  0.53631  1.0000
  H   H1643     1.0  0.95815  0.32013  0.94520  1.0000
  H   H1644     1.0  0.97360  0.41013  0.55945  1.0000
  C   C1039     1.0  0.96517  0.31335  0.95999  1.0000
  H   H1645     1.0  0.52128  0.47185  0.54175  1.0000
  S   S415      1.0  0.50117  0.44573  0.76636  1.0000
  H   H1646     1.0  0.50186  0.47626  0.79785  1.0000
  H   H1647     1.0  0.93701  0.25361  0.69798  1.0000
  H   H1648     1.0  0.51118  0.47990  0.58596  1.0000
  H   H1649     1.0  0.55256  0.49865  0.59004  1.0000
  C   C1040     1.0  0.98142  0.40431  0.60973  1.0000
  H   H1650     1.0  0.96872  0.28530  0.63343  1.0000
  C   C1041     1.0  0.97292  0.27881  0.65055  1.0000
  Fe  Fe211     1.0  0.97704  0.27010  0.76815  1.0000
  S   S416      1.0  0.99037  0.26043  0.61556  1.0000
  H   H1651     1.0  0.97306  0.38822  0.54865  1.0000
  C   C1042     1.0  0.51983  0.49159  0.83972  1.0000
  H   H1652     1.0  0.96027  0.29877  0.95731  1.0000
  S   S417      1.0  0.96821  0.28179  0.73040  1.0000
  N   N104      1.0  0.98435  0.39380  0.58689  1.0000
  H   H1653     1.0  0.98938  0.30140  0.92754  1.0000
  C   C1043     1.0  0.97406  0.27544  0.69854  1.0000
  H   H1654     1.0  0.96075  0.29367  0.67849  1.0000
  H   H1655     1.0  0.56066  0.49312  0.55827  1.0000
  H   H1656     1.0  0.95160  0.30881  0.48158  1.0000
  H   H1657     1.0  0.50701  0.48059  0.84533  1.0000
  N   N105      1.0  0.98611  0.31969  0.95714  1.0000
  H   H1658     1.0  0.52712  0.48089  0.79169  1.0000
  N   N106      1.0  0.53241  0.49690  0.55968  1.0000
  H   H1659     1.0  0.54354  0.47665  0.57821  1.0000
  C   C1044     1.0  0.99044  0.26715  0.90002  1.0000
  H   H1660     1.0  0.49985  0.33197  0.71849  1.0000
  H   H1661     1.0  0.99049  0.37278  0.61092  1.0000
  H   H1662     1.0  0.98626  0.34661  0.94528  1.0000
  H   H1663     1.0  0.98800  0.25569  0.71209  1.0000
  H   H1664     1.0  0.51359  0.49331  0.77383  1.0000
  C   C1045     1.0  0.99467  0.31035  0.97728  1.0000
  H   H1665     1.0  0.98290  0.36645  0.57855  1.0000
  C   C1046     1.0  0.51496  0.48713  0.79350  1.0000
  H   H1666     1.0  0.53221  0.48561  0.83899  1.0000
  H   H1667     1.0  0.54207  0.49824  0.97281  1.0000
  C   C1047     1.0  0.99188  0.33912  0.96080  1.0000
  H   H1668     1.0  0.50363  0.49757  0.56953  1.0000
  Fe  Fe212     1.0  0.59952  0.58916  0.24241  1.0000
  S   S418      1.0  0.62508  0.57824  0.24399  1.0000
  S   S419      1.0  0.56965  0.57008  0.24124  1.0000
  Fe  Fe213     1.0  0.62540  0.62861  0.23660  1.0000
  S   S420      1.0  0.65194  0.61916  0.23846  1.0000
  S   S421      1.0  0.62740  0.65800  0.22532  1.0000
  Fe  Fe214     1.0  0.63748  0.59832  0.21092  1.0000
  S   S422      1.0  0.65175  0.59191  0.17324  1.0000
  Fe  Fe215     1.0  0.63612  0.60042  0.27156  1.0000
  S   S423      1.0  0.64942  0.59379  0.30935  1.0000
  S   S424      1.0  0.61139  0.60826  0.20798  1.0000
  S   S425      1.0  0.61000  0.61086  0.27126  1.0000
  H   H1669     1.0  0.96988  0.73060  0.19091  1.0000
  C   C1048     1.0  0.54013  0.52386  0.98585  1.0000
  C   C1049     1.0  0.75306  0.72872  0.36693  1.0000
  H   H1670     1.0  0.52348  0.51181  0.23444  1.0000
  H   H1671     1.0  0.61380  0.57263  0.17958  1.0000
  H   H1672     1.0  0.78566  0.73624  0.20933  1.0000
  Fe  Fe216     1.0  0.63284  0.59797  0.02346  1.0000
  S   S426      1.0  0.62333  0.60922  0.06064  1.0000
  Fe  Fe217     1.0  0.63640  0.60265  0.46237  1.0000
  S   S427      1.0  0.63041  0.61657  0.42474  1.0000
  S   S428      1.0  0.64490  0.57407  0.02473  1.0000
  S   S429      1.0  0.64803  0.57871  0.46033  1.0000
  H   H1673     1.0  0.95999  0.70928  0.47329  1.0000
  S   S430      1.0  0.97760  0.71628  0.12988  1.0000
  C   C1050     1.0  0.57935  0.57287  0.16303  1.0000
  Fe  Fe218     1.0  0.96223  0.70970  0.09207  1.0000
  S   S431      1.0  0.93805  0.68441  0.09091  1.0000
  Fe  Fe219     1.0  0.78318  0.66578  0.05398  1.0000
  S   S432      1.0  0.78322  0.69475  0.05263  1.0000
  S   S433      1.0  0.75473  0.64525  0.06170  1.0000
  Fe  Fe220     1.0  0.82709  0.67494  0.05484  1.0000
  S   S434      1.0  0.82982  0.70434  0.05300  1.0000
  S   S435      1.0  0.85054  0.66101  0.06179  1.0000
  Fe  Fe221     1.0  0.80535  0.69802  0.08314  1.0000
  S   S436      1.0  0.80613  0.71477  0.11916  1.0000
  Fe  Fe222     1.0  0.80744  0.69805  0.02254  1.0000
  C   C1051     1.0  0.99031  0.73504  0.43685  1.0000
  S   S437      1.0  0.80383  0.66895  0.08659  1.0000
  S   S438      1.0  0.80629  0.66877  0.02220  1.0000
  Fe  Fe223     1.0  0.79844  0.72704  0.29979  1.0000
  S   S439      1.0  0.78505  0.69763  0.30104  1.0000
  Fe  Fe224     1.0  0.66549  0.58958  0.99283  1.0000
  Fe  Fe225     1.0  0.83829  0.72211  0.30279  1.0000
  S   S440      1.0  0.82789  0.69230  0.30382  1.0000
  C   C1052     1.0  0.65207  0.73538  0.30467  1.0000
  Fe  Fe226     1.0  0.80879  0.69705  0.27180  1.0000
  S   S441      1.0  0.80309  0.68058  0.23543  1.0000
  Fe  Fe227     1.0  0.80546  0.69637  0.33294  1.0000
  S   S442      1.0  0.79756  0.67947  0.37115  1.0000
  S   S443      1.0  0.82096  0.72666  0.26876  1.0000
  S   S444      1.0  0.81705  0.72592  0.33359  1.0000
  Fe  Fe228     1.0  0.95654  0.70517  0.32899  1.0000
  H   H1674     1.0  0.68383  0.60335  0.43926  1.0000
  S   S445      1.0  0.92608  0.68925  0.32740  1.0000
  S   S446      1.0  0.97531  0.70968  0.29198  1.0000
  C   C1053     1.0  0.97892  0.74285  0.22779  1.0000
  H   H1675     1.0  0.72986  0.72290  0.24612  1.0000
  H   H1676     1.0  0.99179  0.68194  0.26846  1.0000
  S   S447      1.0  0.69814  0.72676  0.20591  1.0000
  C   C1054     1.0  0.74931  0.71944  0.20147  1.0000
  H   H1677     1.0  0.67111  0.62976  0.43398  1.0000
  C   C1055     1.0  0.76438  0.73012  0.34368  1.0000
  H   H1678     1.0  0.51210  0.50510  0.04475  1.0000
  H   H1679     1.0  0.79869  0.67578  0.46787  1.0000
  H   H1680     1.0  0.51207  0.50362  0.34591  1.0000
  N   N107      1.0  0.76771  0.73396  0.46009  1.0000
  H   H1681     1.0  0.77160  0.71989  0.33956  1.0000
  H   H1682     1.0  0.75150  0.71730  0.38038  1.0000
  H   H1683     1.0  0.74939  0.70085  0.24715  1.0000
  H   H1684     1.0  0.67186  0.71048  0.30196  1.0000
  C   C1056     1.0  0.88432  0.72322  0.31348  1.0000
  C   C1057     1.0  0.88154  0.70659  0.30225  1.0000
  C   C1058     1.0  0.89445  0.69619  0.30652  1.0000
  C   C1059     1.0  0.91024  0.70248  0.32180  1.0000
  C   C1060     1.0  0.91285  0.71902  0.33322  1.0000
  C   C1061     1.0  0.74392  0.74206  0.37283  1.0000
  H   H1685     1.0  0.86961  0.70185  0.28996  1.0000
  H   H1686     1.0  0.89233  0.68334  0.29776  1.0000
  H   H1687     1.0  0.92458  0.72368  0.34579  1.0000
  H   H1688     1.0  0.66560  0.73471  0.24002  1.0000
  C   C1062     1.0  0.80440  0.70507  0.15146  1.0000
  C   C1063     1.0  0.80854  0.71620  0.17290  1.0000
  C   C1064     1.0  0.80812  0.70890  0.19875  1.0000
  C   C1065     1.0  0.80344  0.69039  0.20340  1.0000
  C   C1066     1.0  0.79906  0.67928  0.18199  1.0000
  C   C1067     1.0  0.79949  0.68658  0.15616  1.0000
  H   H1689     1.0  0.81239  0.73053  0.16943  1.0000
  H   H1690     1.0  0.81162  0.71761  0.21498  1.0000
  H   H1691     1.0  0.79524  0.66495  0.18545  1.0000
  H   H1692     1.0  0.79587  0.67786  0.13996  1.0000
  C   C1068     1.0  0.93440  0.74301  0.27524  1.0000
  H   H1693     1.0  0.63782  0.70166  0.29074  1.0000
  C   C1069     1.0  0.79799  0.67762  0.42532  1.0000
  C   C1070     1.0  0.80199  0.68884  0.40242  1.0000
  C   C1071     1.0  0.81003  0.70708  0.40489  1.0000
  C   C1072     1.0  0.81425  0.71397  0.42988  1.0000
  H   H1694     1.0  0.69590  0.62968  0.46609  1.0000
  H   H1695     1.0  0.79178  0.66348  0.42366  1.0000
  H   H1696     1.0  0.81309  0.71594  0.38761  1.0000
  H   H1697     1.0  0.82066  0.72807  0.43144  1.0000
  C   C1073     1.0  0.91394  0.67958  0.08158  1.0000
  C   C1074     1.0  0.90348  0.66173  0.08424  1.0000
  C   C1075     1.0  0.88437  0.65659  0.07773  1.0000
  C   C1076     1.0  0.87506  0.66915  0.06849  1.0000
  C   C1077     1.0  0.88538  0.68717  0.06555  1.0000
  C   C1078     1.0  0.90482  0.69239  0.07216  1.0000
  H   H1698     1.0  0.91029  0.65170  0.09136  1.0000
  H   H1699     1.0  0.87674  0.64267  0.07996  1.0000
  H   H1700     1.0  0.87852  0.69704  0.05805  1.0000
  H   H1701     1.0  0.91274  0.70622  0.06982  1.0000
  H   H1702     1.0  0.70770  0.60425  0.42866  1.0000
  C   C1079     1.0  0.64146  0.71197  0.27431  1.0000
  H   H1703     1.0  0.57841  0.50683  0.47448  1.0000
  C   C1080     1.0  0.81017  0.70278  0.45277  1.0000
  Fe  Fe229     1.0  0.98489  0.73746  0.30546  1.0000
  C   C1081     1.0  0.77470  0.74103  0.22066  1.0000
  H   H1704     1.0  0.59691  0.53759  0.42935  1.0000
  C   C1082     1.0  0.76701  0.72641  0.43369  1.0000
  H   H1705     1.0  0.67690  0.63086  0.39929  1.0000
  H   H1706     1.0  0.56442  0.56610  0.41389  1.0000
  H   H1707     1.0  0.71071  0.64987  0.45076  1.0000
  S   S448      1.0  0.98990  0.71425  0.06778  1.0000
  H   H1708     1.0  0.88314  0.67778  0.39170  1.0000
  H   H1709     1.0  0.69203  0.60998  0.03779  1.0000
  C   C1083     1.0  0.71319  0.60986  0.00719  1.0000
  C   C1084     1.0  0.70679  0.61503  0.03121  1.0000
  C   C1085     1.0  0.71965  0.62621  0.04731  1.0000
  C   C1086     1.0  0.73890  0.63284  0.03926  1.0000
  C   C1087     1.0  0.74524  0.62810  0.01485  1.0000
  H   H1710     1.0  0.92111  0.74199  0.22669  1.0000
  H   H1711     1.0  0.76934  0.71880  0.98300  1.0000
  H   H1712     1.0  0.71464  0.62962  0.06627  1.0000
  H   H1713     1.0  0.76004  0.63295  0.00848  1.0000
  H   H1714     1.0  0.58928  0.56098  0.36659  1.0000
  C   C1088     1.0  0.64759  0.67657  0.21963  1.0000
  C   C1089     1.0  0.64515  0.69202  0.20648  1.0000
  C   C1090     1.0  0.66047  0.70726  0.20185  1.0000
  C   C1091     1.0  0.67857  0.70742  0.21045  1.0000
  C   C1092     1.0  0.68113  0.69186  0.22329  1.0000
  C   C1093     1.0  0.66575  0.67655  0.22789  1.0000
  H   H1715     1.0  0.63123  0.69224  0.19986  1.0000
  H   H1716     1.0  0.65819  0.71884  0.19148  1.0000
  H   H1717     1.0  0.69502  0.69169  0.23001  1.0000
  H   H1718     1.0  0.66791  0.66481  0.23812  1.0000
  C   C1094     1.0  0.64364  0.60011  0.34122  1.0000
  C   C1095     1.0  0.65123  0.59345  0.36329  1.0000
  C   C1096     1.0  0.64712  0.59821  0.38895  1.0000
  C   C1097     1.0  0.63556  0.60989  0.39282  1.0000
  C   C1098     1.0  0.62798  0.61657  0.37078  1.0000
  C   C1099     1.0  0.63189  0.61162  0.34512  1.0000
  H   H1719     1.0  0.66034  0.58454  0.36044  1.0000
  H   H1720     1.0  0.65309  0.59298  0.40563  1.0000
  H   H1721     1.0  0.61907  0.62566  0.37353  1.0000
  H   H1722     1.0  0.62602  0.61691  0.32832  1.0000
  C   C1100     1.0  0.64352  0.59639  0.14196  1.0000
  C   C1101     1.0  0.62890  0.60496  0.13948  1.0000
  C   C1102     1.0  0.62278  0.60864  0.11448  1.0000
  C   C1103     1.0  0.63118  0.60377  0.09159  1.0000
  C   C1104     1.0  0.64577  0.59512  0.09395  1.0000
  C   C1105     1.0  0.65192  0.59147  0.11906  1.0000
  H   H1723     1.0  0.62245  0.60908  0.15666  1.0000
  H   H1724     1.0  0.61156  0.61542  0.11280  1.0000
  H   H1725     1.0  0.65253  0.59148  0.07644  1.0000
  H   H1726     1.0  0.66331  0.58490  0.12068  1.0000
  C   C1106     1.0  0.55158  0.50833  0.23929  1.0000
  C   C1107     1.0  0.57068  0.51734  0.24271  1.0000
  C   C1108     1.0  0.57640  0.53612  0.24389  1.0000
  C   C1109     1.0  0.56308  0.54624  0.24152  1.0000
  C   C1110     1.0  0.54396  0.53722  0.23823  1.0000
  C   C1111     1.0  0.53823  0.51843  0.23710  1.0000
  H   H1727     1.0  0.58115  0.50972  0.24464  1.0000
  H   H1728     1.0  0.59114  0.54272  0.24667  1.0000
  H   H1729     1.0  0.53349  0.54485  0.23630  1.0000
  H   H1730     1.0  0.56731  0.54747  0.43370  1.0000
  C   C1112     1.0  0.59983  0.54482  0.40969  1.0000
  H   H1731     1.0  0.75961  0.71403  0.18968  1.0000
  N   N108      1.0  0.85854  0.68977  0.14009  1.0000
  C   C1113     1.0  0.85511  0.69860  0.16447  1.0000
  C   C1114     1.0  0.84604  0.67146  0.14075  1.0000
  C   C1115     1.0  0.87864  0.68902  0.13815  1.0000
  C   C1116     1.0  0.85433  0.69996  0.11697  1.0000
  C   C1117     1.0  0.56983  0.51511  0.98013  1.0000
  H   H1732     1.0  0.86430  0.71246  0.16456  1.0000
  H   H1733     1.0  0.85789  0.69118  0.18239  1.0000
  H   H1734     1.0  0.84828  0.66448  0.12251  1.0000
  H   H1735     1.0  0.75268  0.71768  0.43030  1.0000
  H   H1736     1.0  0.83078  0.67157  0.14216  1.0000
  H   H1737     1.0  0.88152  0.68169  0.12068  1.0000
  H   H1738     1.0  0.84170  0.69303  0.41661  1.0000
  H   H1739     1.0  0.88852  0.70259  0.13619  1.0000
  H   H1740     1.0  0.86377  0.71373  0.11529  1.0000
  H   H1741     1.0  0.83941  0.70113  0.11818  1.0000
  H   H1742     1.0  0.85616  0.69337  0.09830  1.0000
  N   N109      1.0  0.78918  0.61114  0.07040  1.0000
  C   C1118     1.0  0.79660  0.62443  0.04856  1.0000
  C   C1119     1.0  0.78804  0.62043  0.09513  1.0000
  C   C1120     1.0  0.80213  0.59938  0.07344  1.0000
  C   C1121     1.0  0.77001  0.60041  0.06444  1.0000
  H   H1743     1.0  0.79799  0.61795  0.02963  1.0000
  H   H1744     1.0  0.81086  0.63312  0.05264  1.0000
  H   H1745     1.0  0.78691  0.63323  0.04536  1.0000
  H   H1746     1.0  0.78247  0.61084  0.11207  1.0000
  H   H1747     1.0  0.80222  0.62880  0.10011  1.0000
  H   H1748     1.0  0.77834  0.62941  0.09352  1.0000
  H   H1749     1.0  0.81676  0.60718  0.07763  1.0000
  H   H1750     1.0  0.80322  0.59208  0.05517  1.0000
  H   H1751     1.0  0.79711  0.58927  0.08993  1.0000
  H   H1752     1.0  0.75985  0.60892  0.06247  1.0000
  H   H1753     1.0  0.76402  0.59010  0.08035  1.0000
  H   H1754     1.0  0.77020  0.59353  0.04558  1.0000
  S   S449      1.0  0.65425  0.61392  0.99310  1.0000
  H   H1755     1.0  0.56831  0.57154  0.14809  1.0000
  H   H1756     1.0  0.73608  0.70854  0.20516  1.0000
  H   H1757     1.0  0.77289  0.70654  0.23185  1.0000
  C   C1122     1.0  0.54986  0.51111  0.97913  1.0000
  H   H1758     1.0  0.72797  0.63223  0.40666  1.0000
  N   N110      1.0  0.85859  0.68752  0.38394  1.0000
  C   C1123     1.0  0.84585  0.66963  0.38062  1.0000
  C   C1124     1.0  0.85340  0.70058  0.36571  1.0000
  C   C1125     1.0  0.87847  0.68710  0.37790  1.0000
  C   C1126     1.0  0.85660  0.69276  0.41141  1.0000
  H   H1759     1.0  0.84966  0.65931  0.39348  1.0000
  H   H1760     1.0  0.84642  0.66557  0.35983  1.0000
  H   H1761     1.0  0.83078  0.66933  0.38574  1.0000
  S   S450      1.0  0.80827  0.71616  0.98606  1.0000
  H   H1762     1.0  0.85511  0.69718  0.34486  1.0000
  S   S451      1.0  0.95840  0.73715  0.08397  1.0000
  H   H1763     1.0  0.88026  0.68257  0.35760  1.0000
  H   H1764     1.0  0.79806  0.73890  0.46127  1.0000
  H   H1765     1.0  0.86043  0.68324  0.42574  1.0000
  H   H1766     1.0  0.61594  0.57747  0.42577  1.0000
  N   N111      1.0  0.66227  0.65505  0.14909  1.0000
  C   C1127     1.0  0.66396  0.64352  0.17217  1.0000
  C   C1128     1.0  0.66795  0.64743  0.12472  1.0000
  C   C1129     1.0  0.67481  0.67310  0.15176  1.0000
  C   C1130     1.0  0.64235  0.65618  0.14776  1.0000
  H   H1767     1.0  0.65975  0.64884  0.19088  1.0000
  H   H1768     1.0  0.67873  0.64217  0.17383  1.0000
  H   H1769     1.0  0.65458  0.62986  0.17092  1.0000
  H   H1770     1.0  0.65894  0.63376  0.12213  1.0000
  H   H1771     1.0  0.66662  0.65565  0.10685  1.0000
  H   H1772     1.0  0.68293  0.64644  0.12505  1.0000
  H   H1773     1.0  0.67397  0.68215  0.13462  1.0000
  H   H1774     1.0  0.68993  0.67275  0.15321  1.0000
  H   H1775     1.0  0.67079  0.67931  0.16976  1.0000
  H   H1776     1.0  0.64051  0.66490  0.13073  1.0000
  H   H1777     1.0  0.63755  0.66168  0.16603  1.0000
  H   H1778     1.0  0.63249  0.64282  0.14558  1.0000
  H   H1779     1.0  0.89903  0.74468  0.26424  1.0000
  H   H1780     1.0  0.90206  0.74220  0.33790  1.0000
  H   H1781     1.0  0.86244  0.71434  0.36782  1.0000
  H   H1782     1.0  0.59079  0.58202  0.38144  1.0000
  H   H1783     1.0  0.69009  0.60437  0.40460  1.0000
  H   H1784     1.0  0.88251  0.68202  0.15576  1.0000
  H   H1785     1.0  0.84876  0.66334  0.15795  1.0000
  S   S452      1.0  0.96472  0.73353  0.34137  1.0000
  H   H1786     1.0  0.50660  0.50344  0.29788  1.0000
  H   H1787     1.0  0.70998  0.63235  0.38336  1.0000
  C   C1131     1.0  0.55059  0.54057  0.99372  1.0000
  C   C1132     1.0  0.80199  0.68455  0.45040  1.0000
  S   S453      1.0  0.73062  0.74031  0.40283  1.0000
  S   S454      1.0  0.61161  0.58758  0.99288  1.0000
  C   C1133     1.0  0.57092  0.55456  0.41403  1.0000
  H   H1788     1.0  0.61152  0.57382  0.37759  1.0000
  C   C1134     1.0  0.76212  0.71208  0.24235  1.0000
  H   H1789     1.0  0.97692  0.73030  0.23878  1.0000
  H   H1790     1.0  0.84011  0.69945  0.16651  1.0000
  C   C1135     1.0  0.59595  0.56968  0.38245  1.0000
  H   H1791     1.0  0.93959  0.71769  0.46841  1.0000
  H   H1792     1.0  0.71872  0.65147  0.40266  1.0000
  N   N112      1.0  0.59172  0.56046  0.40877  1.0000
  H   H1793     1.0  0.77745  0.71829  0.43108  1.0000
  C   C1136     1.0  0.76623  0.74465  0.32585  1.0000
  C   C1137     1.0  0.69518  0.60941  0.42402  1.0000
  H   H1794     1.0  0.74547  0.72999  0.18905  1.0000
  H   H1795     1.0  0.76811  0.71703  0.26136  1.0000
  N   N113      1.0  0.65736  0.72711  0.28070  1.0000
  C   C1138     1.0  0.74317  0.73350  0.24141  1.0000
  H   H1796     1.0  0.55273  0.50533  0.32819  1.0000
  H   H1797     1.0  0.57241  0.57389  0.18267  1.0000
  H   H1798     1.0  0.86578  0.70632  0.41450  1.0000
  H   H1799     1.0  0.71963  0.63039  0.45489  1.0000
  Fe  Fe230     1.0  0.97521  0.74392  0.12059  1.0000
  H   H1800     1.0  0.88843  0.70054  0.37908  1.0000
  C   C1139     1.0  0.75899  0.72679  0.98767  1.0000
  S   S455      1.0  0.86875  0.73675  0.30806  1.0000
  H   H1801     1.0  0.67888  0.71445  0.26753  1.0000
  H   H1802     1.0  0.68560  0.65002  0.41855  1.0000
  H   H1803     1.0  0.61556  0.54887  0.40620  1.0000
  H   H1804     1.0  0.59009  0.58577  0.15859  1.0000
  H   H1805     1.0  0.53838  0.51822  0.31267  1.0000
  H   H1806     1.0  0.77016  0.73711  0.41778  1.0000
  C   C1140     1.0  0.54220  0.50521  0.31282  1.0000
  C   C1141     1.0  0.70685  0.63508  0.45002  1.0000
  S   S456      1.0  0.97780  0.69641  0.35358  1.0000
  C   C1142     1.0  0.68266  0.63523  0.41871  1.0000
  Fe  Fe231     1.0  0.98662  0.74197  0.06102  1.0000
  N   N114      1.0  0.69988  0.62910  0.42399  1.0000
  H   H1807     1.0  0.57967  0.52921  0.17015  1.0000
  C   C1143     1.0  0.73247  0.61647  0.99907  1.0000
  H   H1808     1.0  0.56392  0.54526  0.39903  1.0000
  C   C1144     1.0  0.71479  0.63662  0.40326  1.0000
  H   H1809     1.0  0.73759  0.61246  0.98058  1.0000
  H   H1810     1.0  0.83833  0.70091  0.36910  1.0000
  H   H1811     1.0  0.55459  0.50765  0.03595  1.0000
  H   H1812     1.0  0.99314  0.64027  0.35449  1.0000
  H   H1813     1.0  0.76137  0.73116  0.00822  1.0000
  H   H1814     1.0  0.58722  0.55550  0.12087  1.0000
  H   H1815     1.0  0.60888  0.56942  0.13192  1.0000
  S   S457      1.0  0.69769  0.59482  0.98721  1.0000
  H   H1816     1.0  0.98824  0.66129  0.23150  1.0000
  C   C1145     1.0  0.89997  0.72941  0.32897  1.0000
  H   H1817     1.0  0.98195  0.72767  0.98776  1.0000
  C   C1146     1.0  0.60027  0.57282  0.42909  1.0000
  Fe  Fe232     1.0  0.98740  0.72516  0.36417  1.0000
  C   C1147     1.0  0.66148  0.74045  0.25840  1.0000
  H   H1818     1.0  0.64506  0.70529  0.25654  1.0000
  C   C1148     1.0  0.59752  0.55701  0.13684  1.0000
  H   H1819     1.0  0.60436  0.54573  0.13619  1.0000
  H   H1820     1.0  0.59382  0.53518  0.39455  1.0000
  H   H1821     1.0  0.93934  0.69532  0.45972  1.0000
  C   C1149     1.0  0.57054  0.54455  0.99479  1.0000
  C   C1150     1.0  0.57342  0.54089  0.16888  1.0000
  H   H1822     1.0  0.59469  0.58493  0.42904  1.0000
  C   C1151     1.0  0.67445  0.72065  0.28534  1.0000
  H   H1823     1.0  0.60960  0.54893  0.18408  1.0000
  H   H1824     1.0  0.59603  0.56078  0.20327  1.0000
  H   H1825     1.0  0.56260  0.53843  0.15360  1.0000
  C   C1152     1.0  0.97503  0.74302  0.20060  1.0000
  H   H1826     1.0  0.59743  0.56630  0.44916  1.0000
  H   H1827     1.0  0.56576  0.54124  0.18812  1.0000
  N   N115      1.0  0.58820  0.55770  0.16299  1.0000
  C   C1153     1.0  0.60252  0.56006  0.18335  1.0000
  N   N116      1.0  0.75732  0.72650  0.22646  1.0000
  H   H1828     1.0  0.66406  0.74629  0.31075  1.0000
  H   H1829     1.0  0.54950  0.50443  0.29343  1.0000
  C   C1154     1.0  0.58031  0.53188  0.98781  1.0000
  H   H1830     1.0  0.64892  0.74566  0.25419  1.0000
  H   H1831     1.0  0.54322  0.55052  0.99904  1.0000
  H   H1832     1.0  0.54410  0.52081  0.05719  1.0000
  H   H1833     1.0  0.64809  0.72553  0.32167  1.0000
  H   H1834     1.0  0.68671  0.73177  0.29022  1.0000
  H   H1835     1.0  0.51955  0.50549  0.09224  1.0000
  H   H1836     1.0  0.74446  0.71771  0.98743  1.0000
  H   H1837     1.0  0.92438  0.72983  0.27225  1.0000
  C   C1155     1.0  0.97783  0.74608  0.43817  1.0000
  H   H1838     1.0  0.56000  0.50856  0.07014  1.0000
  C   C1156     1.0  0.75307  0.74404  0.46282  1.0000
  H   H1839     1.0  0.78117  0.74656  0.23916  1.0000
  H   H1840     1.0  0.57830  0.55742  0.00113  1.0000
  C   C1157     1.0  0.54842  0.50806  0.05624  1.0000
  H   H1841     1.0  0.99128  0.50124  0.18026  1.0000
  S   S458      1.0  0.60549  0.53649  0.98809  1.0000
  H   H1842     1.0  0.63984  0.74126  0.30143  1.0000
  S   S459      1.0  0.51506  0.51967  0.98440  1.0000
  S   S460      1.0  0.78036  0.74639  0.29670  1.0000
  Fe  Fe233     1.0  0.62466  0.56445  0.99238  1.0000
  H   H1843     1.0  0.62842  0.71643  0.27024  1.0000
  C   C1158     1.0  0.94418  0.70556  0.47454  1.0000
  H   H1844     1.0  0.94888  0.74210  0.26887  1.0000
  H   H1845     1.0  0.73855  0.73536  0.46029  1.0000
  H   H1846     1.0  0.74879  0.73899  0.26039  1.0000
  H   H1847     1.0  0.73916  0.74437  0.22996  1.0000
  H   H1848     1.0  0.93461  0.74510  0.29680  1.0000
  C   C1159     1.0  0.78670  0.74608  0.46322  1.0000
  C   C1160     1.0  0.55084  0.51240  0.47774  1.0000
  Fe  Fe234     1.0  0.59765  0.59026  0.74016  1.0000
  S   S461      1.0  0.62280  0.57885  0.74289  1.0000
  S   S462      1.0  0.56776  0.57117  0.73839  1.0000
  Fe  Fe235     1.0  0.62416  0.62937  0.73532  1.0000
  S   S463      1.0  0.65049  0.61946  0.73782  1.0000
  S   S464      1.0  0.62567  0.65921  0.72869  1.0000
  Fe  Fe236     1.0  0.63604  0.59874  0.71003  1.0000
  S   S465      1.0  0.64919  0.58926  0.67373  1.0000
  Fe  Fe237     1.0  0.63400  0.60084  0.77061  1.0000
  S   S466      1.0  0.64693  0.59365  0.80842  1.0000
  S   S467      1.0  0.61043  0.60941  0.70595  1.0000
  S   S468      1.0  0.60813  0.61158  0.76956  1.0000
  H   H1849     1.0  0.60309  0.57306  0.63021  1.0000
  H   H1850     1.0  0.90967  0.70479  0.49681  1.0000
  H   H1851     1.0  0.63656  0.69652  0.76640  1.0000
  H   H1852     1.0  0.52231  0.51299  0.72717  1.0000
  H   H1853     1.0  0.67136  0.63166  0.90176  1.0000
  H   H1854     1.0  0.93304  0.73723  0.83882  1.0000
  Fe  Fe238     1.0  0.63419  0.59997  0.52336  1.0000
  S   S469      1.0  0.62686  0.61264  0.56062  1.0000
  Fe  Fe239     1.0  0.63459  0.60045  0.96245  1.0000
  S   S470      1.0  0.62775  0.61416  0.92507  1.0000
  S   S471      1.0  0.64543  0.57559  0.52450  1.0000
  S   S472      1.0  0.64682  0.57688  0.96046  1.0000
  H   H1855     1.0  0.74067  0.69595  0.72302  1.0000
  S   S473      1.0  0.98142  0.71929  0.62384  1.0000
  H   H1856     1.0  0.52760  0.52066  0.54129  1.0000
  Fe  Fe240     1.0  0.96270  0.71069  0.58956  1.0000
  S   S474      1.0  0.94127  0.68399  0.58596  1.0000
  Fe  Fe241     1.0  0.78473  0.66552  0.55567  1.0000
  S   S475      1.0  0.78756  0.69508  0.55180  1.0000
  S   S476      1.0  0.75375  0.64940  0.56178  1.0000
  Fe  Fe242     1.0  0.82845  0.67175  0.55684  1.0000
  S   S477      1.0  0.83351  0.70131  0.55259  1.0000
  S   S478      1.0  0.85312  0.65897  0.56162  1.0000
  Fe  Fe243     1.0  0.80929  0.69761  0.58282  1.0000
  S   S479      1.0  0.81256  0.71618  0.61717  1.0000
  Fe  Fe244     1.0  0.81126  0.69542  0.52204  1.0000
  H   H1857     1.0  0.53800  0.52484  0.82262  1.0000
  S   S480      1.0  0.80522  0.66817  0.58867  1.0000
  S   S481      1.0  0.80752  0.66577  0.52424  1.0000
  Fe  Fe245     1.0  0.80256  0.73560  0.80471  1.0000
  S   S482      1.0  0.78893  0.70624  0.80500  1.0000
  H   H1858     1.0  0.95992  0.68735  0.50969  1.0000
  Fe  Fe246     1.0  0.84243  0.72998  0.80264  1.0000
  S   S483      1.0  0.83156  0.70022  0.80269  1.0000
  Fe  Fe247     1.0  0.97357  0.74515  0.61815  1.0000
  Fe  Fe248     1.0  0.81107  0.70566  0.77323  1.0000
  S   S484      1.0  0.80220  0.68872  0.73776  1.0000
  Fe  Fe249     1.0  0.81067  0.70397  0.83433  1.0000
  S   S485      1.0  0.80440  0.68562  0.87107  1.0000
  S   S486      1.0  0.82336  0.73529  0.77102  1.0000
  S   S487      1.0  0.82286  0.73343  0.83613  1.0000
  Fe  Fe250     1.0  0.96219  0.71325  0.83528  1.0000
  S   S488      1.0  0.95334  0.73583  0.58573  1.0000
  S   S489      1.0  0.93088  0.69938  0.83737  1.0000
  S   S490      1.0  0.97940  0.71016  0.79888  1.0000
  S   S491      1.0  0.98226  0.70582  0.86380  1.0000
  H   H1859     1.0  0.62148  0.55554  0.65558  1.0000
  C   C1161     1.0  0.58100  0.53388  0.48567  1.0000
  S   S492      1.0  0.69509  0.72692  0.69598  1.0000
  H   H1860     1.0  0.85686  0.67734  0.88446  1.0000
  C   C1162     1.0  0.75881  0.73577  0.94170  1.0000
  C   C1163     1.0  0.99313  0.73649  0.48481  1.0000
  N   N117      1.0  0.65394  0.71852  0.78632  1.0000
  H   H1861     1.0  0.67118  0.72834  0.75100  1.0000
  H   H1862     1.0  0.74439  0.72679  0.93971  1.0000
  H   H1863     1.0  0.97523  0.72996  0.68692  1.0000
  Fe  Fe251     1.0  0.66654  0.59086  0.49313  1.0000
  C   C1164     1.0  0.88547  0.70674  0.88811  1.0000
  H   H1864     1.0  0.56767  0.58015  0.90422  1.0000
  H   H1865     1.0  0.98986  0.61719  0.88173  1.0000
  C   C1165     1.0  0.88909  0.73164  0.81389  1.0000
  C   C1166     1.0  0.88463  0.71320  0.81110  1.0000
  C   C1167     1.0  0.89758  0.70343  0.81835  1.0000
  C   C1168     1.0  0.91518  0.71207  0.82803  1.0000
  C   C1169     1.0  0.91967  0.73052  0.83083  1.0000
  C   C1170     1.0  0.98102  0.74786  0.48606  1.0000
  H   H1866     1.0  0.87144  0.70648  0.80278  1.0000
  H   H1867     1.0  0.89406  0.68915  0.81613  1.0000
  C   C1171     1.0  0.76569  0.72316  0.69656  1.0000
  H   H1868     1.0  0.89232  0.70308  0.90596  1.0000
  C   C1172     1.0  0.80983  0.70829  0.65056  1.0000
  C   C1173     1.0  0.81728  0.72003  0.67030  1.0000
  C   C1174     1.0  0.81539  0.71419  0.69708  1.0000
  C   C1175     1.0  0.80574  0.69659  0.70436  1.0000
  C   C1176     1.0  0.79828  0.68485  0.68462  1.0000
  C   C1177     1.0  0.80034  0.69065  0.65784  1.0000
  H   H1869     1.0  0.82466  0.73370  0.66482  1.0000
  H   H1870     1.0  0.82133  0.72334  0.71202  1.0000
  H   H1871     1.0  0.79074  0.67123  0.69008  1.0000
  H   H1872     1.0  0.79430  0.68155  0.64287  1.0000
  H   H1873     1.0  0.84708  0.71532  0.91996  1.0000
  H   H1874     1.0  0.86937  0.73077  0.91033  1.0000
  C   C1178     1.0  0.80241  0.68261  0.92509  1.0000
  C   C1179     1.0  0.80448  0.69430  0.90286  1.0000
  C   C1180     1.0  0.80731  0.71258  0.90645  1.0000
  C   C1181     1.0  0.80838  0.71910  0.93205  1.0000
  N   N118      1.0  0.69547  0.62989  0.92412  1.0000
  H   H1875     1.0  0.80015  0.66845  0.92251  1.0000
  H   H1876     1.0  0.80874  0.72172  0.88957  1.0000
  H   H1877     1.0  0.81084  0.73327  0.93458  1.0000
  C   C1182     1.0  0.91669  0.67872  0.57915  1.0000
  C   C1183     1.0  0.90786  0.66080  0.57541  1.0000
  C   C1184     1.0  0.88865  0.65537  0.56957  1.0000
  C   C1185     1.0  0.87767  0.66770  0.56729  1.0000
  C   C1186     1.0  0.88638  0.68585  0.57079  1.0000
  C   C1187     1.0  0.90588  0.69135  0.57685  1.0000
  H   H1878     1.0  0.91595  0.65090  0.57715  1.0000
  H   H1879     1.0  0.88218  0.64136  0.56705  1.0000
  H   H1880     1.0  0.87814  0.69559  0.56892  1.0000
  H   H1881     1.0  0.91249  0.70526  0.57972  1.0000
  H   H1882     1.0  0.62473  0.71969  0.78858  1.0000
  H   H1883     1.0  0.83969  0.68454  0.90433  1.0000
  S   S493      1.0  0.98748  0.71928  0.56002  1.0000
  C   C1188     1.0  0.70350  0.63565  0.94970  1.0000
  H   H1884     1.0  0.54304  0.52452  0.56853  1.0000
  C   C1189     1.0  0.98009  0.74234  0.69680  1.0000
  H   H1885     1.0  0.68504  0.60536  0.90448  1.0000
  H   H1886     1.0  0.78929  0.72254  0.73602  1.0000
  H   H1887     1.0  0.95450  0.74047  0.75756  1.0000
  H   H1888     1.0  0.91322  0.72661  0.77183  1.0000
  C   C1190     1.0  0.60785  0.54538  0.66047  1.0000
  H   H1889     1.0  0.86396  0.70144  0.61975  1.0000
  C   C1191     1.0  0.65360  0.73179  0.62977  1.0000
  S   S494      1.0  0.65612  0.61560  0.49329  1.0000
  C   C1192     1.0  0.71399  0.61090  0.50890  1.0000
  C   C1193     1.0  0.73379  0.61343  0.50583  1.0000
  C   C1194     1.0  0.74632  0.62589  0.52081  1.0000
  C   C1195     1.0  0.73912  0.63586  0.53913  1.0000
  C   C1196     1.0  0.71936  0.63370  0.54154  1.0000
  C   C1197     1.0  0.70685  0.62134  0.52652  1.0000
  H   H1890     1.0  0.93776  0.70874  0.54066  1.0000
  H   H1891     1.0  0.76148  0.62728  0.51889  1.0000
  H   H1892     1.0  0.71370  0.64157  0.55531  1.0000
  H   H1893     1.0  0.69167  0.61969  0.52887  1.0000
  C   C1198     1.0  0.64528  0.67732  0.71790  1.0000
  C   C1199     1.0  0.64175  0.69387  0.71112  1.0000
  C   C1200     1.0  0.65676  0.70898  0.70417  1.0000
  C   C1201     1.0  0.67566  0.70789  0.70392  1.0000
  C   C1202     1.0  0.67922  0.69126  0.71022  1.0000
  C   C1203     1.0  0.66416  0.67606  0.71717  1.0000
  H   H1894     1.0  0.62725  0.69503  0.71155  1.0000
  H   H1895     1.0  0.65359  0.72148  0.69918  1.0000
  H   H1896     1.0  0.69372  0.69011  0.71000  1.0000
  H   H1897     1.0  0.66716  0.66345  0.72240  1.0000
  C   C1204     1.0  0.64095  0.59923  0.84065  1.0000
  C   C1205     1.0  0.64815  0.59183  0.86241  1.0000
  C   C1206     1.0  0.64406  0.59612  0.88834  1.0000
  C   C1207     1.0  0.63290  0.60807  0.89279  1.0000
  C   C1208     1.0  0.62566  0.61546  0.87107  1.0000
  C   C1209     1.0  0.62955  0.61099  0.84513  1.0000
  H   H1898     1.0  0.65695  0.58270  0.85913  1.0000
  H   H1899     1.0  0.64966  0.59024  0.90479  1.0000
  H   H1900     1.0  0.61702  0.62474  0.87429  1.0000
  H   H1901     1.0  0.62397  0.61683  0.82857  1.0000
  C   C1210     1.0  0.64196  0.59524  0.64266  1.0000
  C   C1211     1.0  0.64427  0.58532  0.62072  1.0000
  C   C1212     1.0  0.63951  0.59037  0.59550  1.0000
  C   C1213     1.0  0.63235  0.60537  0.59204  1.0000
  C   C1214     1.0  0.62968  0.61504  0.61410  1.0000
  C   C1215     1.0  0.63450  0.61004  0.63928  1.0000
  H   H1902     1.0  0.64989  0.57376  0.62313  1.0000
  H   H1903     1.0  0.64149  0.58271  0.57878  1.0000
  H   H1904     1.0  0.62409  0.62662  0.61161  1.0000
  H   H1905     1.0  0.63286  0.61794  0.65592  1.0000
  H   H1906     1.0  0.76480  0.72453  0.50074  1.0000
  C   C1216     1.0  0.56828  0.51828  0.74307  1.0000
  C   C1217     1.0  0.57405  0.53710  0.74368  1.0000
  C   C1218     1.0  0.56120  0.54733  0.73832  1.0000
  C   C1219     1.0  0.54248  0.53838  0.73253  1.0000
  C   C1220     1.0  0.53671  0.51956  0.73190  1.0000
  H   H1907     1.0  0.57840  0.51058  0.74725  1.0000
  H   H1908     1.0  0.58845  0.54365  0.74842  1.0000
  H   H1909     1.0  0.53237  0.54609  0.72834  1.0000
  H   H1910     1.0  0.87159  0.66161  0.65538  1.0000
  C   C1221     1.0  0.57391  0.53981  0.66879  1.0000
  C   C1222     1.0  0.59492  0.56718  0.68190  1.0000
  C   C1223     1.0  0.59004  0.56231  0.63581  1.0000
  H   H1911     1.0  0.56156  0.54575  0.67116  1.0000
  H   H1912     1.0  0.59628  0.56120  0.70170  1.0000
  H   H1913     1.0  0.58304  0.57378  0.68356  1.0000
  H   H1914     1.0  0.60821  0.57774  0.67718  1.0000
  H   H1915     1.0  0.57791  0.56863  0.63612  1.0000
  H   H1916     1.0  0.88786  0.69783  0.87232  1.0000
  C   C1224     1.0  0.64926  0.69971  0.77870  1.0000
  C   C1225     1.0  0.70957  0.63759  0.90248  1.0000
  H   H1917     1.0  0.84146  0.71036  0.87304  1.0000
  H   H1918     1.0  0.67272  0.69654  0.62185  1.0000
  C   C1226     1.0  0.54959  0.50934  0.73718  1.0000
  C   C1227     1.0  0.85142  0.68970  0.62070  1.0000
  H   H1919     1.0  0.71655  0.63107  0.95312  1.0000
  H   H1920     1.0  0.85076  0.68344  0.60128  1.0000
  C   C1228     1.0  0.55102  0.54223  0.49006  1.0000
  C   C1229     1.0  0.98659  0.74217  0.72279  1.0000
  H   H1921     1.0  0.93861  0.67807  0.52942  1.0000
  H   H1922     1.0  0.66121  0.69669  0.76700  1.0000
  H   H1923     1.0  0.71357  0.65242  0.90226  1.0000
  H   H1924     1.0  0.64051  0.73610  0.80695  1.0000
  H   H1925     1.0  0.86857  0.71261  0.93366  1.0000
  S   S495      1.0  0.97452  0.74283  0.83706  1.0000
  C   C1230     1.0  0.94296  0.71327  0.52010  1.0000
  H   H1926     1.0  0.56478  0.54721  0.93919  1.0000
  C   C1231     1.0  0.53893  0.51601  0.55143  1.0000
  H   H1927     1.0  0.63196  0.71148  0.59479  1.0000
  C   C1232     1.0  0.86241  0.71647  0.91529  1.0000
  S   S496      1.0  0.51563  0.52006  0.48367  1.0000
  N   N119      1.0  0.76078  0.72147  0.72521  1.0000
  C   C1233     1.0  0.91574  0.69338  0.50199  1.0000
  H   H1928     1.0  0.54779  0.50937  0.80459  1.0000
  H   H1929     1.0  0.99296  0.63820  0.91820  1.0000
  C   C1234     1.0  0.83566  0.66137  0.64222  1.0000
  H   H1930     1.0  0.75082  0.74530  0.72502  1.0000
  N   N120      1.0  0.58633  0.56330  0.91237  1.0000
  C   C1235     1.0  0.60205  0.56300  0.92983  1.0000
  C   C1236     1.0  0.57976  0.57956  0.91672  1.0000
  C   C1237     1.0  0.59312  0.56335  0.88457  1.0000
  H   H1931     1.0  0.60735  0.55086  0.92750  1.0000
  H   H1932     1.0  0.61424  0.57483  0.92575  1.0000
  H   H1933     1.0  0.59745  0.56309  0.95091  1.0000
  H   H1934     1.0  0.57503  0.58017  0.93771  1.0000
  H   H1935     1.0  0.60506  0.57528  0.87935  1.0000
  H   H1936     1.0  0.58167  0.56361  0.87075  1.0000
  H   H1937     1.0  0.59843  0.55139  0.88070  1.0000
  N   N121      1.0  0.65802  0.71701  0.61532  1.0000
  C   C1238     1.0  0.77786  0.72942  0.73982  1.0000
  N   N122      1.0  0.51776  0.50039  0.81412  1.0000
  C   C1239     1.0  0.85522  0.68630  0.90058  1.0000
  H   H1938     1.0  0.68319  0.71947  0.79295  1.0000
  H   H1939     1.0  0.64606  0.69030  0.79626  1.0000
  C   C1240     1.0  0.80659  0.70741  0.95426  1.0000
  C   C1241     1.0  0.66986  0.72430  0.59127  1.0000
  C   C1242     1.0  0.80350  0.68913  0.95067  1.0000
  C   C1243     1.0  0.85673  0.71083  0.86945  1.0000
  H   H1940     1.0  0.92483  0.71986  0.74395  1.0000
  H   H1941     1.0  0.70336  0.60500  0.92729  1.0000
  S   S497      1.0  0.60616  0.53876  0.48663  1.0000
  C   C1244     1.0  0.69072  0.61023  0.92369  1.0000
  C   C1245     1.0  0.94412  0.68352  0.50928  1.0000
  H   H1942     1.0  0.74983  0.71000  0.47881  1.0000
  H   H1943     1.0  0.68375  0.73322  0.59624  1.0000
  H   H1944     1.0  0.66203  0.74472  0.76733  1.0000
  C   C1246     1.0  0.63743  0.72204  0.80088  1.0000
  H   H1945     1.0  0.86969  0.66317  0.62039  1.0000
  H   H1946     1.0  0.73947  0.60545  0.49221  1.0000
  H   H1947     1.0  0.67981  0.60405  0.93941  1.0000
  H   H1948     1.0  0.75020  0.70063  0.75503  1.0000
  H   H1949     1.0  0.70390  0.63351  0.88290  1.0000
  C   C1247     1.0  0.64013  0.70462  0.60786  1.0000
  H   H1950     1.0  0.93993  0.67249  0.49550  1.0000
  C   C1248     1.0  0.57098  0.54660  0.49123  1.0000
  H   H1951     1.0  0.75302  0.71763  0.68491  1.0000
  N   N123      1.0  0.86497  0.70509  0.89337  1.0000
  H   H1952     1.0  0.85759  0.70202  0.85286  1.0000
  H   H1953     1.0  0.76455  0.69491  0.72905  1.0000
  H   H1954     1.0  0.83965  0.69058  0.67101  1.0000
  H   H1955     1.0  0.83852  0.69476  0.62303  1.0000
  H   H1956     1.0  0.64532  0.73914  0.61770  1.0000
  H   H1957     1.0  0.80194  0.67998  0.96757  1.0000
  H   H1958     1.0  0.65964  0.70107  0.65023  1.0000
  C   C1249     1.0  0.53508  0.51477  0.80720  1.0000
  Fe  Fe252     1.0  0.62536  0.56660  0.49172  1.0000
  H   H1959     1.0  0.76944  0.72828  0.93613  1.0000
  C   C1250     1.0  0.75368  0.70240  0.73342  1.0000
  H   H1960     1.0  0.64289  0.69319  0.59710  1.0000
  C   C1251     1.0  0.74593  0.73089  0.73112  1.0000
  C   C1252     1.0  0.90661  0.74026  0.82389  1.0000
  H   H1961     1.0  0.86091  0.68153  0.91872  1.0000
  S   S498      1.0  0.87355  0.74434  0.80374  1.0000
  N   N124      1.0  0.70154  0.61519  0.61987  1.0000
  C   C1253     1.0  0.69701  0.59565  0.62486  1.0000
  C   C1254     1.0  0.72143  0.62169  0.60952  1.0000
  C   C1255     1.0  0.69904  0.62383  0.64480  1.0000
  C   C1256     1.0  0.68866  0.61956  0.60032  1.0000
  H   H1962     1.0  0.68239  0.59041  0.63374  1.0000
  H   H1963     1.0  0.70690  0.59186  0.63884  1.0000
  H   H1964     1.0  0.69799  0.58861  0.60629  1.0000
  H   H1965     1.0  0.72537  0.63638  0.60527  1.0000
  H   H1966     1.0  0.73166  0.61878  0.62372  1.0000
  H   H1967     1.0  0.72382  0.61537  0.59074  1.0000
  H   H1968     1.0  0.70849  0.62076  0.66007  1.0000
  H   H1969     1.0  0.68414  0.61913  0.65313  1.0000
  H   H1970     1.0  0.70231  0.63858  0.64179  1.0000
  H   H1971     1.0  0.67363  0.61565  0.60794  1.0000
  H   H1972     1.0  0.68944  0.61258  0.58165  1.0000
  H   H1973     1.0  0.69219  0.63412  0.59527  1.0000
  H   H1974     1.0  0.69326  0.62996  0.96649  1.0000
  C   C1257     1.0  0.66847  0.70735  0.63242  1.0000
  H   H1975     1.0  0.93781  0.72523  0.51490  1.0000
  H   H1976     1.0  0.86510  0.69726  0.66863  1.0000
  C   C1258     1.0  0.86991  0.67069  0.63872  1.0000
  C   C1259     1.0  0.65863  0.73044  0.76237  1.0000
  S   S499      1.0  0.61297  0.59017  0.49248  1.0000
  C   C1260     1.0  0.67043  0.72191  0.80335  1.0000
  H   H1977     1.0  0.57854  0.55978  0.49666  1.0000
  N   N125      1.0  0.59166  0.55363  0.66169  1.0000
  H   H1978     1.0  0.57494  0.53272  0.68788  1.0000
  H   H1979     1.0  0.58792  0.55261  0.61984  1.0000
  H   H1980     1.0  0.55847  0.54686  0.90540  1.0000
  N   N126      1.0  0.93673  0.69893  0.50146  1.0000
  H   H1981     1.0  0.73229  0.74364  0.97400  1.0000
  H   H1982     1.0  0.64654  0.72819  0.74899  1.0000
  H   H1983     1.0  0.82219  0.66550  0.64499  1.0000
  H   H1984     1.0  0.67293  0.71351  0.57930  1.0000
  H   H1985     1.0  0.88285  0.68207  0.63708  1.0000
  H   H1986     1.0  0.98713  0.72972  0.73257  1.0000
  H   H1987     1.0  0.97922  0.64507  0.87604  1.0000
  H   H1988     1.0  0.53374  0.52193  0.78827  1.0000
  H   H1989     1.0  0.57062  0.52960  0.65361  1.0000
  H   H1990     1.0  0.64510  0.72688  0.64841  1.0000
  H   H1991     1.0  0.55148  0.51858  0.53731  1.0000
  H   H1992     1.0  0.68163  0.71648  0.63949  1.0000
  H   H1993     1.0  0.63076  0.69901  0.62556  1.0000
  H   H1994     1.0  0.77162  0.73735  0.68980  1.0000
  C   C1261     1.0  0.85257  0.68560  0.66784  1.0000
  H   H1995     1.0  0.68102  0.65083  0.92064  1.0000
  H   H1996     1.0  0.63350  0.71330  0.81912  1.0000
  C   C1262     1.0  0.57048  0.54734  0.91853  1.0000
  H   H1997     1.0  0.59133  0.59185  0.91194  1.0000
  Fe  Fe253     1.0  0.97864  0.74479  0.55707  1.0000
  S   S500      1.0  0.69861  0.59459  0.49052  1.0000
  H   H1998     1.0  0.76052  0.74708  0.92695  1.0000
  C   C1263     1.0  0.67805  0.63604  0.92063  1.0000
  H   H1999     1.0  0.83594  0.65131  0.65823  1.0000
  N   N127      1.0  0.85240  0.67684  0.64239  1.0000
  H   H2000     1.0  0.83506  0.65459  0.62310  1.0000
  H   H2001     1.0  0.85295  0.67624  0.68478  1.0000
  H   H2002     1.0  0.94237  0.74830  0.78404  1.0000
  H   H2003     1.0  0.66718  0.63058  0.93679  1.0000
  H   H2004     1.0  0.95871  0.71774  0.52013  1.0000
  H   H2005     1.0  0.70724  0.65041  0.95087  1.0000
  H   H2006     1.0  0.73271  0.72518  0.72059  1.0000
  H   H2007     1.0  0.89320  0.72061  0.88154  1.0000
  H   H2008     1.0  0.67426  0.73595  0.80956  1.0000
  C   C1264     1.0  0.54082  0.52509  0.48348  1.0000
  H   H2009     1.0  0.77464  0.72837  0.76150  1.0000
  H   H2010     1.0  0.60948  0.53883  0.67980  1.0000
  H   H2011     1.0  0.60603  0.53513  0.64530  1.0000
  H   H2012     1.0  0.57513  0.53483  0.91650  1.0000
  H   H2013     1.0  0.66679  0.74169  0.63500  1.0000
  H   H2014     1.0  0.66270  0.73229  0.57840  1.0000
  H   H2015     1.0  0.49905  0.51456  0.79677  1.0000
  H   H2016     1.0  0.54341  0.55216  0.49456  1.0000
  H   H2017     1.0  0.86416  0.72474  0.86270  1.0000
  H   H2018     1.0  0.72283  0.63309  0.90449  1.0000
  C   C1265     1.0  0.91728  0.72985  0.75064  1.0000
  Fe  Fe254     1.0  0.99322  0.73917  0.80246  1.0000
  C   C1266     1.0  0.76409  0.71933  0.48053  1.0000
  H   H2019     1.0  0.90972  0.68799  0.52192  1.0000
  H   H2020     1.0  0.77655  0.71585  0.69135  1.0000
  H   H2021     1.0  0.74209  0.73006  0.75264  1.0000
  H   H2022     1.0  0.66739  0.71322  0.82169  1.0000
  H   H2023     1.0  0.90392  0.72792  0.73983  1.0000
  H   H2024     1.0  0.50257  0.51800  0.83131  1.0000
  H   H2025     1.0  0.99438  0.65111  0.84668  1.0000
  C   C1267     1.0  0.99072  0.73876  0.97589  1.0000
  H   H2026     1.0  0.98625  0.72519  0.93884  1.0000
  C   C1268     1.0  0.57081  0.51677  0.47891  1.0000
  H   H2027     1.0  0.52183  0.50113  0.85591  1.0000
  H   H2028     1.0  0.94306  0.74190  0.71130  1.0000
  H   H2029     1.0  0.57723  0.50520  0.97471  1.0000
  S   S501      1.0  0.81507  0.71228  0.48377  1.0000
  C   C1269     1.0  0.99309  0.73738  0.94810  1.0000
  H   H2030     1.0  0.91051  0.68271  0.48793  1.0000
  C   C1270     1.0  0.99391  0.65186  0.86858  1.0000
  H   H2031     1.0  0.78374  0.74382  0.73429  1.0000
  H   H2032     1.0  0.79178  0.74687  0.96616  1.0000
  H   H2033     1.0  0.51947  0.50230  0.59627  1.0000
  N   N128      1.0  0.76136  0.74219  0.96877  1.0000
  C   C1271     1.0  0.50107  0.50795  0.81587  1.0000
  N   N129      1.0  0.92938  0.74824  0.74656  1.0000
  H   H2034     1.0  0.77482  0.71138  0.47880  1.0000
  C   C1272     1.0  0.79628  0.93653  0.99144  1.0000
  H   H2035     1.0  0.99205  0.78760  0.23561  1.0000
  H   H2036     1.0  0.69319  0.75667  0.09885  1.0000
  H   H2037     1.0  0.67300  0.77885  0.01449  1.0000
  H   H2038     1.0  0.74147  0.82395  0.11204  1.0000
  H   H2039     1.0  0.63717  0.99467  0.12730  1.0000
  Fe  Fe255     1.0  0.72302  0.80290  0.41669  1.0000
  S   S502      1.0  0.69340  0.79971  0.43359  1.0000
  S   S503      1.0  0.74499  0.82891  0.40857  1.0000
  H   H2040     1.0  0.74986  0.88905  0.43695  1.0000
  Fe  Fe256     1.0  0.68540  0.78001  0.40127  1.0000
  S   S504      1.0  0.66120  0.77969  0.37397  1.0000
  Fe  Fe257     1.0  0.69845  0.77674  0.45853  1.0000
  C   C1273     1.0  0.71948  0.99702  0.06899  1.0000
  S   S505      1.0  0.71466  0.78494  0.38308  1.0000
  S   S506      1.0  0.72879  0.78150  0.44311  1.0000
  Fe  Fe258     1.0  0.73882  0.96086  0.38668  1.0000
  S   S507      1.0  0.76908  0.96676  0.37114  1.0000
  H   H2041     1.0  0.50423  0.95658  0.01861  1.0000
  Fe  Fe259     1.0  0.73303  0.92092  0.38258  1.0000
  S   S508      1.0  0.76280  0.92365  0.36656  1.0000
  S   S509      1.0  0.71085  0.89501  0.39068  1.0000
  Fe  Fe260     1.0  0.77059  0.94364  0.39853  1.0000
  S   S510      1.0  0.79481  0.94379  0.42585  1.0000
  Fe  Fe261     1.0  0.75836  0.94645  0.34067  1.0000
  S   S511      1.0  0.75942  0.95253  0.29593  1.0000
  S   S512      1.0  0.74111  0.93926  0.41589  1.0000
  S   S513      1.0  0.72785  0.94208  0.35511  1.0000
  H   H2042     1.0  0.71700  0.91879  0.02428  1.0000
  H   H2043     1.0  0.77161  0.75224  0.20891  1.0000
  Fe  Fe262     1.0  0.71058  0.79540  0.17917  1.0000
  S   S514      1.0  0.68125  0.79887  0.17600  1.0000
  S   S515      1.0  0.73484  0.82042  0.16886  1.0000
  Fe  Fe263     1.0  0.67409  0.78073  0.21258  1.0000
  S   S516      1.0  0.65635  0.78499  0.24852  1.0000
  Fe  Fe264     1.0  0.67624  0.77429  0.15205  1.0000
  S   S517      1.0  0.66382  0.77532  0.11140  1.0000
  S   S518      1.0  0.70372  0.77831  0.21715  1.0000
  S   S519      1.0  0.70575  0.77090  0.15471  1.0000
  Fe  Fe265     1.0  0.76568  0.96467  0.11074  1.0000
  S   S520      1.0  0.79558  0.96203  0.10971  1.0000
  N   N130      1.0  0.53393  0.96963  0.02057  1.0000
  Fe  Fe266     1.0  0.74971  0.92329  0.12282  1.0000
  S   S521      1.0  0.77908  0.91955  0.12144  1.0000
  S   S522      1.0  0.72581  0.89821  0.13400  1.0000
  Fe  Fe267     1.0  0.78610  0.94387  0.14600  1.0000
  S   S523      1.0  0.80070  0.94457  0.18522  1.0000
  Fe  Fe268     1.0  0.78393  0.93831  0.08539  1.0000
  S   S524      1.0  0.79556  0.93233  0.04549  1.0000
  S   S525      1.0  0.75661  0.94737  0.14803  1.0000
  S   S526      1.0  0.75412  0.94112  0.08563  1.0000
  C   C1274     1.0  0.73198  0.84191  0.15902  1.0000
  C   C1275     1.0  0.74779  0.85506  0.14834  1.0000
  C   C1276     1.0  0.74613  0.87219  0.14019  1.0000
  C   C1277     1.0  0.72861  0.87651  0.14275  1.0000
  C   C1278     1.0  0.71279  0.86331  0.15321  1.0000
  C   C1279     1.0  0.71444  0.84619  0.16133  1.0000
  H   H2044     1.0  0.76145  0.85200  0.14637  1.0000
  H   H2045     1.0  0.75847  0.88202  0.13200  1.0000
  H   H2046     1.0  0.69913  0.86638  0.15532  1.0000
  H   H2047     1.0  0.70211  0.83639  0.16963  1.0000
  C   C1280     1.0  0.77178  0.95054  0.26579  1.0000
  C   C1281     1.0  0.76478  0.95574  0.24215  1.0000
  C   C1282     1.0  0.77344  0.95394  0.21752  1.0000
  C   C1283     1.0  0.78947  0.94712  0.21609  1.0000
  C   C1284     1.0  0.79672  0.94220  0.23974  1.0000
  C   C1285     1.0  0.78784  0.94375  0.26447  1.0000
  H   H2048     1.0  0.75238  0.96103  0.24293  1.0000
  H   H2049     1.0  0.76773  0.95796  0.19971  1.0000
  H   H2050     1.0  0.80920  0.93704  0.23895  1.0000
  H   H2051     1.0  0.79348  0.93979  0.28248  1.0000
  H   H2052     1.0  0.78302  0.75940  0.99040  1.0000
  C   C1286     1.0  0.75679  0.75782  0.33141  1.0000
  C   C1287     1.0  0.78298  0.95730  0.01525  1.0000
  C   C1288     1.0  0.79130  0.94289  0.01557  1.0000
  H   H2053     1.0  0.79956  0.89335  0.41352  1.0000
  H   H2054     1.0  0.68559  0.98897  0.04728  1.0000
  H   H2055     1.0  0.54418  0.99720  0.00731  1.0000
  H   H2056     1.0  0.77901  0.96230  0.03367  1.0000
  S   S527      1.0  0.68749  0.75668  0.42779  1.0000
  H   H2057     1.0  0.77459  0.86507  0.41925  1.0000
  C   C1289     1.0  0.73514  0.84698  0.40326  1.0000
  C   C1290     1.0  0.74395  0.86060  0.38475  1.0000
  C   C1291     1.0  0.73657  0.87545  0.38086  1.0000
  C   C1292     1.0  0.72051  0.87678  0.39570  1.0000
  C   C1293     1.0  0.71164  0.86312  0.41412  1.0000
  C   C1294     1.0  0.71901  0.84827  0.41800  1.0000
  H   H2058     1.0  0.75641  0.85958  0.37325  1.0000
  H   H2059     1.0  0.74317  0.88574  0.36614  1.0000
  H   H2060     1.0  0.69919  0.86414  0.42562  1.0000
  H   H2061     1.0  0.71241  0.83797  0.43270  1.0000
  C   C1295     1.0  0.69128  0.76434  0.03218  1.0000
  C   C1296     1.0  0.67759  0.77416  0.03280  1.0000
  C   C1297     1.0  0.66925  0.77730  0.05714  1.0000
  C   C1298     1.0  0.67481  0.77109  0.08120  1.0000
  C   C1299     1.0  0.68886  0.76169  0.08060  1.0000
  H   H2062     1.0  0.69117  0.78189  0.33108  1.0000
  H   H2063     1.0  0.71904  0.98883  0.05128  1.0000
  H   H2064     1.0  0.94092  0.77734  0.28836  1.0000
  C   C1300     1.0  0.69686  0.75816  0.05625  1.0000
  C   C1301     1.0  0.66152  0.78070  0.33885  1.0000
  C   C1302     1.0  0.67782  0.78190  0.32238  1.0000
  C   C1303     1.0  0.67675  0.78311  0.29447  1.0000
  C   C1304     1.0  0.65943  0.78327  0.28307  1.0000
  C   C1305     1.0  0.64344  0.78222  0.29973  1.0000
  C   C1306     1.0  0.64444  0.78083  0.32719  1.0000
  C   C1307     1.0  0.71258  0.81110  0.06124  1.0000
  H   H2065     1.0  0.68930  0.78410  0.28186  1.0000
  H   H2066     1.0  0.63002  0.78239  0.29130  1.0000
  H   H2067     1.0  0.63177  0.77997  0.33953  1.0000
  H   H2068     1.0  0.74789  0.82410  0.07756  1.0000
  H   H2069     1.0  0.79715  0.99129  0.21287  1.0000
  C   C1308     1.0  0.78008  0.96545  0.99102  1.0000
  S   S528      1.0  0.70134  0.75886  0.00205  1.0000
  H   H2070     1.0  0.72848  0.84582  0.06888  1.0000
  H   H2071     1.0  0.66645  0.97556  0.31373  1.0000
  H   H2072     1.0  0.70088  0.97594  0.31465  1.0000
  C   C1309     1.0  0.74824  0.90916  0.00780  1.0000
  C   C1310     1.0  0.70673  0.96683  0.43893  1.0000
  C   C1311     1.0  0.79784  0.89514  0.43506  1.0000
  H   H2073     1.0  0.71285  0.95588  0.43481  1.0000
  H   H2074     1.0  0.75133  0.91876  0.02393  1.0000
  Fe  Fe269     1.0  0.66999  0.99564  0.98987  1.0000
  C   C1312     1.0  0.98293  0.77521  0.19941  1.0000
  Fe  Fe270     1.0  0.71751  0.76303  0.41128  1.0000
  N   N131      1.0  0.67975  0.83581  0.35123  1.0000
  C   C1313     1.0  0.65974  0.82806  0.36032  1.0000
  C   C1314     1.0  0.68495  0.85515  0.35569  1.0000
  C   C1315     1.0  0.68203  0.83294  0.32279  1.0000
  C   C1316     1.0  0.69224  0.82709  0.36616  1.0000
  H   H2075     1.0  0.65758  0.82972  0.38181  1.0000
  H   H2076     1.0  0.65528  0.81351  0.35712  1.0000
  H   H2077     1.0  0.64990  0.83438  0.34962  1.0000
  H   H2078     1.0  0.70011  0.86144  0.34974  1.0000
  H   H2079     1.0  0.67610  0.86227  0.34436  1.0000
  H   H2080     1.0  0.68298  0.85782  0.37688  1.0000
  H   H2081     1.0  0.69704  0.83832  0.31542  1.0000
  H   H2082     1.0  0.67295  0.83946  0.31086  1.0000
  H   H2083     1.0  0.67789  0.81848  0.31872  1.0000
  H   H2084     1.0  0.69018  0.82819  0.38778  1.0000
  H   H2085     1.0  0.70754  0.83313  0.36078  1.0000
  H   H2086     1.0  0.68928  0.81263  0.36235  1.0000
  N   N132      1.0  0.74818  0.89637  0.21544  1.0000
  C   C1317     1.0  0.76040  0.90667  0.19349  1.0000
  C   C1318     1.0  0.75448  0.90432  0.24070  1.0000
  C   C1319     1.0  0.74959  0.87769  0.21574  1.0000
  C   C1320     1.0  0.72826  0.89685  0.21178  1.0000
  H   H2087     1.0  0.75617  0.90102  0.17413  1.0000
  H   H2088     1.0  0.77564  0.90691  0.19566  1.0000
  H   H2089     1.0  0.75947  0.92074  0.19246  1.0000
  H   H2090     1.0  0.75299  0.91820  0.24143  1.0000
  H   H2091     1.0  0.74597  0.89663  0.25784  1.0000
  H   H2092     1.0  0.76971  0.90488  0.24362  1.0000
  H   H2093     1.0  0.76452  0.87689  0.21784  1.0000
  H   H2094     1.0  0.74459  0.87121  0.19717  1.0000
  H   H2095     1.0  0.74075  0.86954  0.23225  1.0000
  H   H2096     1.0  0.72307  0.89103  0.19283  1.0000
  H   H2097     1.0  0.72676  0.91079  0.21126  1.0000
  H   H2098     1.0  0.71858  0.88921  0.22794  1.0000
  H   H2099     1.0  0.73895  0.76700  0.35938  1.0000
  H   H2100     1.0  0.90756  0.75947  0.29002  1.0000
  C   C1321     1.0  0.98730  0.77507  0.22606  1.0000
  H   H2101     1.0  0.53403  0.96204  0.06175  1.0000
  H   H2102     1.0  0.51856  0.97588  0.05422  1.0000
  H   H2103     1.0  0.90452  0.76837  0.25790  1.0000
  H   H2104     1.0  0.53246  0.98259  0.98290  1.0000
  H   H2105     1.0  0.70342  0.91205  0.99580  1.0000
  S   S529      1.0  0.59890  0.98326  0.98286  1.0000
  N   N133      1.0  0.71788  0.81943  0.08659  1.0000
  H   H2106     1.0  0.70349  0.79598  0.10985  1.0000
  C   C1322     1.0  0.73696  0.81766  0.09314  1.0000
  S   S530      1.0  0.98949  0.76028  0.27477  1.0000
  H   H2107     1.0  0.56450  0.97730  0.01889  1.0000
  H   H2108     1.0  0.51894  0.94201  0.02695  1.0000
  H   H2109     1.0  0.81566  0.99285  0.98530  1.0000
  C   C1323     1.0  0.68591  0.97963  0.46622  1.0000
  C   C1324     1.0  0.98500  0.75898  0.24063  1.0000
  H   H2110     1.0  0.55418  0.96304  0.99335  1.0000
  H   H2111     1.0  0.75827  0.76913  0.31773  1.0000
  N   N134      1.0  0.92894  0.75763  0.26066  1.0000
  H   H2112     1.0  0.82419  0.94034  0.45860  1.0000
  H   H2113     1.0  0.70377  0.84025  0.07976  1.0000
  H   H2114     1.0  0.78260  0.86080  0.45117  1.0000
  C   C1325     1.0  0.81195  0.93997  0.47156  1.0000
  H   H2115     1.0  0.75535  0.75507  0.44747  1.0000
  S   S531      1.0  0.64710  0.99429  0.02129  1.0000
  S   S532      1.0  0.69263  0.98066  0.99275  1.0000
  C   C1326     1.0  0.94182  0.77489  0.26693  1.0000
  H   H2116     1.0  0.69853  0.97114  0.34972  1.0000
  H   H2117     1.0  0.69800  0.81170  0.05609  1.0000
  H   H2118     1.0  0.68925  0.81124  0.10336  1.0000
  H   H2119     1.0  0.65832  0.78449  0.05732  1.0000
  H   H2120     1.0  0.80817  0.88920  0.44530  1.0000
  H   H2121     1.0  0.54370  0.98544  0.05379  1.0000
  H   H2122     1.0  0.65693  0.98905  0.33565  1.0000
  H   H2123     1.0  0.76605  0.94228  0.47009  1.0000
  H   H2124     1.0  0.74835  0.75698  0.99568  1.0000
  H   H2125     1.0  0.72191  0.84512  0.10334  1.0000
  H   H2126     1.0  0.77376  0.97664  0.99093  1.0000
  H   H2127     1.0  0.51875  0.98891  0.00896  1.0000
  H   H2128     1.0  0.80277  0.92543  0.99146  1.0000
  H   H2129     1.0  0.95689  0.77528  0.26184  1.0000
  Fe  Fe271     1.0  0.69443  0.75423  0.19214  1.0000
  C   C1327     1.0  0.70390  0.81037  0.10760  1.0000
  H   H2130     1.0  0.96411  0.76149  0.46332  1.0000
  N   N135      1.0  0.77811  0.88701  0.44507  1.0000
  H   H2131     1.0  0.73716  0.80338  0.09554  1.0000
  H   H2132     1.0  0.92610  0.76572  0.22034  1.0000
  H   H2133     1.0  0.66423  0.97018  0.34867  1.0000
  C   C1328     1.0  0.71088  0.98205  0.42198  1.0000
  H   H2134     1.0  0.75827  0.86110  0.44734  1.0000
  H   H2135     1.0  0.68180  0.98831  0.08253  1.0000
  H   H2136     1.0  0.55417  0.95403  0.02634  1.0000
  H   H2137     1.0  0.71046  0.89569  0.01627  1.0000
  C   C1329     1.0  0.74581  0.75661  0.35501  1.0000
  H   H2138     1.0  0.98416  0.78782  0.18881  1.0000
  H   H2139     1.0  0.79372  0.97879  0.16863  1.0000
  H   H2140     1.0  0.68451  0.98993  0.37891  1.0000
  C   C1330     1.0  0.71517  0.90956  0.00765  1.0000
  S   S533      1.0  0.76195  0.99304  0.10456  1.0000
  C   C1331     1.0  0.77319  0.86768  0.44057  1.0000
  C   C1332     1.0  0.73846  0.93083  0.98020  1.0000
  C   C1333     1.0  0.55246  0.96581  0.01454  1.0000
  S   S534      1.0  0.66461  0.75656  0.18818  1.0000
  C   C1334     1.0  0.68666  0.99737  0.06482  1.0000
  C   C1335     1.0  0.66786  0.98137  0.33353  1.0000
  C   C1336     1.0  0.71803  0.83851  0.08447  1.0000
  C   C1337     1.0  0.97340  0.75261  0.46262  1.0000
  H   H2141     1.0  0.81623  0.99328  0.15790  1.0000
  H   H2142     1.0  0.76842  0.99120  0.18786  1.0000
  H   H2143     1.0  0.70735  0.81624  0.12703  1.0000
  C   C1338     1.0  0.69442  0.96572  0.46123  1.0000
  C   C1339     1.0  0.79500  0.94161  0.46084  1.0000
  H   H2144     1.0  0.72258  0.81774  0.04473  1.0000
  H   H2145     1.0  0.79540  0.99333  0.13994  1.0000
  H   H2146     1.0  0.80201  0.99688  0.08829  1.0000
  H   H2147     1.0  0.71263  0.79676  0.06212  1.0000
  H   H2148     1.0  0.93841  0.78622  0.25586  1.0000
  H   H2149     1.0  0.76770  0.90987  0.43496  1.0000
  C   C1340     1.0  0.53230  0.98528  0.00427  1.0000
  C   C1341     1.0  0.77645  0.88980  0.47363  1.0000
  N   N136      1.0  0.73297  0.91231  0.99131  1.0000
  C   C1342     1.0  0.93033  0.75507  0.23201  1.0000
  C   C1343     1.0  0.97678  0.75929  0.18641  1.0000
  S   S535      1.0  0.72582  0.98386  0.39355  1.0000
  H   H2150     1.0  0.71599  0.98770  0.08666  1.0000
  C   C1344     1.0  0.76499  0.89544  0.43099  1.0000
  C   C1345     1.0  0.70120  0.98209  0.33417  1.0000
  H   H2151     1.0  0.76175  0.91076  0.99591  1.0000
  C   C1346     1.0  0.70263  0.99605  0.42735  1.0000
  C   C1347     1.0  0.53254  0.97342  0.04881  1.0000
  S   S536      1.0  0.96883  0.76062  0.15394  1.0000
  H   H2152     1.0  0.74445  0.89547  0.01708  1.0000
  H   H2153     1.0  0.78991  0.75723  0.44802  1.0000
  C   C1348     1.0  0.51841  0.95401  0.01470  1.0000
  C   C1349     1.0  0.90918  0.75756  0.26850  1.0000
  S   S537      1.0  0.49812  0.97874  0.12132  1.0000
  H   H2154     1.0  0.70732  0.75045  0.05607  1.0000
  H   H2155     1.0  0.74100  0.94070  0.99595  1.0000
  H   H2156     1.0  0.51915  0.95070  0.99358  1.0000
  H   H2157     1.0  0.76664  0.89447  0.40928  1.0000
  H   H2158     1.0  0.67337  0.75211  0.26249  1.0000
  C   C1350     1.0  0.80073  0.99235  0.16004  1.0000
  H   H2159     1.0  0.80201  0.90973  0.43797  1.0000
  H   H2160     1.0  0.69126  0.95396  0.47433  1.0000
  C   C1351     1.0  0.68989  0.99469  0.44906  1.0000
  N   N137      1.0  0.68718  0.99286  0.33663  1.0000
  H   H2161     1.0  0.71596  0.99032  0.33659  1.0000
  H   H2162     1.0  0.94511  0.75544  0.22530  1.0000
  H   H2163     1.0  0.59185  0.99708  0.45719  1.0000
  H   H2164     1.0  0.97200  0.74997  0.42027  1.0000
  H   H2165     1.0  0.51304  0.99762  0.28716  1.0000
  Fe  Fe272     1.0  0.62934  0.99855  0.98744  1.0000
  H   H2166     1.0  0.78029  0.90425  0.47772  1.0000
  C   C1352     1.0  0.77928  0.94113  0.47809  1.0000
  H   H2167     1.0  0.57143  0.99909  0.41959  1.0000
  H   H2168     1.0  0.72503  0.97217  0.96780  1.0000
  H   H2169     1.0  0.94497  0.76521  0.71452  1.0000
  S   S538      1.0  0.96711  0.75925  0.65445  1.0000
  H   H2170     1.0  0.52775  0.99678  0.54705  1.0000
  H   H2171     1.0  0.75622  0.83292  0.86442  1.0000
  H   H2172     1.0  0.56857  0.97743  0.94683  1.0000
  Fe  Fe273     1.0  0.70472  0.80660  0.92893  1.0000
  S   S539      1.0  0.68085  0.78206  0.93718  1.0000
  S   S540      1.0  0.69833  0.83337  0.92956  1.0000
  Fe  Fe274     1.0  0.73376  0.78554  0.91877  1.0000
  Fe  Fe275     1.0  0.69347  0.77212  0.90119  1.0000
  H   H2173     1.0  0.55822  0.97791  0.50236  1.0000
  Fe  Fe276     1.0  0.70208  0.77238  0.96118  1.0000
  C   C1353     1.0  0.71274  0.96648  0.95660  1.0000
  S   S541      1.0  0.71605  0.79734  0.89172  1.0000
  S   S542      1.0  0.72506  0.79777  0.95497  1.0000
  Fe  Fe277     1.0  0.73194  0.93854  0.88153  1.0000
  S   S543      1.0  0.75281  0.96482  0.87329  1.0000
  S   S544      1.0  0.70143  0.93827  0.89069  1.0000
  Fe  Fe278     1.0  0.76245  0.91852  0.87562  1.0000
  S   S545      1.0  0.78581  0.94359  0.86719  1.0000
  S   S546      1.0  0.76842  0.89148  0.87860  1.0000
  Fe  Fe279     1.0  0.77139  0.95429  0.90093  1.0000
  S   S547      1.0  0.78226  0.97022  0.93682  1.0000
  Fe  Fe280     1.0  0.76467  0.95127  0.84038  1.0000
  S   S548      1.0  0.76651  0.96418  0.79875  1.0000
  S   S549      1.0  0.74961  0.92866  0.91066  1.0000
  S   S550      1.0  0.74225  0.92548  0.84725  1.0000
  C   C1354     1.0  0.71180  0.99242  0.87757  1.0000
  S   S551      1.0  0.66212  0.75841  0.68914  1.0000
  Fe  Fe281     1.0  0.70829  0.79693  0.67964  1.0000
  S   S552      1.0  0.67903  0.80107  0.68016  1.0000
  S   S553      1.0  0.73279  0.82168  0.66942  1.0000
  Fe  Fe282     1.0  0.67319  0.78140  0.71519  1.0000
  S   S554      1.0  0.65768  0.78393  0.75409  1.0000
  Fe  Fe283     1.0  0.67250  0.77750  0.65409  1.0000
  S   S555      1.0  0.65827  0.77807  0.61474  1.0000
  S   S556      1.0  0.70282  0.77821  0.71601  1.0000
  S   S557      1.0  0.70184  0.77358  0.65297  1.0000
  Fe  Fe284     1.0  0.76606  0.96576  0.61075  1.0000
  S   S558      1.0  0.79592  0.96321  0.61199  1.0000
  H   H2174     1.0  0.81150  0.82381  0.85398  1.0000
  Fe  Fe285     1.0  0.74997  0.92474  0.62392  1.0000
  S   S559      1.0  0.77934  0.92091  0.62451  1.0000
  S   S560      1.0  0.72558  0.90028  0.63628  1.0000
  Fe  Fe286     1.0  0.78566  0.94553  0.64843  1.0000
  S   S561      1.0  0.80004  0.94621  0.68777  1.0000
  Fe  Fe287     1.0  0.78514  0.93915  0.58786  1.0000
  S   S562      1.0  0.80174  0.93531  0.55059  1.0000
  S   S563      1.0  0.75622  0.94917  0.64851  1.0000
  S   S564      1.0  0.75539  0.94188  0.58589  1.0000
  C   C1355     1.0  0.73052  0.84356  0.66079  1.0000
  C   C1356     1.0  0.74629  0.85629  0.64915  1.0000
  C   C1357     1.0  0.74505  0.87364  0.64156  1.0000
  C   C1358     1.0  0.72800  0.87859  0.64564  1.0000
  C   C1359     1.0  0.71228  0.86593  0.65758  1.0000
  C   C1360     1.0  0.71352  0.84857  0.66512  1.0000
  H   H2175     1.0  0.75956  0.85267  0.64573  1.0000
  H   H2176     1.0  0.75729  0.88308  0.63231  1.0000
  H   H2177     1.0  0.69901  0.86954  0.66095  1.0000
  H   H2178     1.0  0.70129  0.83911  0.67437  1.0000
  C   C1361     1.0  0.77493  0.95754  0.76834  1.0000
  C   C1362     1.0  0.76789  0.96268  0.74466  1.0000
  C   C1363     1.0  0.77491  0.95869  0.71997  1.0000
  C   C1364     1.0  0.78958  0.95004  0.71856  1.0000
  C   C1365     1.0  0.79658  0.94482  0.74220  1.0000
  C   C1366     1.0  0.78911  0.94830  0.76697  1.0000
  H   H2179     1.0  0.75699  0.96990  0.74548  1.0000
  H   H2180     1.0  0.76935  0.96281  0.70205  1.0000
  H   H2181     1.0  0.80801  0.93823  0.74140  1.0000
  H   H2182     1.0  0.79486  0.94447  0.78497  1.0000
  H   H2183     1.0  0.82994  0.99084  0.51054  1.0000
  C   C1367     1.0  0.76850  0.77508  0.88233  1.0000
  C   C1368     1.0  0.78080  0.93918  0.50584  1.0000
  C   C1369     1.0  0.79798  0.93753  0.51629  1.0000
  C   C1370     1.0  0.81336  0.93780  0.49884  1.0000
  C   C1371     1.0  0.71481  0.95717  0.93390  1.0000
  S   S565      1.0  0.76436  0.78542  0.91142  1.0000
  H   H2184     1.0  0.76872  0.93883  0.51905  1.0000
  H   H2185     1.0  0.82667  0.93653  0.50653  1.0000
  H   H2186     1.0  0.77618  0.81892  0.81928  1.0000
  C   C1372     1.0  0.71802  0.84992  0.91700  1.0000
  C   C1373     1.0  0.73569  0.84611  0.91367  1.0000
  C   C1374     1.0  0.75125  0.85916  0.90260  1.0000
  C   C1375     1.0  0.74910  0.87585  0.89420  1.0000
  C   C1376     1.0  0.73147  0.87976  0.89787  1.0000
  C   C1377     1.0  0.71596  0.86683  0.90948  1.0000
  H   H2187     1.0  0.73741  0.83318  0.91992  1.0000
  H   H2188     1.0  0.76501  0.85640  0.90078  1.0000
  H   H2189     1.0  0.72969  0.89261  0.89134  1.0000
  H   H2190     1.0  0.70230  0.86981  0.91209  1.0000
  C   C1378     1.0  0.68665  0.77267  0.53356  1.0000
  C   C1379     1.0  0.66976  0.77815  0.53525  1.0000
  C   C1380     1.0  0.66105  0.77948  0.56019  1.0000
  C   C1381     1.0  0.66928  0.77567  0.58365  1.0000
  C   C1382     1.0  0.68619  0.77029  0.58186  1.0000
  C   C1383     1.0  0.69469  0.76866  0.55704  1.0000
  H   H2191     1.0  0.64363  0.80350  0.84186  1.0000
  H   H2192     1.0  0.69275  0.76728  0.59954  1.0000
  S   S566      1.0  0.67058  0.97836  0.49411  1.0000
  C   C1384     1.0  0.67271  0.76829  0.83758  1.0000
  C   C1385     1.0  0.65440  0.76949  0.83189  1.0000
  C   C1386     1.0  0.65038  0.77492  0.80654  1.0000
  C   C1387     1.0  0.66440  0.77858  0.78605  1.0000
  C   C1388     1.0  0.68285  0.77749  0.79158  1.0000
  S   S567      1.0  0.97549  0.75674  0.51633  1.0000
  N   N138      1.0  0.78478  0.83095  0.85592  1.0000
  S   S568      1.0  0.49806  0.98164  0.61440  1.0000
  H   H2193     1.0  0.71892  0.90212  0.95628  1.0000
  C   C1389     1.0  0.68704  0.77250  0.81736  1.0000
  N   N139      1.0  0.69833  0.98941  0.85605  1.0000
  H   H2194     1.0  0.54201  0.95625  0.50157  1.0000
  H   H2195     1.0  0.49641  0.96750  0.80637  1.0000
  H   H2196     1.0  0.76647  0.82302  0.89077  1.0000
  H   H2197     1.0  0.76167  0.88405  0.48169  1.0000
  C   C1390     1.0  0.67911  0.96156  0.94973  1.0000
  H   H2198     1.0  0.70112  0.77114  0.82128  1.0000
  H   H2199     1.0  0.77422  0.84148  0.82158  1.0000
  H   H2200     1.0  0.70604  0.96580  0.84379  1.0000
  C   C1391     1.0  0.99242  0.75819  0.73593  1.0000
  H   H2201     1.0  0.72871  0.95587  0.92761  1.0000
  C   C1392     1.0  0.79370  0.84883  0.86544  1.0000
  C   C1393     1.0  0.68109  0.95182  0.92744  1.0000
  H   H2202     1.0  0.79717  0.83714  0.81660  1.0000
  H   H2203     1.0  0.75869  0.81051  0.86247  1.0000
  H   H2204     1.0  0.74329  0.90133  0.95710  1.0000
  H   H2205     1.0  0.69565  0.82158  0.84713  1.0000
  S   S569      1.0  0.76236  0.99378  0.60128  1.0000
  H   H2206     1.0  0.80813  0.85444  0.85606  1.0000
  H   H2207     1.0  0.98375  0.78674  0.68828  1.0000
  H   H2208     1.0  0.92730  0.77509  0.75173  1.0000
  C   C1394     1.0  0.73001  0.89979  0.96955  1.0000
  H   H2209     1.0  0.66332  0.78118  0.51737  1.0000
  C   C1395     1.0  0.78572  0.77044  0.87826  1.0000
  H   H2210     1.0  0.68687  0.84208  0.87818  1.0000
  H   H2211     1.0  0.79524  0.84838  0.88718  1.0000
  C   C1396     1.0  0.54718  0.96777  0.51422  1.0000
  Fe  Fe288     1.0  0.69184  0.75544  0.68926  1.0000
  C   C1397     1.0  0.76570  0.82409  0.86892  1.0000
  N   N140      1.0  0.53148  0.97527  0.52351  1.0000
  H   H2212     1.0  0.80917  0.98616  0.55098  1.0000
  H   H2213     1.0  0.66876  0.94597  0.91642  1.0000
  N   N141      1.0  0.74651  0.90118  0.71696  1.0000
  C   C1398     1.0  0.74622  0.88206  0.71860  1.0000
  C   C1399     1.0  0.72718  0.90312  0.71236  1.0000
  C   C1400     1.0  0.75957  0.91013  0.69488  1.0000
  C   C1401     1.0  0.75311  0.90949  0.74189  1.0000
  H   H2214     1.0  0.76064  0.88017  0.72183  1.0000
  H   H2215     1.0  0.74130  0.87543  0.70007  1.0000
  H   H2216     1.0  0.73648  0.87482  0.73500  1.0000
  H   H2217     1.0  0.72702  0.91742  0.71048  1.0000
  H   H2218     1.0  0.72172  0.89691  0.69377  1.0000
  H   H2219     1.0  0.71694  0.89670  0.72874  1.0000
  H   H2220     1.0  0.77440  0.90924  0.69772  1.0000
  H   H2221     1.0  0.75995  0.92452  0.69286  1.0000
  H   H2222     1.0  0.75514  0.90418  0.67577  1.0000
  H   H2223     1.0  0.75304  0.92383  0.74149  1.0000
  H   H2224     1.0  0.76794  0.90888  0.74553  1.0000
  H   H2225     1.0  0.74390  0.90285  0.75915  1.0000
  N   N142      1.0  0.70285  0.82785  0.58758  1.0000
  C   C1402     1.0  0.70916  0.82062  0.56327  1.0000
  C   C1403     1.0  0.68251  0.82755  0.58632  1.0000
  C   C1404     1.0  0.71419  0.84640  0.59008  1.0000
  C   C1405     1.0  0.70550  0.81681  0.61070  1.0000
  H   H2226     1.0  0.70750  0.82867  0.54539  1.0000
  H   H2227     1.0  0.70070  0.80674  0.56059  1.0000
  H   H2228     1.0  0.72435  0.82033  0.56379  1.0000
  H   H2229     1.0  0.67729  0.83288  0.60443  1.0000
  H   H2230     1.0  0.67990  0.83566  0.56904  1.0000
  H   H2231     1.0  0.67352  0.81373  0.58467  1.0000
  H   H2232     1.0  0.71305  0.85503  0.57259  1.0000
  H   H2233     1.0  0.72952  0.84707  0.59232  1.0000
  H   H2234     1.0  0.70929  0.85246  0.60766  1.0000
  H   H2235     1.0  0.70044  0.82159  0.62931  1.0000
  H   H2236     1.0  0.72073  0.81700  0.61280  1.0000
  H   H2237     1.0  0.69742  0.80268  0.60929  1.0000
  H   H2238     1.0  0.64308  0.76576  0.84702  1.0000
  C   C1406     1.0  0.78982  0.76329  0.85437  1.0000
  H   H2239     1.0  0.78516  0.98827  0.54959  1.0000
  H   H2240     1.0  0.63701  0.81805  0.86513  1.0000
  H   H2241     1.0  0.79091  0.80534  0.85396  1.0000
  C   C1407     1.0  0.53907  0.99045  0.54028  1.0000
  H   H2242     1.0  0.66527  0.96308  0.95590  1.0000
  H   H2243     1.0  0.80587  0.98761  0.70233  1.0000
  C   C1408     1.0  0.69895  0.94967  0.91943  1.0000
  H   H2244     1.0  0.68176  0.82947  0.82306  1.0000
  C   C1409     1.0  0.67934  0.97933  0.86672  1.0000
  H   H2245     1.0  0.79731  0.81642  0.88396  1.0000
  H   H2246     1.0  0.78511  0.85852  0.86097  1.0000
  C   C1410     1.0  0.75530  0.77244  0.86254  1.0000
  C   C1411     1.0  0.78512  0.95907  0.96690  1.0000
  C   C1412     1.0  0.79668  0.81864  0.86224  1.0000
  H   H2247     1.0  0.66329  0.79349  0.87503  1.0000
  N   N143      1.0  0.66706  0.82065  0.86052  1.0000
  C   C1413     1.0  0.67217  0.83874  0.87096  1.0000
  H   H2248     1.0  0.71839  0.98464  0.56875  1.0000
  C   C1414     1.0  0.64793  0.81711  0.84972  1.0000
  C   C1415     1.0  0.66705  0.80734  0.88202  1.0000
  H   H2249     1.0  0.66254  0.83992  0.88796  1.0000
  H   H2250     1.0  0.67155  0.84913  0.85563  1.0000
  C   C1416     1.0  0.70507  0.97904  0.83558  1.0000
  H   H2251     1.0  0.74192  0.77587  0.86558  1.0000
  H   H2252     1.0  0.67755  0.80607  0.83075  1.0000
  C   C1417     1.0  0.94633  0.75034  0.76257  1.0000
  C   C1418     1.0  0.52252  0.98141  0.50053  1.0000
  H   H2253     1.0  0.69384  0.78030  0.77599  1.0000
  H   H2254     1.0  0.68485  0.97885  0.55495  1.0000
  C   C1419     1.0  0.81707  0.98917  0.49869  1.0000
  H   H2255     1.0  0.79171  0.96989  0.53502  1.0000
  H   H2256     1.0  0.65681  0.80802  0.89853  1.0000
  C   C1420     1.0  0.78300  0.83219  0.82705  1.0000
  H   H2257     1.0  0.66867  0.97734  0.85119  1.0000
  H   H2258     1.0  0.51101  0.94976  0.52711  1.0000
  C   C1421     1.0  0.99181  0.77419  0.72290  1.0000
  H   H2259     1.0  0.82140  0.99695  0.47967  1.0000
  H   H2260     1.0  0.72725  0.93370  0.96773  1.0000
  C   C1422     1.0  0.79674  0.98439  0.53826  1.0000
  C   C1423     1.0  0.57051  0.99069  0.95414  1.0000
  H   H2261     1.0  0.78609  0.88357  0.48493  1.0000
  C   C1424     1.0  0.69492  0.96882  0.96443  1.0000
  S   S570      1.0  0.67598  0.75795  0.86813  1.0000
  H   H2262     1.0  0.74952  0.76394  0.82296  1.0000
  H   H2263     1.0  0.68125  0.80962  0.89052  1.0000
  H   H2264     1.0  0.50519  0.96674  0.54632  1.0000
  H   H2265     1.0  0.64744  0.82679  0.83324  1.0000
  H   H2266     1.0  0.79703  0.93942  0.94884  1.0000
  C   C1425     1.0  0.68113  0.81941  0.83943  1.0000
  H   H2267     1.0  0.55442  0.96321  0.53104  1.0000
  S   S571      1.0  0.65123  0.99664  0.95605  1.0000
  H   H2268     1.0  0.64793  0.78360  0.56125  1.0000
  H   H2269     1.0  0.79601  0.77254  0.89346  1.0000
  H   H2270     1.0  0.54544  0.98617  0.55818  1.0000
  S   S572      1.0  0.69849  0.77048  0.50312  1.0000
  H   H2271     1.0  0.71346  0.97957  0.88623  1.0000
  H   H2272     1.0  0.81680  0.98534  0.67094  1.0000
  H   H2273     1.0  0.95618  0.76387  0.75945  1.0000
  H   H2274     1.0  0.52332  0.95657  0.55672  1.0000
  C   C1426     1.0  0.91857  0.76108  0.75468  1.0000
  S   S573      1.0  0.78221  0.75320  0.80355  1.0000
  H   H2275     1.0  0.91010  0.75452  0.82630  1.0000
  H   H2276     1.0  0.77827  0.99331  0.67855  1.0000
  H   H2277     1.0  0.63608  0.77561  0.80251  1.0000
  H   H2278     1.0  0.70775  0.76442  0.55598  1.0000
  C   C1427     1.0  0.98480  0.77428  0.69756  1.0000
  C   C1428     1.0  0.97889  0.75845  0.68427  1.0000
  H   H2279     1.0  0.75172  0.93334  0.96759  1.0000
  H   H2280     1.0  0.67410  0.98642  0.88294  1.0000
  S   S574      1.0  0.71210  0.75952  0.92598  1.0000
  C   C1429     1.0  0.79298  0.94439  0.96725  1.0000
  H   H2281     1.0  0.51623  0.97022  0.48778  1.0000
  C   C1430     1.0  0.75961  0.76569  0.83841  1.0000
  H   H2282     1.0  0.91385  0.75897  0.77587  1.0000
  H   H2283     1.0  0.67967  0.96590  0.87481  1.0000
  C   C1431     1.0  0.51715  0.96143  0.53907  1.0000
  H   H2284     1.0  0.69531  0.97659  0.81895  1.0000
  H   H2285     1.0  0.80326  0.76002  0.85123  1.0000
  H   H2286     1.0  0.78779  0.75196  0.48298  1.0000
  C   C1432     1.0  0.81517  0.99520  0.68575  1.0000
  H   H2287     1.0  0.68041  0.99400  0.57915  1.0000
  H   H2288     1.0  0.53300  0.99155  0.48800  1.0000
  C   C1433     1.0  0.77685  0.76104  0.83428  1.0000
  H   H2289     1.0  0.74859  0.76396  0.96159  1.0000
  H   H2290     1.0  0.81241  0.97485  0.49399  1.0000
  C   C1434     1.0  0.78066  0.75408  0.97037  1.0000
  H   H2291     1.0  0.80364  0.99875  0.59549  1.0000
  H   H2292     1.0  0.51089  0.98754  0.50672  1.0000
  H   H2293     1.0  0.78306  0.76567  0.95594  1.0000
  H   H2294     1.0  0.79005  0.99167  0.64750  1.0000
  H   H2295     1.0  0.71080  0.98867  0.52149  1.0000
  C   C1435     1.0  0.68565  0.99311  0.55850  1.0000
  S   S575      1.0  0.50354  0.99513  0.93165  1.0000
  H   H2296     1.0  0.54897  0.99709  0.93026  1.0000
  H   H2297     1.0  0.90551  0.75971  0.74332  1.0000
  H   H2298     1.0  0.72548  0.88566  0.97710  1.0000
  C   C1436     1.0  0.74706  0.75212  0.97528  1.0000
  H   H2299     1.0  0.71949  0.98611  0.82729  1.0000
  C   C1437     1.0  0.58457  0.99696  0.97218  1.0000
  C   C1438     1.0  0.78490  0.99202  0.49681  1.0000
  H   H2300     1.0  0.67553  0.99712  0.54515  1.0000
  H   H2301     1.0  0.77308  0.99623  0.50702  1.0000
  H   H2302     1.0  0.77952  0.97768  0.49242  1.0000
  C   C1439     1.0  0.93532  0.75164  0.71833  1.0000
  H   H2303     1.0  0.75310  0.74999  0.48245  1.0000
  N   N144      1.0  0.80179  0.99492  0.51306  1.0000
  H   H2304     1.0  0.92293  0.75059  0.70572  1.0000
  S   S576      1.0  0.51031  0.99913  0.68720  1.0000
  C   C1440     1.0  0.71816  0.99876  0.57151  1.0000
