data_image0
_chemical_formula_structural       FeS2FeS2FeSFeS3FeS2FeS2FeSFeS3FeS2FeS2FeSFeS3FeS2FeS2FeSFeS3FeS2FeS2FeSFeS3FeS2FeS2FeSFeS3FeS2FeS2FeSFeS3FeS2FeS2FeSFeS3FeS2FeS2FeSFeS3FeS2FeS2FeSFeS3FeS2FeS2FeSFeS3FeS2FeS2FeSFeS3C6H4C6H4C6H4C6H4C6H4C6H4C6H4C6H4C6H4C6H4C6H4C6H4C6H4C6H4C6H4C6H4C6H4C6H4C6H4C6H4C6H4C6H4C6H4C6H4FeS2FeS2FeSFeS3FeS2FeS2FeSFeS3FeS2FeS2FeSFeS3FeS2FeS2FeSFeS3FeS2FeS2FeSFeS3FeS2FeS2FeSFeS3FeS2FeS2FeSFeS3FeS2FeS2FeSFeS3FeS2FeS2FeSFeS3FeS2FeS2FeSFeS3FeS2FeS2FeSFeS3FeS2FeS2FeSFeS3C6H4C6H4C6H4C6H4C6H4C6H4C6H4C6H4C6H4C6H4C6H4C6H4C6H4C6H4C6H4C6H4C6H4C6H4C6H4C6H4C6H4C6H4C6H4C6H4NC4H12NC4H12NC4H12NC4H12NC4H12NC4H12NC4H12NC4H12NC4H12NC4H12NC4H12NC4H12NC4H12NC4H12NC4H12NC4H12NC4H12NC4H12NC4H12NC4H12NC4H12NC4H12NC4H12NC4H12NC4H12NC4H12NC4H12NC4H12NC4H12NC4H12NC4H12NC4H12NC4H12NC4H12NC4H12NC4H12NC4H12NC4H12NC4H12NC4H12NC4H12NC4H12NC4H12NC4H12NC4H12NC4H12NC4H12NC4H12
_chemical_formula_sum              "Fe96 S192 C480 H768 N48"
_cell_length_a       43.44176703547686
_cell_length_b       43.19231870554786
_cell_length_c       47.94618443099678
_cell_angle_alpha    89.87712482776013
_cell_angle_beta     90.03645631992488
_cell_angle_gamma    119.78262713975094

_space_group_name_H-M_alt    "P 1"
_space_group_IT_number       1

loop_
  _space_group_symop_operation_xyz
  'x, y, z'

loop_
  _atom_site_type_symbol
  _atom_site_label
  _atom_site_symmetry_multiplicity
  _atom_site_fract_x
  _atom_site_fract_y
  _atom_site_fract_z
  _atom_site_occupancy
  Fe  Fe1       1.0  0.19416651856436024  0.5305267763886551  0.16904840172887806  1.0000
  S   S1        1.0  0.22083111441021075  0.4975070526193385  0.16934992578344374  1.0000
  S   S2        1.0  0.22849247627944125  0.589103804448524  0.17768115616626345  1.0000
  Fe  Fe2       1.0  0.12074445182259662  0.4664042945425895  0.15930494303571505  1.0000
  S   S3        1.0  0.14159441962336064  0.42827474649601427  0.15912342190880924  1.0000
  S   S4        1.0  0.06326266544101575  0.4490664071771365  0.1508504251037601  1.0000
  Fe  Fe3       1.0  0.17461379765000687  0.45993475831635694  0.19560808438035912  1.0000
  S   S5        1.0  0.18225655948533123  0.433218329250953  0.23321963602364593  1.0000
  Fe  Fe4       1.0  0.18562875899113626  0.4695864792978303  0.13291805617430855  1.0000
  S   S6        1.0  0.20344798848622814  0.4515758883878804  0.0953054344127038  1.0000
  S   S7        1.0  0.15005516100961702  0.4948511254673606  0.198111023600104  1.0000
  S   S8        1.0  0.16243731248122792  0.5056820088495556  0.1303550490224477  1.0000
  Fe  Fe5       1.0  0.8436842697652782  0.32320775516191097  0.21858013346162236  1.0000
  S   S9        1.0  0.860904383862249  0.2823905173152235  0.21342349399710864  1.0000
  S   S10       1.0  0.823901276467831  0.3423383953297803  0.18260965478496013  1.0000
  Fe  Fe6       1.0  0.8586198874606394  0.3307047960856787  0.2810958488626223  1.0000
  S   S11       1.0  0.8770284767264027  0.29062074834088714  0.2807323669738427  1.0000
  S   S12       1.0  0.8561916073940008  0.3580864442152003  0.3204400918829476  1.0000
  Fe  Fe7       1.0  0.9058716373277059  0.31819091389741855  0.24148941831111173  1.0000
  S   S13       1.0  0.9611835464571377  0.3277956328822897  0.2342387195872786  1.0000
  Fe  Fe8       1.0  0.8301805608270931  0.25903056318610623  0.25290166644581646  1.0000
  S   S14       1.0  0.7901790078770741  0.20195892565562074  0.26273208441871404  1.0000
  S   S15       1.0  0.8912049201190239  0.3610922151549036  0.24385675396329337  1.0000
  S   S16       1.0  0.8096356890528634  0.297270150629827  0.25599860369885663  1.0000
  Fe  Fe9       1.0  0.450668995378742  0.7401387338201334  0.05777833952943206  1.0000
  S   S17       1.0  0.41183477710992544  0.7598032127555927  0.054898884084949716  1.0000
  S   S18       1.0  0.4764885983773333  0.7326339864529662  0.019570640834828193  1.0000
  Fe  Fe10      1.0  0.44274384521537846  0.7314199755529505  0.12086610180114847  1.0000
  S   S19       1.0  0.40271060205720377  0.7499439403818214  0.12292994651763856  1.0000
  S   S20       1.0  0.462553336602098  0.7139293033566124  0.1578264224107139  1.0000
  Fe  Fe11      1.0  0.37945778899608523  0.7155544211163509  0.08494072340535486  1.0000
  S   S21       1.0  0.32316534189282675  0.6748187257001922  0.07435243467230797  1.0000
  Fe  Fe12      1.0  0.43919886884808823  0.7922703408438084  0.09275072453638196  1.0000
  S   S22       1.0  0.4515554760470455  0.8496068004974564  0.09352645426895777  1.0000
  S   S23       1.0  0.41666710519419126  0.6937804206990204  0.0853447551596551  1.0000
  S   S24       1.0  0.4810772119306318  0.7763023670215058  0.09330624762280557  1.0000
  Fe  Fe13      1.0  0.5790425584513296  0.06314671219512258  0.13952975227591968  1.0000
  S   S25       1.0  0.6082710555060254  0.032595211051098  0.14006850930171721  1.0000
  S   S26       1.0  0.5613274340193533  0.0772732392115554  0.09972028771950223  1.0000
  Fe  Fe14      1.0  0.5857276216159291  0.07524922895888458  0.20224616749292396  1.0000
  S   S27       1.0  0.6164449677256099  0.046563148644164956  0.20773015790506055  1.0000
  S   S28       1.0  0.5714000790577585  0.09965207923859373  0.23778943147729495  1.0000
  Fe  Fe15      1.0  0.6452438484408847  0.07586504816110788  0.1690230551877023  1.0000
  S   S29       1.0  0.7035450172661576  0.10708299681568845  0.16006502625305497  1.0000
  Fe  Fe16      1.0  0.5763096594229303  0.006279070969264389  0.1784910760726503  1.0000
  S   S30       1.0  0.5539473346399019  0.9480074082630999  0.18877783329784625  1.0000
  S   S31       1.0  0.6178969612791771  0.10801839342084986  0.16610993237416993  1.0000
  S   S32       1.0  0.5433353051630584  0.032938434122697036  0.17548760905137434  1.0000
  Fe  Fe17      1.0  0.42516158452137004  0.7322657464008128  0.36850585190499374  1.0000
  S   S33       1.0  0.4845623578894596  0.7632230806890687  0.3662951405601435  1.0000
  S   S34       1.0  0.3937755537045105  0.7195498364426337  0.40855889683909297  1.0000
  Fe  Fe18      1.0  0.41733012912880835  0.7191909322131749  0.3057154759743178  1.0000
  S   S35       1.0  0.4760408452256882  0.7488653262366107  0.2987164768431152  1.0000
  S   S36       1.0  0.3791725566819297  0.6961010288968199  0.26976369009275153  1.0000
  Fe  Fe19      1.0  0.47814304347344255  0.7200485179910048  0.3369170451655495  1.0000
  S   S37       1.0  0.5079534629814727  0.6903872674235555  0.34233397271215205  1.0000
  Fe  Fe20      1.0  0.47638372985274313  0.7889640074850188  0.3284190189356678  1.0000
  S   S38       1.0  0.509816915963891  0.8474927738147299  0.3181233386375679  1.0000
  S   S39       1.0  0.419232480683694  0.6871471755868138  0.34176456358020796  1.0000
  S   S40       1.0  0.41720008686855753  0.7614248457455478  0.3327661780005223  1.0000
  Fe  Fe21      1.0  0.5946916370187704  0.06173708304921572  0.38535301351669987  1.0000
  S   S41       1.0  0.5359334856217088  0.036980855199407525  0.3784149950264582  1.0000
  S   S42       1.0  0.6342674780359892  0.07912168715258988  0.3501428083003642  1.0000
  Fe  Fe22      1.0  0.5877321651034387  0.05728259360915696  0.4487864508872629  1.0000
  S   S43       1.0  0.5286890568692255  0.03175654807838013  0.44678678400794397  1.0000
  S   S44       1.0  0.6188153406093914  0.0728049007052617  0.4891244027314343  1.0000
  Fe  Fe23      1.0  0.531924806638169  0.9989210574221855  0.4120363100920169  1.0000
  S   S45       1.0  0.4916267338094805  0.9403880176162821  0.41148787020725475  1.0000
  Fe  Fe24      1.0  0.5386710687956607  0.0723235266913712  0.41377706853553353  1.0000
  S   S46       1.0  0.5131466625484383  0.1059275235152682  0.41988354530255023  1.0000
  S   S47       1.0  0.5905476905476984  0.020934135018145117  0.41660694648789803  1.0000
  S   S48       1.0  0.5977577125354067  0.10026191323855076  0.41790046609881626  1.0000
  Fe  Fe25      1.0  0.4737739814441926  0.5390046771792347  0.24504371622801688  1.0000
  S   S49       1.0  0.4154417123818378  0.5011295390361504  0.24104959797152964  1.0000
  S   S50       1.0  0.49147179796019375  0.5966120489848611  0.23629792356700408  1.0000
  Fe  Fe26      1.0  0.49061823444759084  0.4795107574745514  0.25512841401769676  1.0000
  S   S51       1.0  0.43361033761868123  0.4367722596124116  0.2518698149509653  1.0000
  S   S52       1.0  0.536065268315095  0.4692383408352785  0.2619484708151569  1.0000
  Fe  Fe27      1.0  0.43162638425056893  0.46839447878435064  0.21525728852603065  1.0000
  S   S53       1.0  0.4025564668971268  0.44168094228662647  0.17558279933373122  1.0000
  Fe  Fe28      1.0  0.42308178314572487  0.47375220403597207  0.2779665651823156  1.0000
  S   S54       1.0  0.3838855826096149  0.4530724715377384  0.313582164190971  1.0000
  S   S55       1.0  0.4896154403182114  0.5083329815396017  0.21641178460978697  1.0000
  S   S56       1.0  0.48056015804088714  0.5141599490268047  0.2840580575637216  1.0000
  Fe  Fe29      1.0  0.5419964425107862  0.2500352626453131  0.32139603939953204  1.0000
  S   S57       1.0  0.6007162422660461  0.2744593073930918  0.31642870601365475  1.0000
  S   S58       1.0  0.5110313886968697  0.19119283738587106  0.3135737839766607  1.0000
  Fe  Fe30      1.0  0.5464041453108128  0.32136147993223696  0.3329564518948863  1.0000
  S   S59       1.0  0.6056240390516323  0.35166694040335156  0.32842873163571723  1.0000
  S   S60       1.0  0.5132012555492947  0.34602372584710245  0.34523773191036994  1.0000
  Fe  Fe31      1.0  0.5963962422188144  0.31596750846385535  0.2915150555980187  1.0000
  S   S61       1.0  0.6274605987430014  0.3345329991734936  0.2513709658171013  1.0000
  Fe  Fe32      1.0  0.6040581246745748  0.3070698911713413  0.3536802426818848  1.0000
  S   S62       1.0  0.6423171711532379  0.31848587287235175  0.3890874740616837  1.0000
  S   S63       1.0  0.5370642988718867  0.2893505587404014  0.2938815235008355  1.0000
  S   S64       1.0  0.545360091811366  0.279178972180488  0.360832119669998  1.0000
  Fe  Fe33      1.0  0.17693649128512742  0.47557426054964386  0.4503664619099563  1.0000
  S   S65       1.0  0.13681989646828654  0.4257448707847715  0.956934516790947  1.0000
  S   S66       1.0  0.1954704696545302  0.524070929924281  0.9832445357498079  1.0000
  Fe  Fe34      1.0  0.17736941910993612  0.47491412205201755  0.3867343740824986  1.0000
  S   S67       1.0  0.14989000886972692  0.4153335892418548  0.38487319722278246  1.0000
  S   S68       1.0  0.19454410606409056  0.5096766586640691  0.3482613937729863  1.0000
  Fe  Fe35      1.0  0.1153281844695918  0.41682257691366126  0.41896281284213305  1.0000
  S   S69       1.0  0.056434146958418356  0.3792707535006122  0.4176496810341794  1.0000
  Fe  Fe36      1.0  0.18690617619474575  0.42043463893836536  0.41938548500961886  1.0000
  S   S70       1.0  0.21863131220536072  0.3924880128545728  0.41605896218225624  1.0000
  S   S71       1.0  0.1396998573579568  0.47631514959685445  0.41813922910029633  1.0000
  S   S72       1.0  0.21713834874858198  0.4801504529559132  0.41886458904227136  1.0000
  Fe  Fe37      1.0  0.909421820362253  0.36354687253380097  0.5074228306787963  1.0000
  S   S73       1.0  0.8841079738393175  0.3040060925653581  0.5062893629987965  1.0000
  S   S74       1.0  0.9682629999421923  0.3989280887761396  0.5137139443241594  1.0000
  Fe  Fe38      1.0  0.8385008473946995  0.36113837167167945  0.5019136191381036  1.0000
  S   S75       1.0  0.8076863985485122  0.30146439342713194  0.5011199226148945  1.0000
  S   S76       1.0  0.8069546428539236  0.38879396632970037  0.4952213570727237  1.0000
  Fe  Fe39      1.0  0.8441758936485483  0.3048067017420622  0.5354269391365688  1.0000
  S   S77       1.0  0.8102629370162682  0.25831237309194793  0.07152699382637437  1.0000
  Fe  Fe40      1.0  0.8503551731609198  0.3070210460923423  0.47201136437931795  1.0000
  S   S78       1.0  0.8354793654395901  0.2737665795963229  0.43302330722707505  1.0000
  S   S79       1.0  0.8716662470787033  0.36443131527191425  0.5389159563750755  1.0000
  S   S80       1.0  0.879236072080715  0.36671840201598466  0.470538876306335  1.0000
  Fe  Fe41      1.0  0.4434237811724817  0.4379324055683767  0.9831350302490465  1.0000
  S   S81       1.0  0.47229809874125706  0.49773786704013134  0.98473362835169  1.0000
  S   S82       1.0  0.46797887949239775  0.4036880060123441  0.9734542232378511  1.0000
  Fe  Fe42      1.0  0.37240176431233984  0.4324881864373725  0.9970418952295632  1.0000
  S   S83       1.0  0.3953581680212431  0.4916725716828231  0.999726548014868  1.0000
  S   S84       1.0  0.31639403896008383  0.3933703991016632  0.009360260248798297  1.0000
  Fe  Fe43      1.0  0.42534797745398667  0.4929802022164504  0.9611510910059106  1.0000
  S   S85       1.0  0.44721128603464594  0.5380182603250926  0.425190454542407  1.0000
  Fe  Fe44      1.0  0.43960683017155455  0.4907412153387226  0.02303073757673604  1.0000
  S   S86       1.0  0.46325450121912737  0.5237676686063887  0.061784817396559055  1.0000
  S   S87       1.0  0.398715376411765  0.433402812714613  0.9566182556329639  1.0000
  S   S88       1.0  0.41451345100766596  0.4312516155686037  0.023327698458164074  1.0000
  Fe  Fe45      1.0  0.5699358971358175  0.3123426249279113  0.10210985391663281  1.0000
  S   S89       1.0  0.6161113529703725  0.3679670029718929  0.10347155096615483  1.0000
  S   S90       1.0  0.5384147751336219  0.28438820024313044  0.14044618320109883  1.0000
  Fe  Fe46      1.0  0.5802271565039628  0.3041296821354409  0.04026382714662669  1.0000
  S   S91       1.0  0.6196980150241391  0.34589937511750657  0.5320441931635747  1.0000
  S   S92       1.0  0.5550734501138049  0.251244744613633  0.4990059512896735  1.0000
  Fe  Fe47      1.0  0.6437586663691245  0.3455188257177704  0.0780761356197684  1.0000
  S   S93       1.0  0.6955040219547034  0.350258654751401  0.09161517628894851  1.0000
  Fe  Fe48      1.0  0.5954293635493848  0.3752355790171108  0.06245101495856625  1.0000
  S   S94       1.0  0.5922620049178124  0.4249811098294763  0.05409138453787375  1.0000
  S   S95       1.0  0.5986071282747021  0.2893775837157917  0.07911528270143098  1.0000
  S   S96       1.0  0.5463922093138367  0.3213198336194159  0.0633603656377241  1.0000
  C   C1        1.0  0.5041788416224473  0.41082903128563214  0.9943329866825742  1.0000
  C   C2        1.0  0.5114836930607344  0.3829614411086034  0.9983126383497561  1.0000
  C   C3        1.0  0.5392391179452941  0.38748099277934855  0.015914891160149353  1.0000
  C   C4        1.0  0.5599323766548477  0.41995505670226246  0.02956705973375149  1.0000
  C   C5        1.0  0.5535174768670975  0.4482980526549015  0.024735995769972725  1.0000
  C   C6        1.0  0.5255009249131605  0.4436780800518013  0.007307138809172775  1.0000
  H   H1        1.0  0.4950230428334482  0.3574361793873142  0.9884491636482294  1.0000
  H   H2        1.0  0.5443605658183928  0.3656905187146362  0.01906726684651861  1.0000
  H   H3        1.0  0.5698490305458885  0.4736754091214533  0.03488978062885939  1.0000
  H   H4        1.0  0.520377106112288  0.4654828282486805  0.00393637721542861  1.0000
  C   C7        1.0  0.7736956035118546  0.37553636729998224  0.5206280593783162  1.0000
  C   C8        1.0  0.7462701893135765  0.38337128943404103  0.5171536533290843  1.0000
  C   C9        1.0  0.7194826160832088  0.37259280709738113  0.5373719651768615  1.0000
  C   C10       1.0  0.7258343792736691  0.3599740658762474  0.06436057774405032  1.0000
  C   C11       1.0  0.7473547989830421  0.34430393120848496  0.06429628987974569  1.0000
  C   C12       1.0  0.7718107327723067  0.3518108653484519  0.04268826869080951  1.0000
  H   H5        1.0  0.7458708103354723  0.39803257817484144  0.498968432404485  1.0000
  H   H6        1.0  0.6986411224951317  0.37912391249091604  0.5347894297904535  1.0000
  H   H7        1.0  0.7447889135895018  0.32594872927590784  0.08070878745364668  1.0000
  H   H8        1.0  0.7877813640074128  0.3390716971865922  0.04237148427865925  1.0000
  C   C13       1.0  0.033566347408255925  0.38353416964384607  0.44619088834378623  1.0000
  C   C14       1.0  0.04891214394021248  0.4143108349953367  0.4626517703532412  1.0000
  C   C15       1.0  0.02876534665501218  0.4188443573641439  0.48347934419971983  1.0000
  C   C16       1.0  0.9934484260456781  0.3924854484607897  0.4881125163405511  1.0000
  C   C17       1.0  0.978422177214195  0.3614402519110505  0.47203877112149184  1.0000
  C   C18       1.0  0.9984452515193496  0.3569792838202561  0.4511221329994511  1.0000
  H   H9        1.0  0.07591527112759788  0.4350881883057628  0.45873802750948833  1.0000
  H   H10       1.0  0.04020854536890406  0.44329435462874284  0.49535584607271055  1.0000
  H   H11       1.0  0.9513185850826575  0.34083764514862025  0.475604077566469  1.0000
  H   H12       1.0  0.9866070357589319  0.3330169408738971  0.43856718356895336  1.0000
  C   C19       1.0  0.2480324764532001  0.4032005461608519  0.444169896000015  1.0000
  C   C20       1.0  0.22037748791224418  0.3517110752487963  0.9733263678728244  1.0000
  C   C21       1.0  0.24952073168956126  0.356454997025425  0.9890212975701521  1.0000
  C   C22       1.0  0.28130195700136335  0.3889259815933299  0.9882925356338631  1.0000
  C   C23       1.0  0.2835869805399007  0.4172541471844832  0.9722957112179718  1.0000
  C   C24       1.0  0.24400307390077905  0.4194303150283686  0.46799984878938383  1.0000
  H   H13       1.0  0.19617598348070137  0.32614278813824155  0.973560133504869  1.0000
  H   H14       1.0  0.24756329836819463  0.33458635765968203  0.0014321346247505584  1.0000
  H   H15       1.0  0.30806395351746185  0.4425356212100801  0.9718724971588257  1.0000
  H   H16       1.0  0.22253142238703102  0.42514630943514764  0.46913497632456697  1.0000
  C   C25       1.0  0.6034068162529072  0.3169415439612593  0.2204692264512541  1.0000
  C   C26       1.0  0.5674153356142828  0.29123614953357846  0.22107678145595414  1.0000
  C   C27       1.0  0.5479144092203335  0.2800453045629023  0.19622881370146325  1.0000
  C   C28       1.0  0.5644008946039331  0.2943793846977714  0.17065822597560448  1.0000
  C   C29       1.0  0.6009295402788727  0.31826403829266603  0.16988914526330945  1.0000
  C   C30       1.0  0.6203295501641294  0.32978734927328063  0.19479111651894873  1.0000
  H   H17       1.0  0.5543652290470475  0.28043861439137324  0.240644369325025  1.0000
  H   H18       1.0  0.5197695428168085  0.2610583981025992  0.19685695793345226  1.0000
  H   H19       1.0  0.6140961888351838  0.32853871987250033  0.15020683987647912  1.0000
  H   H20       1.0  0.6482037176498152  0.34950540469362673  0.19420828030998732  1.0000
  C   C31       1.0  0.6201001409430991  0.29659515776556433  0.41976692686250966  1.0000
  C   C32       1.0  0.5869223023471928  0.2655950698694098  0.4186688886571192  1.0000
  C   C33       1.0  0.5675756265530743  0.2508924876678385  0.44325400885814414  1.0000
  C   C34       1.0  0.581618080232947  0.2668611246678159  0.4690105139573259  1.0000
  C   C35       1.0  0.6158961659926135  0.29622645579241025  0.47024325002305545  1.0000
  C   C36       1.0  0.6349604923733516  0.31133211117584497  0.44564917718974684  1.0000
  H   H21       1.0  0.576029577036121  0.2529489654882167  0.3988883178008746  1.0000
  H   H22       1.0  0.5412896972770604  0.22777955484265056  0.4421613986085623  1.0000
  H   H23       1.0  0.6276141160350229  0.30766741449378104  0.49007357295846277  1.0000
  H   H24       1.0  0.6606369795404495  0.3351994562655819  0.44670737691506196  1.0000
  C   C37       1.0  0.41807358423090074  0.46617931315081385  0.144446376223285  1.0000
  C   C38       1.0  0.4488231545450813  0.49963374709624264  0.14397073476231856  1.0000
  C   C39       1.0  0.4620516962245664  0.5175629644664094  0.1185495525370333  1.0000
  C   C40       1.0  0.44462992262841317  0.5020906755044406  0.09349948661492426  1.0000
  C   C41       1.0  0.4134899520966147  0.46897584061024655  0.09400891748090195  1.0000
  C   C42       1.0  0.4001225348319369  0.45116172467614163  0.11945104680719444  1.0000
  H   H25       1.0  0.46276922449185587  0.5114326128189349  0.1630983228536383  1.0000
  H   H26       1.0  0.48635919857226106  0.5430099700552993  0.11821289238076232  1.0000
  H   H27       1.0  0.39993082853712375  0.4568702316147609  0.07478919541791729  1.0000
  H   H28       1.0  0.3762974667216115  0.4252714753701308  0.11972061917416908  1.0000
  C   C43       1.0  0.3988948684983294  0.4788893930664422  0.34400965843509607  1.0000
  C   C44       1.0  0.3820950668695502  0.46411526721410146  0.3694240231392769  1.0000
  C   C45       1.0  0.3959295873864257  0.4828357038807849  0.39437809282263636  1.0000
  C   C46       1.0  0.4267752056091455  0.5162194977081856  0.3940149038332773  1.0000
  C   C47       1.0  0.4423194558382904  0.5318853877602422  0.3684586064508451  1.0000
  C   C48       1.0  0.4282770531984214  0.5133089584725196  0.3434770644729645  1.0000
  H   H29       1.0  0.3590198905516808  0.4377009732136679  0.3699415757574983  1.0000
  H   H30       1.0  0.3827639456741395  0.4713224965857067  0.4138563804253795  1.0000
  H   H31       1.0  0.46586031094622343  0.5579797617153341  0.3679391253403329  1.0000
  H   H32       1.0  0.44043717944758354  0.5256066148381384  0.3238792926239857  1.0000
  C   C49       1.0  0.5297090580494676  0.43658142589897725  0.28670898446050797  1.0000
  C   C50       1.0  0.5579408705953224  0.4307561412548524  0.2928847270860664  1.0000
  C   C51       1.0  0.5530025867031184  0.4030588958992237  0.3109340967571271  1.0000
  C   C52       1.0  0.5198428512335439  0.38124875547921233  0.3230804133479896  1.0000
  C   C53       1.0  0.49172026411095415  0.3874692063513452  0.3173512200783483  1.0000
  C   C54       1.0  0.49659802042211776  0.4150319708693537  0.2990782043280661  1.0000
  H   H33       1.0  0.5836534807988385  0.4475474759547199  0.2834724571131463  1.0000
  H   H34       1.0  0.5749371127520507  0.3987216466772613  0.3154983348361383  1.0000
  H   H35       1.0  0.4658560905461059  0.3702598519128922  0.32633190416135993  1.0000
  H   H36       1.0  0.4746251092878416  0.4191823488866238  0.29414263489153913  1.0000
  C   C55       1.0  0.5134411792297212  0.12966440142219277  0.39011798305846107  1.0000
  C   C56       1.0  0.5103941911883996  0.16023970462806453  0.39324085949002624  1.0000
  C   C57       1.0  0.5102530320312745  0.17949749204043  0.3697456197760288  1.0000
  C   C58       1.0  0.5121095228985318  0.16763576188558227  0.343032414555954  1.0000
  C   C59       1.0  0.5147560135613443  0.1368039322628975  0.33984990355790734  1.0000
  C   C60       1.0  0.5160196181443112  0.11812988126413973  0.3634226616759455  1.0000
  H   H37       1.0  0.5080096856579273  0.1689957816315098  0.4138212365686055  1.0000
  H   H38       1.0  0.5074994828953755  0.20282600248672553  0.3723072923935905  1.0000
  H   H39       1.0  0.5159127243877217  0.12738599848266308  0.31923006792194436  1.0000
  H   H40       1.0  0.518034676218605  0.0943414608061961  0.36091830966595145  1.0000
  C   C61       1.0  0.5032268536974585  0.6641496591368506  0.3129873659199623  1.0000
  C   C62       1.0  0.4988065152074211  0.6749549741621207  0.28650454009598664  1.0000
  C   C63       1.0  0.49546062050632445  0.654169547199243  0.2630799585299722  1.0000
  C   C64       1.0  0.495688771908334  0.6220448916854895  0.2660887053534591  1.0000
  C   C65       1.0  0.49976017737410966  0.6110122977868475  0.29262808821483605  1.0000
  C   C66       1.0  0.503953740848055  0.6322618987984522  0.31602579552208815  1.0000
  H   H41       1.0  0.49900872532110113  0.6998414901936459  0.2839159525850882  1.0000
  H   H42       1.0  0.49276178574624113  0.6630893350277305  0.24265137042300672  1.0000
  H   H43       1.0  0.5005541396952068  0.5866073762588301  0.2950961349321093  1.0000
  H   H44       1.0  0.5076845070027861  0.623910881653079  0.33641990568499736  1.0000
  C   C67       1.0  0.5051008025835543  0.8735979555349476  0.3440135791087592  1.0000
  C   C68       1.0  0.47457756853791455  0.8591391485015099  0.36054114704340556  1.0000
  C   C69       1.0  0.4704150118107875  0.8801737891256683  0.38072454611306455  1.0000
  C   C70       1.0  0.4970498813820974  0.9155537355924045  0.38494655624490476  1.0000
  C   C71       1.0  0.5277283506808345  0.9301145612501787  0.3685352551023664  1.0000
  C   C72       1.0  0.5317016309521314  0.9091331669600174  0.34801525219122265  1.0000
  H   H45       1.0  0.4538557966580643  0.8318946575715581  0.3575014112370958  1.0000
  H   H46       1.0  0.4463415512861844  0.8690734606823428  0.3929124561633811  1.0000
  H   H47       1.0  0.5485783289530349  0.9572912185894427  0.37200428236204086  1.0000
  H   H48       1.0  0.5557750627131929  0.9201225591829767  0.33579276051178164  1.0000
  C   C73       1.0  0.5915544900582013  0.09866421862001805  0.2692330070792303  1.0000
  C   C74       1.0  0.6225298455285863  0.0963587882366958  0.2691307864136182  1.0000
  C   C75       1.0  0.636191786588505  0.09146496021168911  0.2941935340214843  1.0000
  C   C76       1.0  0.6191060336179455  0.08926696809825901  0.3194693643824951  1.0000
  C   C77       1.0  0.589307830190531  0.09366756815215665  0.31974416036519493  1.0000
  C   C78       1.0  0.5754472735044222  0.09821544479139746  0.2946182187048436  1.0000
  H   H49       1.0  0.6359736079835017  0.09827358962837358  0.24974667355184998  1.0000
  H   H50       1.0  0.6594982385581558  0.08850295008719833  0.2938509332636007  1.0000
  H   H51       1.0  0.5766014573839506  0.09310133782020827  0.33924877575205425  1.0000
  H   H52       1.0  0.5516148391099367  0.10026638871796913  0.29487309014182794  1.0000
  C   C79       1.0  0.5880327449125685  0.08343262420027721  0.07036703103846573  1.0000
  C   C80       1.0  0.6183279182379868  0.07992488827821967  0.0721326171495771  1.0000
  C   C81       1.0  0.6145169342708308  0.0780405110846412  0.5456005651037827  1.0000
  C   C82       1.0  0.5961184492383846  0.06996324343839494  0.52022324968722  1.0000
  C   C83       1.0  0.5599370892699963  0.05894406038465022  0.520223539448874  1.0000
  C   C84       1.0  0.5781963627792633  0.09106625021539973  0.04459070324711176  1.0000
  H   H53       1.0  0.6265209418926585  0.0746109559548307  0.09193568613355944  1.0000
  H   H54       1.0  0.6424516306706386  0.08627345932863584  0.5457291259868532  1.0000
  H   H55       1.0  0.5454909842226653  0.052771922993224106  0.5009368574999906  1.0000
  H   H56       1.0  0.5550624562773188  0.09420811529677019  0.04315314211702613  1.0000
  C   C85       1.0  0.47845841264779504  0.8754581427056124  0.12123279902152913  1.0000
  C   C86       1.0  0.49843574511524685  0.8643839515860664  0.1368978637105612  1.0000
  C   C87       1.0  0.5215752723912661  0.8867365491390281  0.15769472763152922  1.0000
  C   C88       1.0  0.5248309541952224  0.9201762022454767  0.1628170051493517  1.0000
  C   C89       1.0  0.5046407878015863  0.9310763525296442  0.1472950392220186  1.0000
  C   C90       1.0  0.48124375366629724  0.9085889947094342  0.1267504044337881  1.0000
  H   H57       1.0  0.49663553371640473  0.8389751983039135  0.132560176683149  1.0000
  H   H58       1.0  0.5378046700685071  0.8785999366023783  0.16916160275734377  1.0000
  H   H59       1.0  0.5066120886387306  0.9565978272304289  0.15143429408863457  1.0000
  H   H60       1.0  0.4651467611272831  0.9168145309887965  0.1151557126651784  1.0000
  C   C91       1.0  0.43700323379924055  0.7045193150909281  0.18827672894768652  1.0000
  C   C92       1.0  0.4038300470481798  0.7024211980645202  0.18788378079639764  1.0000
  C   C93       1.0  0.3856212721707286  0.6987685935299023  0.2129250567770028  1.0000
  C   C94       1.0  0.40037887980289455  0.696825003658401  0.23839228533987433  1.0000
  C   C95       1.0  0.43259223383276973  0.6968977061701854  0.23861008030316963  1.0000
  C   C96       1.0  0.45095682971332895  0.7009078597550976  0.2136052828241717  1.0000
  H   H61       1.0  0.39238289521075226  0.7041650870154322  0.16837878728777075  1.0000
  H   H62       1.0  0.36068025333287934  0.6986800724396194  0.21253635127216866  1.0000
  H   H63       1.0  0.4434565956527352  0.6939410682403709  0.2580496099235526  1.0000
  H   H64       1.0  0.4764673184969359  0.7021859873488137  0.21402078294002472  1.0000
  C   C97       1.0  0.4508075766743507  0.7237542738874988  0.9892584953978897  1.0000
  C   C98       1.0  0.46583459982223063  0.7243320083367646  0.9633025758117424  1.0000
  C   C99       1.0  0.4520248170011261  0.7332132815277898  0.4402519204811497  1.0000
  C   C100      1.0  0.4156337922939871  0.7210966164414977  0.43981573520404427  1.0000
  C   C101      1.0  0.3963856236507143  0.710970523534579  0.46484508547749226  1.0000
  C   C102      1.0  0.4167031048043962  0.7193000355772202  0.9904794471210319  1.0000
  H   H65       1.0  0.4921756283436036  0.7276538216136801  0.9623591152565006  1.0000
  H   H66       1.0  0.4671129633258763  0.7412109363482425  0.42120169803706986  1.0000
  H   H67       1.0  0.36822879250793933  0.701765680471258  0.46461753563224556  1.0000
  H   H68       1.0  0.40428503334137733  0.7172118133528103  0.010349570611435025  1.0000
  C   C103      1.0  0.8466589092664617  0.33278970012562914  0.35122682866792015  1.0000
  C   C104      1.0  0.8435502191968259  0.298992088701128  0.35121861112232705  1.0000
  C   C105      1.0  0.839350097755729  0.2807519770234566  0.3764284542244693  1.0000
  C   C106      1.0  0.8379389292831364  0.29605917921144936  0.4017348701566217  1.0000
  C   C107      1.0  0.8398134993775715  0.3293349277688284  0.4016905428383444  1.0000
  C   C108      1.0  0.8440854874144796  0.34761610132659665  0.3764654721293561  1.0000
  H   H69       1.0  0.845027307284186  0.28710767060465114  0.3318994161116198  1.0000
  H   H70       1.0  0.838344047163077  0.25522021212631707  0.3764159858767114  1.0000
  H   H71       1.0  0.838517640565387  0.34123759102329965  0.4210528229893055  1.0000
  H   H72       1.0  0.8462409314661012  0.3736801468993688  0.3765272544104106  1.0000
  C   C109      1.0  0.8171583913023248  0.3175633984142575  0.15202159361599665  1.0000
  C   C110      1.0  0.8168102000458926  0.3326209496022575  0.12623529500804037  1.0000
  C   C111      1.0  0.8140217111190798  0.3141979844374511  0.10147974944732628  1.0000
  C   C112      1.0  0.8117352487374503  0.28076862306995565  0.10240344241947742  1.0000
  C   C113      1.0  0.8107424140843916  0.26514259929559414  0.1282281334536407  1.0000
  C   C114      1.0  0.813050806898107  0.2833609291530284  0.1529862786613237  1.0000
  H   H73       1.0  0.8194976463056816  0.35889898776849455  0.12532397790918984  1.0000
  H   H74       1.0  0.8136111522973256  0.3259448454925489  0.08172644551487003  1.0000
  H   H75       1.0  0.8088813912088129  0.23923604072040147  0.12921954110125833  1.0000
  H   H76       1.0  0.8114890929224403  0.27079512315510407  0.17279467441618085  1.0000
  C   C115      1.0  0.7660569680651714  0.17658103945792766  0.23384702793066106  1.0000
  C   C116      1.0  0.7327147085434548  0.14642635445443344  0.23809451254252875  1.0000
  C   C117      1.0  0.7132670115147052  0.1253427918114749  0.21541607584456107  1.0000
  C   C118      1.0  0.7274512713615617  0.13377909382214662  0.18850317494924018  1.0000
  C   C119      1.0  0.7607867593672437  0.16395790093321141  0.18419172670569378  1.0000
  C   C120      1.0  0.7799067413095878  0.18558810390085903  0.20682038817665  1.0000
  H   H77       1.0  0.721858481789695  0.13927768132528084  0.25891269424158964  1.0000
  H   H78       1.0  0.6877351442915351  0.10203368736602646  0.21891195159988275  1.0000
  H   H79       1.0  0.771919130481866  0.1705384120337764  0.16341562523916153  1.0000
  H   H80       1.0  0.8057917085031232  0.20853573921027854  0.2034578340810757  1.0000
  C   C121      1.0  0.18738176963234715  0.45536344122668315  0.26499744298337724  1.0000
  C   C122      1.0  0.19142475479762738  0.4895382129005717  0.2657267114260575  1.0000
  C   C123      1.0  0.1940560692267499  0.5062226348316874  0.2913958204805534  1.0000
  C   C124      1.0  0.19208684020947095  0.48855285986426994  0.31643184473653796  1.0000
  C   C125      1.0  0.18819730796214357  0.4544408083734654  0.31566778769111087  1.0000
  C   C126      1.0  0.18604701895181663  0.43794991807527606  0.29000430795188836  1.0000
  H   H81       1.0  0.19236602835255187  0.5030444057544265  0.24653938749264162  1.0000
  H   H82       1.0  0.19690317778199073  0.5325701604426457  0.2918947305703673  1.0000
  H   H83       1.0  0.18707938047594724  0.4408303001775637  0.3347994240253677  1.0000
  H   H84       1.0  0.18280567054079927  0.4114347616752704  0.28950710123344153  1.0000
  C   C127      1.0  0.2037677085416778  0.473265116291268  0.06420863100472826  1.0000
  C   C128      1.0  0.20116924784277498  0.45652340345848963  0.03866210386568696  1.0000
  C   C129      1.0  0.19988057064929274  0.47270230336022506  0.013666617806373987  1.0000
  C   C130      1.0  0.20084310829996985  0.5055338904512356  0.01414110916059589  1.0000
  C   C131      1.0  0.2045977642632054  0.5228679515706063  0.03961139785843896  1.0000
  C   C132      1.0  0.20621720433160298  0.5067959305097747  0.06462389008485889  1.0000
  H   H85       1.0  0.1992221315860402  0.430575979650318  0.03810850514397046  1.0000
  H   H86       1.0  0.19772529973885658  0.4594773867124964  0.9940520914210775  1.0000
  H   H87       1.0  0.2055431629763509  0.5483697782737442  0.04007915076022798  1.0000
  H   H88       1.0  0.20946855480734122  0.520433074560672  0.08416995130369172  1.0000
  C   C133      1.0  0.034111159294635075  0.4147285187145585  0.17325136457354534  1.0000
  C   C134      1.0  0.04309114000653286  0.3900240030780401  0.18365880138531615  1.0000
  C   C135      1.0  0.019757907009593234  0.3626276547887855  0.2014980247646333  1.0000
  C   C136      1.0  0.9876542519969087  0.36018863605502316  0.2095251435051363  1.0000
  C   C137      1.0  0.9782963275920336  0.3845441109527237  0.19881748803310204  1.0000
  C   C138      1.0  0.0014366854027809683  0.4116703385118571  0.18051664560220318  1.0000
  H   H89       1.0  0.06789377106039438  0.3917589697202872  0.17777553828676373  1.0000
  H   H90       1.0  0.026802049252325322  0.34345572366150245  0.20936666820586616  1.0000
  H   H91       1.0  0.9536188677846584  0.38291490820410273  0.20503976312742372  1.0000
  H   H92       1.0  0.994429187484589  0.4308210128460433  0.1725513102571323  1.0000
  C   C139      1.0  0.25556547442045746  0.6125972330059124  0.14918881378177748  1.0000
  C   C140      1.0  0.2827811907928733  0.647983886813873  0.15250887022375217  1.0000
  C   C141      1.0  0.3043807915040103  0.6669515300498884  0.1297751445025015  1.0000
  C   C142      1.0  0.29809611654382645  0.6508931542528227  0.10350152713196269  1.0000
  C   C143      1.0  0.2708851430080671  0.6155388387319026  0.10021827780068143  1.0000
  C   C144      1.0  0.25003866205823166  0.5962776619173888  0.12310690322125158  1.0000
  H   H93       1.0  0.2869555333435835  0.6609300103216024  0.17253405210573633  1.0000
  H   H94       1.0  0.32508187382065623  0.6943546766164068  0.13237368028057303  1.0000
  H   H95       1.0  0.26598066571859086  0.6028946782748912  0.08004071042231058  1.0000
  H   H96       1.0  0.22931750555454958  0.5690135525837665  0.1204227865971548  1.0000
  Fe  Fe49      1.0  0.18410983619913704  0.5107049334542466  0.6740326502567797  1.0000
  S   S97       1.0  0.2059319941158747  0.4733220166950021  0.6742019302707606  1.0000
  S   S98       1.0  0.22310219470533157  0.5682695512021341  0.682831406669478  1.0000
  Fe  Fe50      1.0  0.10847870637997555  0.4512700859618619  0.6629887732821523  1.0000
  S   S99       1.0  0.1245810069902665  0.4095048223582417  0.6618404096834744  1.0000
  S   S100      1.0  0.051371015318084357  0.4355518215927279  0.6551586216156248  1.0000
  Fe  Fe51      1.0  0.15751895416236547  0.43779310299024016  0.69931765194351  1.0000
  S   S101      1.0  0.15624022302464097  0.4064414499093385  0.7371787956194071  1.0000
  Fe  Fe52      1.0  0.1710798124100044  0.4494211539537028  0.6368541132383551  1.0000
  S   S102      1.0  0.1889057877596815  0.43169378915092005  0.599068535261934  1.0000
  S   S103      1.0  0.13811401362360592  0.4769598679098106  0.7023580089392901  1.0000
  S   S104      1.0  0.15227318215956642  0.48917556247513216  0.6348373081607505  1.0000
  Fe  Fe53      1.0  0.8369934516008745  0.31777540028736584  0.7218095411058838  1.0000
  S   S105      1.0  0.8637935951660438  0.2848781700906613  0.7173289533204533  1.0000
  S   S106      1.0  0.82077703219073  0.3394424306555546  0.6853316238223957  1.0000
  Fe  Fe54      1.0  0.837319794074489  0.3153174675958585  0.7852218349013085  1.0000
  S   S107      1.0  0.8642383073978515  0.28272894450210756  0.7858577299112385  1.0000
  S   S108      1.0  0.821652983627036  0.33213838682416086  0.824650818038505  1.0000
  Fe  Fe55      1.0  0.8987243287342921  0.31930990669889037  0.7520218593428838  1.0000
  S   S109      1.0  0.9574839327943305  0.3403596989679324  0.7555747520682431  1.0000
  Fe  Fe56      1.0  0.8265180941194623  0.25176691336975  0.7515735451671023  1.0000
  S   S110      1.0  0.7934797841400726  0.19250422235545514  0.756746767166688  1.0000
  S   S111      1.0  0.8749151057612314  0.35485938228776426  0.7540524311194573  1.0000
  S   S112      1.0  0.7969568205851282  0.28187685987749583  0.7532456479595319  1.0000
  Fe  Fe57      1.0  0.443560963929201  0.7314168671437433  0.5608055681506751  1.0000
  S   S113      1.0  0.4014842933958803  0.7469119380055426  0.5605076013160352  1.0000
  S   S114      1.0  0.47292618980234963  0.7317540593739482  0.5220672800399841  1.0000
  Fe  Fe58      1.0  0.4373372705882883  0.7182281455943589  0.6233322498869347  1.0000
  S   S115      1.0  0.39456066256278005  0.7325468411330225  0.6283073809897565  1.0000
  S   S116      1.0  0.4601585035111865  0.7026004513596155  0.6591982152830699  1.0000
  Fe  Fe59      1.0  0.37223553425290923  0.700148393841577  0.5893374659149725  1.0000
  S   S117      1.0  0.3158734343430343  0.6584635136278111  0.579919990907563  1.0000
  Fe  Fe60      1.0  0.4281006759987293  0.777832636674169  0.5993100410971745  1.0000
  S   S118      1.0  0.4359116474594956  0.8331007159274237  0.6054577164038888  1.0000
  S   S119      1.0  0.4125275879327676  0.682252368216105  0.5866559697065143  1.0000
  S   S120      1.0  0.4727998188428071  0.7661302567157021  0.5972947387279588  1.0000
  Fe  Fe61      1.0  0.5657979206532135  0.052676789981233596  0.6397937122923945  1.0000
  S   S121      1.0  0.6032840495810803  0.03151289952181125  0.6356702875814514  1.0000
  S   S122      1.0  0.5367663504210926  0.05562260130981466  0.6020237047262846  1.0000
  Fe  Fe62      1.0  0.5776241893102863  0.06415748011156705  0.7024212510485638  1.0000
  S   S123      1.0  0.6161097184122042  0.04376057582985986  0.7030995692884147  1.0000
  S   S124      1.0  0.5607396632828796  0.08219706639244145  0.7407634263216155  1.0000
  Fe  Fe63      1.0  0.6380377989788129  0.07657627956273941  0.6642524541136405  1.0000
  S   S125      1.0  0.6947998629226233  0.11527375161182826  0.653248563184295  1.0000
  Fe  Fe64      1.0  0.5772106125053893  0.0009344499702563792  0.6746699522511168  1.0000
  S   S126      1.0  0.5624977149480563  0.9434563467856415  0.6809435655067253  1.0000
  S   S127      1.0  0.6022399975960923  0.10007375495622274  0.6654869575048769  1.0000
  S   S128      1.0  0.5369251488268122  0.01875697991362335  0.676834204886753  1.0000
  Fe  Fe65      1.0  0.4289909755763048  0.7421971333838588  0.8715518220582946  1.0000
  S   S129      1.0  0.48839340963521016  0.7728072861529233  0.8736096015041107  1.0000
  S   S130      1.0  0.3946621979525949  0.7263392000770152  0.9099320608482314  1.0000
  Fe  Fe66      1.0  0.4279289187997351  0.7359230860525081  0.8083057071968793  1.0000
  S   S131      1.0  0.487196965350428  0.7657229330954742  0.8051065026815692  1.0000
  S   S132      1.0  0.3912696067700855  0.7134871766345465  0.771397492477666  1.0000
  Fe  Fe67      1.0  0.48507007026654325  0.7328899502671795  0.8421683918550474  1.0000
  S   S133      1.0  0.5126096294156646  0.7010483097868572  0.847795547178495  1.0000
  Fe  Fe68      1.0  0.4845597095928712  0.8026370162162934  0.8366011219778895  1.0000
  S   S134      1.0  0.5201613789774331  0.8617901479423488  0.830875164221106  1.0000
  S   S135      1.0  0.42589580151884604  0.7000671154182109  0.8428649967248975  1.0000
  S   S136      1.0  0.4251681121127582  0.7754822816053996  0.8370505204779083  1.0000
  Fe  Fe69      1.0  0.6082140686325507  0.07111071775830427  0.8908266335517592  1.0000
  S   S137      1.0  0.5489585430694249  0.04682292251169362  0.8911998002381594  1.0000
  S   S138      1.0  0.6407471208255647  0.08405169665167006  0.8514271095686003  1.0000
  Fe  Fe70      1.0  0.6137316314876243  0.07350308643340908  0.9542824878579709  1.0000
  S   S139      1.0  0.5550083034052359  0.04901715810962548  0.959665953221797  1.0000
  S   S140      1.0  0.6499432098671802  0.08937384366924295  0.9917110460074996  1.0000
  Fe  Fe71      1.0  0.5507310612245752  0.012035513773346773  0.9253304248225478  1.0000
  S   S141      1.0  0.5102537976747333  0.9536220701442234  0.9290838546386264  1.0000
  Fe  Fe72      1.0  0.559289525040922  0.08627706472365386  0.9253904504375781  1.0000
  S   S142      1.0  0.536532008445856  0.12228250479535822  0.9321289154078475  1.0000
  S   S143      1.0  0.6094277173914774  0.0333136012260713  0.9226090431567998  1.0000
  S   S144      1.0  0.6184977705434272  0.11344602981599924  0.9223243360152443  1.0000
  Fe  Fe73      1.0  0.46308112252080785  0.5499426789469319  0.7466485913311108  1.0000
  S   S145      1.0  0.40471190185436545  0.5167958904914014  0.7392878763691916  1.0000
  S   S146      1.0  0.48473234944714433  0.6084191066342142  0.7394382609984725  1.0000
  Fe  Fe74      1.0  0.4720126861434248  0.48487754702262786  0.7541981101114241  1.0000
  S   S147      1.0  0.41419948419111446  0.44659271162529973  0.7469211831378096  1.0000
  S   S148      1.0  0.5139472426766352  0.46947023740741056  0.7608582166464459  1.0000
  Fe  Fe75      1.0  0.41915077366362435  0.48377882009151046  0.7120808212074266  1.0000
  S   S149      1.0  0.3927861475125447  0.4661094273168634  0.6698404418131736  1.0000
  Fe  Fe76      1.0  0.40603611410885626  0.4837409437059559  0.7748288308752339  1.0000
  S   S150      1.0  0.3658664050623211  0.46467336964544803  0.8096287368959527  1.0000
  S   S151      1.0  0.47765649409678224  0.5192339489773752  0.7172678363774859  1.0000
  S   S152      1.0  0.4636458347281913  0.519622791069698  0.7844487107917983  1.0000
  Fe  Fe77      1.0  0.52343758861322  0.24007312923375593  0.8244989722760017  1.0000
  S   S153      1.0  0.5825748610865233  0.27500294278948884  0.8244908486402176  1.0000
  S   S154      1.0  0.5025163798355143  0.18105398652306456  0.8227042958485189  1.0000
  Fe  Fe78      1.0  0.5106324239264605  0.3029603677462541  0.8170713762375721  1.0000
  S   S155      1.0  0.5687366015397847  0.3420383187152798  0.8150403961133138  1.0000
  S   S156      1.0  0.46893392447691046  0.31941883208950983  0.8144882350908988  1.0000
  Fe  Fe79      1.0  0.5724771492360968  0.3015745705421273  0.7882452776609485  1.0000
  S   S157      1.0  0.6068430300777766  0.3160395333951375  0.7498165448833423  1.0000
  Fe  Fe80      1.0  0.5720416973368094  0.3112368015718767  0.8513478479114261  1.0000
  S   S158      1.0  0.6017805015873636  0.3445095226842749  0.8882624038441275  1.0000
  S   S159      1.0  0.5137629533688375  0.26500830292000893  0.7869593854607749  1.0000
  S   S160      1.0  0.5135274330159121  0.27374802968291895  0.8548352084211137  1.0000
  Fe  Fe81      1.0  0.1763323838324204  0.483398600510746  0.9487074697061054  1.0000
  S   S161      1.0  0.14952327317714703  0.4157923143605095  0.45355373724777515  1.0000
  S   S162      1.0  0.192474180420693  0.5117507534610666  0.4879274472415873  1.0000
  Fe  Fe82      1.0  0.1827554379324484  0.4712199270849108  0.8871586241142492  1.0000
  S   S163      1.0  0.14390825323091827  0.4128602094939063  0.890395518993414  1.0000
  S   S164      1.0  0.21108508073337742  0.4981896093048217  0.8472712036173463  1.0000
  Fe  Fe83      1.0  0.11165840659351342  0.42883166816112683  0.916929103256028  1.0000
  S   S165      1.0  0.05249418355623138  0.4011821069956804  0.9092980124308893  1.0000
  Fe  Fe84      1.0  0.17289227285044564  0.41550376288894336  0.9297584583445738  1.0000
  S   S166      1.0  0.1849118292034137  0.3714478530892897  0.9375153268788379  1.0000
  S   S167      1.0  0.14833713996448508  0.48756978933744805  0.9106366097806164  1.0000
  S   S168      1.0  0.214388681509284  0.47276146608357317  0.9246916287027658  1.0000
  Fe  Fe85      1.0  0.9029063459998935  0.35280666022096047  0.008901713411049839  1.0000
  S   S169      1.0  0.8754096619067759  0.2930752371956277  0.009067673631921958  1.0000
  S   S170      1.0  0.9616222302037268  0.38563016229521213  0.01728519636395509  1.0000
  Fe  Fe86      1.0  0.8340838818506287  0.35363840577309763  0.9997617715874596  1.0000
  S   S171      1.0  0.8009960829487281  0.2940574895030142  0.9989927360702767  1.0000
  S   S172      1.0  0.8058705920688773  0.38495502607616094  0.9943025045296029  1.0000
  Fe  Fe87      1.0  0.8342776429627852  0.2960195062821829  0.03528031489784844  1.0000
  S   S173      1.0  0.8262606059751464  0.2677795168372386  0.5724806306400655  1.0000
  Fe  Fe88      1.0  0.8448436929006247  0.29681614036838816  0.9727634064386168  1.0000
  S   S174      1.0  0.83224282902791  0.25990926195344227  0.9362872950421097  1.0000
  S   S175      1.0  0.8642894594229136  0.35568587811753294  0.03837092466692926  1.0000
  S   S176      1.0  0.8756527622109258  0.3565700673585894  0.9702471098380973  1.0000
  Fe  Fe89      1.0  0.4405455473077248  0.43777336136614414  0.48348664273304776  1.0000
  S   S177      1.0  0.4797911433493489  0.4962805242701155  0.4823136684681217  1.0000
  S   S178      1.0  0.4554750838929775  0.39632957220147685  0.4719182764174314  1.0000
  Fe  Fe90      1.0  0.38028550375678977  0.44994397026556243  0.5022111350283611  1.0000
  S   S179      1.0  0.4149108318830756  0.509359474926573  0.5023353654976845  1.0000
  S   S180      1.0  0.32472545489092736  0.4310458399203205  0.5171779117407951  1.0000
  Fe  Fe91      1.0  0.4358445148032654  0.5012615895967852  0.46196583849962386  1.0000
  S   S181      1.0  0.4341486406927856  0.5320208344681415  0.9264378530778106  1.0000
  Fe  Fe92      1.0  0.4546299589708708  0.4981245167561773  0.5226915253473864  1.0000
  S   S182      1.0  0.48544547233834573  0.5275974326984983  0.5606609948768745  1.0000
  S   S183      1.0  0.3981813019102791  0.44234979211000747  0.4601064010054094  1.0000
  S   S184      1.0  0.41864203141626244  0.43901506343358915  0.5255579075530653  1.0000
  Fe  Fe93      1.0  0.5609616495540419  0.2975975730580585  0.5964609202668258  1.0000
  S   S185      1.0  0.6051275408075688  0.35427843126287123  0.5981003885710844  1.0000
  S   S186      1.0  0.5276129535100673  0.2691878534374874  0.6340400231251183  1.0000
  Fe  Fe94      1.0  0.574195835317223  0.28981264732084017  0.5350633769485282  1.0000
  S   S187      1.0  0.6282863163943494  0.3586420480878355  0.03693635594625433  1.0000
  S   S188      1.0  0.5597091377891658  0.2657434114888147  0.004262678998897096  1.0000
  Fe  Fe95      1.0  0.6356174365556486  0.3342155719208303  0.5735839761791208  1.0000
  S   S189      1.0  0.6886763770481328  0.34275603139480276  0.5877601001981558  1.0000
  Fe  Fe96      1.0  0.5844031153631184  0.3599669145846593  0.5565797562760127  1.0000
  S   S190      1.0  0.5811416599920991  0.40936894327060797  0.5467804361921436  1.0000
  S   S191      1.0  0.5926736801410307  0.27696586333705814  0.5747319909213071  1.0000
  S   S192      1.0  0.5375322025464196  0.30462774965398565  0.5567955539501133  1.0000
  C   C145      1.0  0.49150635715932844  0.40007996258711165  0.4913082570914349  1.0000
  C   C146      1.0  0.49323070657874823  0.3693998115265343  0.4981163374116156  1.0000
  C   C147      1.0  0.5213238583790298  0.3720009081581577  0.5144098228210883  1.0000
  C   C148      1.0  0.5480097976375757  0.4053466900499169  0.5236148854817742  1.0000
  C   C149      1.0  0.5468747565277444  0.4360630426194452  0.5159363731581518  1.0000
  C   C150      1.0  0.5184620218014379  0.433427736258019  0.5001633289452273  1.0000
  H   H97       1.0  0.47219960791484317  0.3434755659087945  0.49158707858153067  1.0000
  H   H98       1.0  0.5217658202278475  0.3481668503533032  0.5205055644598207  1.0000
  H   H99       1.0  0.5677046671613724  0.46197333723275513  0.5227224648048219  1.0000
  H   H100      1.0  0.5176491165535825  0.45729175317717013  0.4947256820255154  1.0000
  C   C151      1.0  0.775649076086022  0.3758757845583542  0.02160220728928297  1.0000
  C   C152      1.0  0.7546831550761577  0.3921622865406042  0.02201198636159618  1.0000
  C   C153      1.0  0.7293521982159797  0.38378476642445225  0.04313914515833761  1.0000
  C   C154      1.0  0.7205634619538501  0.3546581987924427  0.5613522135821348  1.0000
  C   C155      1.0  0.7481275589693192  0.3470200331160253  0.564879576851833  1.0000
  C   C156      1.0  0.7743748952584569  0.35700783231586475  0.5443566006101577  1.0000
  H   H101      1.0  0.7582533481131191  0.41145736626186535  0.006112822837374798  1.0000
  H   H102      1.0  0.7132722655386539  0.39649843400604246  0.043468537293141374  1.0000
  H   H103      1.0  0.7491383074897423  0.33322270017435923  0.5834048462123642  1.0000
  H   H104      1.0  0.7954779850285216  0.3509167220226953  0.5471107529592133  1.0000
  C   C157      1.0  0.02760202297256864  0.3965458146108069  0.9395940193549344  1.0000
  C   C158      1.0  0.04328710545577885  0.4187121983684759  0.9626306820487421  1.0000
  C   C159      1.0  0.022773465201464838  0.41541043868230976  0.9862788430452728  1.0000
  C   C160      1.0  0.9866783964563096  0.38975074402216736  0.9871941621144685  1.0000
  C   C161      1.0  0.9709985102550366  0.3675079757341241  0.964188322547994  1.0000
  C   C162      1.0  0.9914319239164283  0.37090379130636236  0.9404665415612592  1.0000
  H   H105      1.0  0.07104033893319195  0.4388947967483505  0.9619563592905114  1.0000
  H   H106      1.0  0.03463727448675802  0.4333019132711761  0.0035767214754922616  1.0000
  H   H107      1.0  0.9432296247090672  0.3473978541026989  0.9647939349967719  1.0000
  H   H108      1.0  0.9793103183666797  0.3531391790852724  0.9230541478867135  1.0000
  C   C163      1.0  0.22218140392254856  0.37980644512364214  0.9575629397925384  1.0000
  C   C164      1.0  0.2758695699532915  0.39573774502604797  0.4426631034117446  1.0000
  C   C165      1.0  0.29974229398614344  0.4046574417416981  0.4649456092748257  1.0000
  C   C166      1.0  0.29537609924288016  0.42037958447320845  0.4889910654595174  1.0000
  C   C167      1.0  0.2673233392972549  0.42755115613921946  0.49058282609787096  1.0000
  C   C168      1.0  0.2537543948667228  0.4128339040638973  0.9571923313030352  1.0000
  H   H109      1.0  0.27888919002384277  0.3829159738530595  0.42434081318571015  1.0000
  H   H110      1.0  0.3208550723165935  0.39835567073222744  0.4638461670292627  1.0000
  H   H111      1.0  0.2637772046032078  0.4396844701782654  0.5090994603093815  1.0000
  H   H112      1.0  0.25537247283806963  0.4346041129557237  0.9449230632637673  1.0000
  C   C169      1.0  0.5854805051096847  0.3001736305050092  0.7175736194093291  1.0000
  C   C170      1.0  0.6038700660613469  0.3162426327645011  0.692973243150369  1.0000
  C   C171      1.0  0.5867476272950153  0.30577641120352983  0.667057918426847  1.0000
  C   C172      1.0  0.5509897081783779  0.2794572792252703  0.6656750352261874  1.0000
  C   C173      1.0  0.5330038652550082  0.2623402983568278  0.690173415703806  1.0000
  C   C174      1.0  0.5502567287620383  0.27257920735863805  0.7160541684361434  1.0000
  H   H113      1.0  0.631120645783253  0.33750555943727356  0.6940142322485614  1.0000
  H   H114      1.0  0.6010724906594698  0.3185596446577153  0.6482564736453857  1.0000
  H   H115      1.0  0.5054782330647741  0.2415559098596113  0.6891285396388438  1.0000
  H   H116      1.0  0.5361465850040741  0.25920967895301  0.7347049850175246  1.0000
  C   C175      1.0  0.5855153777441929  0.32188224913060637  0.9198925385539187  1.0000
  C   C176      1.0  0.5702231993040489  0.28479572751066895  0.9212508987598397  1.0000
  C   C177      1.0  0.5613437442496905  0.2675018363876834  0.9472389712881456  1.0000
  C   C178      1.0  0.5671566367004592  0.2871732301605151  0.9717968088870499  1.0000
  C   C179      1.0  0.5806009979791736  0.3240068369356178  0.970216680381857  1.0000
  C   C180      1.0  0.5902327350991916  0.34141845336034365  0.9443288841885782  1.0000
  H   H117      1.0  0.5666677291689404  0.2696220573357924  0.9024133611099453  1.0000
  H   H118      1.0  0.5509204152829904  0.23904755606715536  0.9483038384427396  1.0000
  H   H119      1.0  0.5839851296278774  0.3392050709895642  0.9889454633003723  1.0000
  H   H120      1.0  0.6016620015356082  0.37009183932338685  0.9433023621025004  1.0000
  C   C181      1.0  0.4192436574044881  0.4835533956686228  0.6398037889457671  1.0000
  C   C182      1.0  0.40315765345132093  0.47362661419626106  0.61356349048371  1.0000
  C   C183      1.0  0.42315357236082196  0.48787906864823577  0.5891961061041979  1.0000
  C   C184      1.0  0.45966554421365013  0.5113948487820269  0.590936379501945  1.0000
  C   C185      1.0  0.4759475267171841  0.5210778722611118  0.6171039361167199  1.0000
  C   C186      1.0  0.45574058519898003  0.5073054740090261  0.6414718458042672  1.0000
  H   H121      1.0  0.3752088618831113  0.4546809356268296  0.6120709995916679  1.0000
  H   H122      1.0  0.4102673464333288  0.4805707429559384  0.5690862631602506  1.0000
  H   H123      1.0  0.5042580799755239  0.5390798046186089  0.6185325865359182  1.0000
  H   H124      1.0  0.4686029123152264  0.5149212375471663  0.6613985176857925  1.0000
  C   C187      1.0  0.3862905231685001  0.48300825488235893  0.841776225174708  1.0000
  C   C188      1.0  0.3748941641431839  0.462064286041616  0.8659852268537713  1.0000
  C   C189      1.0  0.3894393212107856  0.4769579752575482  0.8919962679104547  1.0000
  C   C190      1.0  0.41584101428825704  0.5127569550361574  0.8939367914840753  1.0000
  C   C191      1.0  0.4273842329971665  0.5337271635283609  0.8696944788072328  1.0000
  C   C192      1.0  0.4126395486028903  0.5188877931669119  0.8436699341012603  1.0000
  H   H125      1.0  0.3550310454996508  0.4341886886441427  0.8647016073897948  1.0000
  H   H126      1.0  0.3799112746852164  0.4607452047578045  0.9105360032606048  1.0000
  H   H127      1.0  0.44798071325743954  0.5613531219996027  0.8709157956449011  1.0000
  H   H128      1.0  0.42142597294062684  0.5353238245716887  0.8251403984360123  1.0000
  C   C193      1.0  0.5010584127125867  0.429595693530259  0.779070813675453  1.0000
  C   C194      1.0  0.5271403545970257  0.42138732218109837  0.78715203176065  1.0000
  C   C195      1.0  0.517556120096511  0.38835452863028086  0.7994159076213389  1.0000
  C   C196      1.0  0.4818121003382744  0.36293772903278426  0.8030653823391818  1.0000
  C   C197      1.0  0.45573605019167407  0.37171682115420185  0.7961337784929361  1.0000
  C   C198      1.0  0.4653421169092074  0.40505026588207405  0.784190250010402  1.0000
  H   H129      1.0  0.5548380991983114  0.4405257919427651  0.7835828097286871  1.0000
  H   H130      1.0  0.5379377969421272  0.3825105314821921  0.8054172478921132  1.0000
  H   H131      1.0  0.4279943080975151  0.3523751391436984  0.7992342080501885  1.0000
  H   H132      1.0  0.445056176382331  0.4113203918582862  0.7783354775106623  1.0000
  C   C199      1.0  0.528970432060703  0.13909537148069942  0.9011167101842462  1.0000
  C   C200      1.0  0.5311819985594556  0.1725623671868429  0.9012826684288757  1.0000
  C   C201      1.0  0.5237913701588447  0.18587061075241196  0.8770370548078918  1.0000
  C   C202      1.0  0.5134187725823561  0.16536252452305955  0.85273099026128  1.0000
  C   C203      1.0  0.5114693680875798  0.13199723747311556  0.8524461405624744  1.0000
  C   C204      1.0  0.519637977612466  0.1190295973153499  0.8765613335121496  1.0000
  H   H133      1.0  0.5387619883299004  0.1883020123689533  0.9201045822892905  1.0000
  H   H134      1.0  0.5253164882757047  0.21162140907246466  0.8773243414713534  1.0000
  H   H135      1.0  0.5033434437722323  0.11602741253343885  0.833687076797119  1.0000
  H   H136      1.0  0.5175645867952253  0.09304559395338563  0.8763776065996973  1.0000
  C   C205      1.0  0.5071941924849854  0.6758958330224659  0.8176900689422586  1.0000
  C   C206      1.0  0.5035236084990641  0.6418545673764323  0.8197493547795806  1.0000
  C   C207      1.0  0.4970377513367128  0.6209281999441066  0.7957400351372885  1.0000
  C   C208      1.0  0.4950601868185053  0.6344168991874031  0.7696524472986789  1.0000
  C   C209      1.0  0.49987582725774987  0.6688241250028946  0.7675797387672109  1.0000
  C   C210      1.0  0.5053948045787519  0.6893118358219805  0.7915770540673277  1.0000
  H   H137      1.0  0.5051078763540073  0.6313901827215115  0.8398626324971208  1.0000
  H   H138      1.0  0.4938069907437683  0.5945510275080895  0.7974456470522416  1.0000
  H   H139      1.0  0.4989107699954657  0.6795094932616178  0.747401944859423  1.0000
  H   H140      1.0  0.5090823938991162  0.7158351351804852  0.7897515001563798  1.0000
  C   C211      1.0  0.5170606282834713  0.8868623409423187  0.8583074647099417  1.0000
  C   C212      1.0  0.48533961775799006  0.8747666775451762  0.8730276344403747  1.0000
  C   C213      1.0  0.483018986575664  0.895872451176588  0.8942538655358722  1.0000
  C   C214      1.0  0.5125275496379068  0.9288465552487933  0.9010096449777741  1.0000
  C   C215      1.0  0.5441377849262914  0.9409571590504221  0.8861526394742979  1.0000
  C   C216      1.0  0.5464259800343969  0.9199150335331636  0.864926572056968  1.0000
  H   H141      1.0  0.46242061000661266  0.8494645224959003  0.8677163534398337  1.0000
  H   H142      1.0  0.45827494461114476  0.886747274295808  0.905302337941067  1.0000
  H   H143      1.0  0.5670805805729227  0.9662232421830934  0.8913688199728407  1.0000
  H   H144      1.0  0.5712165852688674  0.9290483796015229  0.8539611932554426  1.0000
  C   C217      1.0  0.5842423783341197  0.08509416184211177  0.771378583754964  1.0000
  C   C218      1.0  0.61614973306323  0.08463801938417376  0.7702701277865605  1.0000
  C   C219      1.0  0.6333343030244514  0.08442712670544567  0.794943982773924  1.0000
  C   C220      1.0  0.6190691923698339  0.08538517389965626  0.8208968935106269  1.0000
  C   C221      1.0  0.58797332974625  0.0874624511429404  0.8220275206683921  1.0000
  C   C222      1.0  0.5704890687820705  0.08714405886369858  0.7972916266133079  1.0000
  H   H145      1.0  0.627733260616303  0.08452966735352012  0.7504356971004227  1.0000
  H   H146      1.0  0.6574153846028842  0.08289079146904149  0.7938363036914623  1.0000
  H   H147      1.0  0.5773017879638614  0.08929382209375553  0.8419019189030729  1.0000
  H   H148      1.0  0.5459852961641452  0.08791305922727245  0.7983244707591497  1.0000
  C   C223      1.0  0.5603139765473649  0.06276536697498702  0.5707661498288205  1.0000
  C   C224      1.0  0.5966689715203095  0.07449801507831334  0.570850193129806  1.0000
  C   C225      1.0  0.6380719506102964  0.08301681950862258  0.04806382593301173  1.0000
  C   C226      1.0  0.6273563170166961  0.08927711140696572  0.022112671314331145  1.0000
  C   C227      1.0  0.5979356385113566  0.09421779150299853  0.02055965561455264  1.0000
  C   C228      1.0  0.5420935769037435  0.05539886157393817  0.545408504774425  1.0000
  H   H149      1.0  0.6109672239042574  0.08058520400053037  0.5903540064340808  1.0000
  H   H150      1.0  0.6609772275557784  0.07943311149547361  0.04944426886621445  1.0000
  H   H151      1.0  0.5904706742241157  0.10069659144890115  0.0008387452551648078  1.0000
  H   H152      1.0  0.5139450827762477  0.04629645981598138  0.5452797949169526  1.0000
  C   C229      1.0  0.4706534613422581  0.8628111860890484  0.6271682535099363  1.0000
  C   C230      1.0  0.49556943381391094  0.8544328121759185  0.637925852256916  1.0000
  C   C231      1.0  0.5235115918611833  0.8791863463397317  0.654699679652997  1.0000
  C   C232      1.0  0.5269783990954217  0.9126113065359895  0.6603766134678994  1.0000
  C   C233      1.0  0.5019871533885851  0.9208984219588923  0.6496845054596555  1.0000
  C   C234      1.0  0.47372582078208886  0.8959150121981669  0.633361068296655  1.0000
  H   H153      1.0  0.49351809220552323  0.829028593946884  0.6331850948719133  1.0000
  H   H154      1.0  0.5428411577116168  0.872665269719169  0.6628788020872373  1.0000
  H   H155      1.0  0.5042005209350813  0.9464292195394806  0.654131013406134  1.0000
  H   H156      1.0  0.4542781300209566  0.9023646068934366  0.6253305789520823  1.0000
  C   C235      1.0  0.4392567188088954  0.7002953641178215  0.6909645189057898  1.0000
  C   C236      1.0  0.40371890784261055  0.6917347673190899  0.6917513876634905  1.0000
  C   C237      1.0  0.38860544457744806  0.6941089903589375  0.7169264685832998  1.0000
  C   C238      1.0  0.4090708812629429  0.7053291727058417  0.7412759757453049  1.0000
  C   C239      1.0  0.4439539503481846  0.7118176473947024  0.7407725856661084  1.0000
  C   C240      1.0  0.45901431140966403  0.7092414965464189  0.715638576041853  1.0000
  H   H157      1.0  0.3879684340769413  0.6837686541722587  0.672913988225199  1.0000
  H   H158      1.0  0.36135009755991154  0.6884090781716242  0.7172828527317711  1.0000
  H   H159      1.0  0.45964012021835354  0.7194811331518889  0.759546858840392  1.0000
  H   H160      1.0  0.486499156201334  0.7157637209814813  0.7150852519662326  1.0000
  C   C241      1.0  0.45010993699065455  0.7259395003525437  0.4906208941841215  1.0000
  C   C242      1.0  0.46918850858108674  0.7354705200998922  0.4655697145870458  1.0000
  C   C243      1.0  0.44768373701582526  0.7227169807277504  0.9386299325979217  1.0000
  C   C244      1.0  0.41482906747337805  0.7213076836796956  0.9399598827195541  1.0000
  C   C245      1.0  0.39900520853286464  0.7187020988838725  0.9658893824009773  1.0000
  C   C246      1.0  0.4135721892897589  0.7133342411255859  0.490237655404828  1.0000
  H   H161      1.0  0.49750917930865834  0.7454808826555568  0.46585957070648293  1.0000
  H   H162      1.0  0.4596242406323578  0.7237907909171835  0.9186609173794213  1.0000
  H   H163      1.0  0.3736115070850553  0.71756688574445  0.9669792657576985  1.0000
  H   H164      1.0  0.3986936073110257  0.7058369697727387  0.5095159837360751  1.0000
  C   C247      1.0  0.8228693142034389  0.310768173859576  0.855540103317599  1.0000
  C   C248      1.0  0.8260264087611972  0.28009274494886527  0.8548072466102274  1.0000
  C   C249      1.0  0.8280289773604235  0.26405377012659015  0.8796910259890904  1.0000
  C   C250      1.0  0.8276072116757863  0.2790695585702361  0.9054172664372248  1.0000
  C   C251      1.0  0.8240930331434704  0.3095298774114183  0.9062171933918614  1.0000
  C   C252      1.0  0.8215658612408474  0.32524538191774194  0.8813116404621437  1.0000
  H   H165      1.0  0.8265464169471386  0.26840619892419976  0.8351373780304014  1.0000
  H   H166      1.0  0.8305750351747448  0.24037949408767653  0.87898820773503  1.0000
  H   H167      1.0  0.8230989308200086  0.32093179899013174  0.9260069933818665  1.0000
  H   H168      1.0  0.8190483368181565  0.3489415494915924  0.882035551785941  1.0000
  C   C253      1.0  0.818998740876316  0.3178905235735274  0.653960790759763  1.0000
  C   C254      1.0  0.8209992233215657  0.3348585561446194  0.6285620820979322  1.0000
  C   C255      1.0  0.822160942105662  0.31907290500878216  0.6033635781402765  1.0000
  C   C256      1.0  0.8216323554993178  0.28646214209449267  0.6035166092918646  1.0000
  C   C257      1.0  0.8183272343238778  0.2688776188771559  0.6288519820622446  1.0000
  C   C258      1.0  0.816798080492055  0.28448734623326466  0.6540305611810676  1.0000
  H   H169      1.0  0.8225776224669298  0.3606515435678863  0.628360223069905  1.0000
  H   H170      1.0  0.8237263913214801  0.33232867412439027  0.5838966053847557  1.0000
  H   H171      1.0  0.817688692319772  0.2435061585502095  0.629152529088957  1.0000
  H   H172      1.0  0.8141253054069945  0.27074644436164597  0.6734882850628459  1.0000
  C   C259      1.0  0.766170456274982  0.1714097980194439  0.7279159553758093  1.0000
  C   C260      1.0  0.7354223533208465  0.1382751033420301  0.7314494510899379  1.0000
  C   C261      1.0  0.7130625568472944  0.12124945507804423  0.7086896499529757  1.0000
  C   C262      1.0  0.7219026539437542  0.1368142467597173  0.6821775664963425  1.0000
  C   C263      1.0  0.7528970114669113  0.16982363694473698  0.6786076329843054  1.0000
  C   C264      1.0  0.7746827539265919  0.18739185915893258  0.7015484907366575  1.0000
  H   H173      1.0  0.7288864762283996  0.12571376228514264  0.7517800029551208  1.0000
  H   H174      1.0  0.6896023086667554  0.09558880604412287  0.7115368692929138  1.0000
  H   H175      1.0  0.7602020040372005  0.1818564967326327  0.6581531648700817  1.0000
  H   H176      1.0  0.7985526440961095  0.21281397270950372  0.6987095926417649  1.0000
  C   C265      1.0  0.17413666878778186  0.4322868833315201  0.7672827678594148  1.0000
  C   C266      1.0  0.19318731533780917  0.46955997429578666  0.7659449108133647  1.0000
  C   C267      1.0  0.20528670325108747  0.4896331669279295  0.7905960474977547  1.0000
  C   C268      1.0  0.19748487570999881  0.4725208006798421  0.8166262506308121  1.0000
  C   C269      1.0  0.17892053792121965  0.43525659359612273  0.8178129012667084  1.0000
  C   C270      1.0  0.16781961368123557  0.4152117068925711  0.7931978021685014  1.0000
  H   H177      1.0  0.19843692127385296  0.4829383470074572  0.7459482158913233  1.0000
  H   H178      1.0  0.21983568131398123  0.5184786068440466  0.7894970975371673  1.0000
  H   H179      1.0  0.17329124449972053  0.42173541338228554  0.8375955638484321  1.0000
  H   H180      1.0  0.15338860893743353  0.3863599315504729  0.7942623140554874  1.0000
  C   C271      1.0  0.19358696551830432  0.4560760742089954  0.5685180298712891  1.0000
  C   C272      1.0  0.19421764178553327  0.44133873605881047  0.5427333462224069  1.0000
  C   C273      1.0  0.19518074238788852  0.45906164426105717  0.5179649106674266  1.0000
  C   C274      1.0  0.19511757525849313  0.4913362281464084  0.5188129460987242  1.0000
  C   C275      1.0  0.19613893118290399  0.5069267122589838  0.5446356171610577  1.0000
  C   C276      1.0  0.1957524562481147  0.48946260997912666  0.5694644020614852  1.0000
  H   H181      1.0  0.19308209724257147  0.4157476070376039  0.5418069964167846  1.0000
  H   H182      1.0  0.19552448924232146  0.44746457871196793  0.4982257976108436  1.0000
  H   H183      1.0  0.19646618735678922  0.5321173628238315  0.5455230208624053  1.0000
  H   H184      1.0  0.19699026695129393  0.5018211906810282  0.5892631549603156  1.0000
  C   C277      1.0  0.024760629019121804  0.4085332000847663  0.6826502730219779  1.0000
  C   C278      1.0  0.03785678325462773  0.3926124686435067  0.7009740542934578  1.0000
  C   C279      1.0  0.01653449090167447  0.3708170490439114  0.7227388128379106  1.0000
  C   C280      1.0  0.982207429907065  0.36521546613690137  0.726598848986328  1.0000
  C   C281      1.0  0.9688480984514493  0.38081020596440973  0.7081366648992388  1.0000
  C   C282      1.0  0.990170050276925  0.4025102550001063  0.686186453003176  1.0000
  H   H185      1.0  0.06439309004365466  0.3968752687712957  0.6983430088371505  1.0000
  H   H186      1.0  0.026648713473731656  0.35812780974696706  0.7365343225080114  1.0000
  H   H187      1.0  0.9424438582301545  0.37684097646842035  0.7111725919275111  1.0000
  H   H188      1.0  0.9801839655684618  0.4152863960524246  0.6723425058034314  1.0000
  C   C283      1.0  0.2494079978440963  0.5924546487079203  0.6541503671414425  1.0000
  C   C284      1.0  0.28157665149805244  0.6239825286940653  0.6586888152174577  1.0000
  C   C285      1.0  0.3025411567963604  0.6440128522933352  0.636021358107987  1.0000
  C   C286      1.0  0.2909692205680144  0.6330471203943323  0.6087142845104375  1.0000
  C   C287      1.0  0.2588228187953012  0.6014980368643811  0.6041609919963628  1.0000
  C   C288      1.0  0.2383136238295745  0.5810384225288087  0.626824952342572  1.0000
  H   H189      1.0  0.2902294192968438  0.6329670399742914  0.6797812034736838  1.0000
  H   H190      1.0  0.32717309744330964  0.6683216172066715  0.639746960238019  1.0000
  H   H191      1.0  0.24953216855625526  0.5929717482233985  0.5831337203225998  1.0000
  H   H192      1.0  0.21344135797497185  0.5570330548012994  0.6231384070220007  1.0000
  N   N1        1.0  0.704307686933722  0.18877396331512153  0.1104250747978468  1.0000
  C   C289      1.0  0.7290522653353573  0.1768443334807588  0.10079660666843071  1.0000
  C   C290      1.0  0.7093576119373809  0.19651528669535745  0.14063752504067062  1.0000
  C   C291      1.0  0.6674954994115451  0.16020692347184218  0.10517285487423389  1.0000
  C   C292      1.0  0.7112788792858915  0.22135891294786902  0.0950771759163822  1.0000
  H   H193      1.0  0.7258237315421159  0.170512759542077  0.07815862501463111  1.0000
  H   H194      1.0  0.7247522702286848  0.15251328162366184  0.11220164610500527  1.0000
  H   H195      1.0  0.7571032334732836  0.1976610458234349  0.10425955164159517  1.0000
  H   H196      1.0  0.7372337182605393  0.2169742356959916  0.1455325483643155  1.0000
  H   H197      1.0  0.691737677201093  0.2063879454072206  0.14852578215046108  1.0000
  H   H198      1.0  0.7032482883409747  0.1722309548689791  0.15289987610856426  1.0000
  H   H199      1.0  0.6477782040944665  0.16729013730574804  0.1132658635955357  1.0000
  H   H200      1.0  0.6620411925446543  0.13484191378575883  0.1154942762129656  1.0000
  H   H201      1.0  0.6623325548834692  0.1546145908202745  0.08248880353367438  1.0000
  H   H202      1.0  0.69244494913613  0.23054970097070426  0.10128469347442759  1.0000
  H   H203      1.0  0.7088506685930627  0.2168481459150755  0.07214382349798965  1.0000
  H   H204      1.0  0.7385655581009093  0.24366446187761093  0.09913761418830691  1.0000
  N   N2        1.0  0.4596072134051525  0.6114376051360411  0.15830116765321067  1.0000
  C   C293      1.0  0.4465560047263802  0.5771224007912518  0.17316564735335857  1.0000
  C   C294      1.0  0.48446593252623543  0.6409542760980712  0.17646399426844445  1.0000
  C   C295      1.0  0.42936062127212865  0.6166074930247712  0.15110756677043674  1.0000
  C   C296      1.0  0.4781102022904811  0.6111651772615778  0.13251214232552722  1.0000
  H   H205      1.0  0.4275270723934342  0.5541375067336102  0.16026581926927064  1.0000
  H   H206      1.0  0.433079311481537  0.5766506405095227  0.19305450605765265  1.0000
  H   H207      1.0  0.468798424573368  0.5724382310056935  0.17882002138855302  1.0000
  H   H208      1.0  0.49473568132352175  0.6673503646804352  0.16605051830471443  1.0000
  H   H209      1.0  0.47131929717289756  0.6417476878560207  0.1961485437652015  1.0000
  H   H210      1.0  0.5075824449486264  0.63791596384765  0.1825510749523203  1.0000
  H   H211      1.0  0.43829031428009013  0.6418740133310322  0.13924565919397833  1.0000
  H   H212      1.0  0.4156675854439178  0.6183346263350186  0.17017460386973618  1.0000
  H   H213      1.0  0.4095308088103662  0.5944028209172583  0.13802236990192135  1.0000
  H   H214      1.0  0.48828612436443875  0.6366965366587793  0.12078065982057871  1.0000
  H   H215      1.0  0.4601706643657728  0.5891195420266079  0.11832539328221948  1.0000
  H   H216      1.0  0.5011797094150521  0.6074721541476376  0.13726899746908228  1.0000
  N   N3        1.0  0.29556763169954725  0.6302377773942708  0.9922323790125102  1.0000
  C   C297      1.0  0.3047782012620659  0.6666767010109397  0.0008892780553397817  1.0000
  C   C298      1.0  0.26453484810609246  0.6155822904041455  0.9734037440609231  1.0000
  C   C299      1.0  0.2868957777848015  0.6071909965536026  0.0171742711970575  1.0000
  C   C300      1.0  0.3260411275055884  0.631466877299494  0.9774877695801364  1.0000
  H   H217      1.0  0.32894421153798764  0.6789885287011537  0.01426116516192244  1.0000
  H   H218      1.0  0.2830807288355568  0.6665645629298522  0.013344762996206239  1.0000
  H   H219      1.0  0.31005509198252756  0.6845091563115137  0.982591745649615  1.0000
  H   H220      1.0  0.2406094702251042  0.6129174567109514  0.9841602480624176  1.0000
  H   H221      1.0  0.2696411091385338  0.6327651375020271  0.9546931994489137  1.0000
  H   H222      1.0  0.25755386663539476  0.5884934214057981  0.9658588347204133  1.0000
  H   H223      1.0  0.27912121360496406  0.5792632490025987  0.011455789923678905  1.0000
  H   H224      1.0  0.26430935354757434  0.6061581861210787  0.02892033503014857  1.0000
  H   H225      1.0  0.30975563999781475  0.6173927228543244  0.03186692150106274  1.0000
  H   H226      1.0  0.32010665174371217  0.6043473299695822  0.9709120872278322  1.0000
  H   H227      1.0  0.3500448405212436  0.6427437873637718  0.9910254159126896  1.0000
  H   H228      1.0  0.3330544972414288  0.648391947900187  0.9583829667608557  1.0000
  N   N4        1.0  0.533415003509924  0.9674918927341641  0.05677380762480699  1.0000
  C   C301      1.0  0.5542547686842288  0.9905229492276773  0.033186653809385236  1.0000
  C   C302      1.0  0.5317758576229737  0.9899324681917943  0.0792831010414945  1.0000
  C   C303      1.0  0.5505846161239805  0.9476329038699011  0.06745207239655193  1.0000
  C   C304      1.0  0.49707429599602265  0.9419779534245382  0.04728472572623588  1.0000
  H   H229      1.0  0.5819495881321232  0.009779481332742979  0.03957084455561355  1.0000
  H   H230      1.0  0.5424748125495937  0.006519445780985178  0.025027121879692027  1.0000
  H   H231      1.0  0.5556679235587273  0.9746207053030975  0.015502600542967038  1.0000
  H   H232      1.0  0.5155719825818953  0.9736481051569125  0.09716973609676316  1.0000
  H   H233      1.0  0.5586391080661938  0.00871423255147441  0.08752901528809165  1.0000
  H   H234      1.0  0.5199591180560642  0.0062056679554416405  0.0718875380446169  1.0000
  H   H235      1.0  0.5779280036150565  0.9660628027804307  0.07510990949537444  1.0000
  H   H236      1.0  0.552392186015727  0.9304316755175921  0.05105044742141529  1.0000
  H   H237      1.0  0.5354229271502164  0.9299220451940636  0.08522158203767449  1.0000
  H   H238      1.0  0.48083428341163814  0.9236952054434584  0.06446071789886298  1.0000
  H   H239      1.0  0.49731127077102993  0.9249456406586152  0.030021706083309674  1.0000
  H   H240      1.0  0.48306118908964535  0.9560446211629114  0.039655333182011976  1.0000
  N   N5        1.0  0.5396942595094066  0.33727268544155575  0.43175248982258274  1.0000
  C   C305      1.0  0.5499088043161942  0.33570114327761974  0.46092663513906185  1.0000
  C   C306      1.0  0.5226489691337861  0.3595361111765045  0.4301228091943965  1.0000
  C   C307      1.0  0.5144886115510319  0.30083233418800776  0.42200262659204224  1.0000
  C   C308      1.0  0.5716488539619897  0.3529417521342472  0.41385726556682717  1.0000
  H   H241      1.0  0.5637657622571262  0.3199839014954623  0.46269949618753164  1.0000
  H   H242      1.0  0.5262983477746169  0.3227225656495575  0.4748133915484981  1.0000
  H   H243      1.0  0.5680602764260458  0.3627883169110152  0.4694085277392267  1.0000
  H   H244      1.0  0.5156057491633076  0.36199616689132336  0.40818801073279065  1.0000
  H   H245      1.0  0.4977592798995067  0.34783329883193986  0.4425893738400151  1.0000
  H   H246      1.0  0.5404265591597245  0.3869163318990314  0.4382260680604801  1.0000
  H   H247      1.0  0.4902730173310932  0.2879538613699457  0.4352687807941652  1.0000
  H   H248      1.0  0.5266308494855156  0.28340018554220625  0.42257456777611213  1.0000
  H   H249      1.0  0.505789521507248  0.30110783734089436  0.400166559468692  1.0000
  H   H250      1.0  0.5849795368636137  0.33661128909195986  0.414299383959714  1.0000
  H   H251      1.0  0.591415236204201  0.38032481922588857  0.4207527011906701  1.0000
  H   H252      1.0  0.5649014544566898  0.3546389131561922  0.3916850778756877  1.0000
  N   N6        1.0  0.9546025401396643  0.39329739688184295  0.39148886607848593  1.0000
  C   C309      1.0  0.937856975596869  0.3566093654492893  0.4028039060254606  1.0000
  C   C310      1.0  0.9369847930217223  0.4120789520777908  0.4033261051026402  1.0000
  C   C311      1.0  0.9509908413203131  0.39175728350369565  0.36077838455970346  1.0000
  C   C312      1.0  0.9925806694762507  0.4127442026182205  0.39911283873472214  1.0000
  H   H253      1.0  0.9371357980224895  0.3564715914572902  0.42598131712987064  1.0000
  H   H254      1.0  0.9523211544988588  0.3425815136930819  0.3962364046841695  1.0000
  H   H255      1.0  0.9100476362887101  0.34029750533975733  0.3955321418275505  1.0000
  H   H256      1.0  0.9486411336301116  0.43969771734421664  0.3949627681559138  1.0000
  H   H257      1.0  0.9082135072019811  0.3979307887129361  0.39838088661148485  1.0000
  H   H258      1.0  0.9395405841482987  0.41396025047294227  0.42648109218797714  1.0000
  H   H259      1.0  0.963466889222848  0.41890532541582326  0.3513981370897198  1.0000
  H   H260      1.0  0.9225930061422463  0.37761222303862435  0.35432863190267366  1.0000
  H   H261      1.0  0.9635306573389297  0.3772268576239029  0.3512828601596785  1.0000
  H   H262      1.0  0.006342229973456126  0.4402644928458166  0.39040347848799606  1.0000
  H   H263      1.0  0.006686006934352395  0.39882865563144776  0.39136216265047613  1.0000
  H   H264      1.0  0.9961039285062268  0.41510689562583697  0.4221583829166345  1.0000
  N   N7        1.0  0.29212069333373414  0.5958622173821839  0.24438657618854617  1.0000
  C   C313      1.0  0.3275971608684646  0.5990254157202402  0.24368626915025907  1.0000
  C   C314      1.0  0.2805403755237066  0.5937938258926865  0.27365418209840353  1.0000
  C   C315      1.0  0.2665551616533065  0.5633057422711675  0.229326302832568  1.0000
  C   C316      1.0  0.29377050110584974  0.6274108415903427  0.23080670551958932  1.0000
  H   H265      1.0  0.33766496344695135  0.6020088678116119  0.22193502495236314  1.0000
  H   H266      1.0  0.32716693344873815  0.5752372621805083  0.2530663505372536  1.0000
  H   H267      1.0  0.3473292150535205  0.6227900178719684  0.2555243702276816  1.0000
  H   H268      1.0  0.2540710087500015  0.591931032742719  0.27486918882757033  1.0000
  H   H269      1.0  0.27842829508024286  0.5700038036968895  0.2844987217631336  1.0000
  H   H270      1.0  0.29955877130087066  0.6179303220464473  0.28561426194099215  1.0000
  H   H271      1.0  0.23956218234649926  0.5602744390405089  0.22936374457012235  1.0000
  H   H272      1.0  0.26447132561543596  0.5388062184177762  0.23883697196229378  1.0000
  H   H273      1.0  0.27429669062660705  0.5643151260249953  0.20705176143765708  1.0000
  H   H274      1.0  0.30320416744583367  0.6302962796589161  0.20886518181087738  1.0000
  H   H275      1.0  0.31203484755444977  0.6524185607061818  0.24205630286191832  1.0000
  H   H276      1.0  0.26720456331735304  0.6254035554188845  0.23011256675743919  1.0000
  N   N8        1.0  0.5059910176992967  0.37375599207606836  0.8979809135082398  1.0000
  C   C317      1.0  0.4720849911746306  0.35680017383706103  0.8824959651069181  1.0000
  C   C318      1.0  0.5339358678130784  0.373307179625235  0.8806907796304513  1.0000
  C   C319      1.0  0.5017919970338849  0.35387876993369155  0.9241563018094583  1.0000
  C   C320      1.0  0.5160541729465546  0.4110259669542451  0.9045978471400463  1.0000
  H   H277      1.0  0.4741765054876937  0.3713075331030766  0.8627254300953155  1.0000
  H   H278      1.0  0.45031082380829845  0.356388697009931  0.8950412003723747  1.0000
  H   H279      1.0  0.4638429555746315  0.3287561840362543  0.8767640354185768  1.0000
  H   H280      1.0  0.5599120056655434  0.3857367025351938  0.8917404865528962  1.0000
  H   H281      1.0  0.5271392662040968  0.34557246733083513  0.8753517570770165  1.0000
  H   H282      1.0  0.5376820616294593  0.3878995428255406  0.8606928152750488  1.0000
  H   H283      1.0  0.48073189585373016  0.3536098100879597  0.9375968657218027  1.0000
  H   H284      1.0  0.5267915290984019  0.3661429605028529  0.9365319404393408  1.0000
  H   H285      1.0  0.49442386885630635  0.3256849531472216  0.9199576741395724  1.0000
  H   H286      1.0  0.5410623281927646  0.4244401524175527  0.9168999329743328  1.0000
  H   H287      1.0  0.49517747061092005  0.4122778896823866  0.91723687365387  1.0000
  H   H288      1.0  0.5199144134310552  0.4269644237459665  0.8853117950292297  1.0000
  N   N9        1.0  0.7377050056934097  0.17309688900902612  0.3389167331980506  1.0000
  C   C321      1.0  0.7382325292257103  0.14096965470439948  0.3290178811562814  1.0000
  C   C322      1.0  0.7744138043636221  0.20324749956756144  0.3408457560988604  1.0000
  C   C323      1.0  0.720911171050769  0.16607286202147253  0.36676267068072194  1.0000
  C   C324      1.0  0.717266873443003  0.18209323013921808  0.3190559532790123  1.0000
  H   H289      1.0  0.7505242098833947  0.1453665576568541  0.30791216271792854  1.0000
  H   H290      1.0  0.7109005259040997  0.11761328942283014  0.3276700220804054  1.0000
  H   H291      1.0  0.753692397386685  0.13351098582499538  0.34330672587523  1.0000
  H   H292      1.0  0.7881698965329916  0.20913564809076032  0.3203393561222715  1.0000
  H   H293      1.0  0.7749683159798787  0.2280762205084588  0.34780194047682084  1.0000
  H   H294      1.0  0.7904848021625434  0.19743866149382025  0.3558210389190942  1.0000
  H   H295      1.0  0.7204846331838834  0.1899049615280211  0.37500773167440477  1.0000
  H   H296      1.0  0.7352515763610716  0.15848177583762754  0.3821295469748176  1.0000
  H   H297      1.0  0.6929923940124358  0.14382324236630686  0.3660799018257729  1.0000
  H   H298      1.0  0.7165264030461401  0.20638327378489887  0.32564310358768817  1.0000
  H   H299      1.0  0.6893666848786484  0.15990777334695244  0.31728526555709863  1.0000
  H   H300      1.0  0.7291640024694591  0.1872923821395606  0.2977789833229233  1.0000
  N   N10       1.0  0.4844283019224009  0.8155636501570349  0.22924854792005087  1.0000
  C   C325      1.0  0.5080485155935829  0.8016738647544578  0.23764913796465384  1.0000
  C   C326      1.0  0.45301898039606125  0.8004741605904465  0.24773311287111327  1.0000
  C   C327      1.0  0.47292386953129284  0.8052414033799431  0.2000608435662676  1.0000
  C   C328      1.0  0.5037930817287393  0.8548635044996419  0.23169284775010587  1.0000
  H   H301      1.0  0.531751473012511  0.8120042182330025  0.22387754459952156  1.0000
  H   H302      1.0  0.4941343151691937  0.7720226472844381  0.2365348813505634  1.0000
  H   H303      1.0  0.5177013263193111  0.80952863566213  0.2594510360218938  1.0000
  H   H304      1.0  0.434398725346957  0.81006932974088  0.2418655392599651  1.0000
  H   H305      1.0  0.437978671261202  0.7708233630751703  0.24673111693382685  1.0000
  H   H306      1.0  0.4607202886581942  0.807854675388648  0.2699401465908194  1.0000
  H   H307      1.0  0.45593889706564916  0.8161745740478472  0.19261484040948498  1.0000
  H   H308      1.0  0.45734336842623685  0.7757602160267068  0.19775242566641527  1.0000
  H   H309      1.0  0.49596073330210116  0.8149586706682745  0.18564453854082388  1.0000
  H   H310      1.0  0.5119978401422781  0.8632634471985461  0.2536795407701567  1.0000
  H   H311      1.0  0.48719615923508197  0.8664518677233806  0.22471669858414348  1.0000
  H   H312      1.0  0.5282667261295124  0.8671691339570232  0.2187003287959343  1.0000
  N   N11       1.0  0.46155920621931695  0.6443922623863129  0.41745730956436033  1.0000
  C   C329      1.0  0.4552466338055288  0.6234388777642748  0.39161191010451785  1.0000
  C   C330      1.0  0.4906145783727659  0.6813048240502088  0.4128113271744407  1.0000
  C   C331      1.0  0.47150739657055163  0.6279280019563537  0.4402239878391198  1.0000
  C   C332      1.0  0.4288870481774248  0.6449087115886011  0.42521917044269464  1.0000
  H   H313      1.0  0.4343303388413723  0.5950919525224879  0.3946037060711634  1.0000
  H   H314      1.0  0.47970225271487615  0.6234131022830297  0.38468063318163426  1.0000
  H   H315      1.0  0.4470264700392685  0.6347180414203886  0.37409526429123646  1.0000
  H   H316      1.0  0.49720907669278613  0.6974961325096066  0.4321657274754798  1.0000
  H   H317      1.0  0.5152052048333271  0.681831305973727  0.40547314038553756  1.0000
  H   H318      1.0  0.48337925236134377  0.6950397500191489  0.3965863608000959  1.0000
  H   H319      1.0  0.4781654066328736  0.6439411924811053  0.4597179821924822  1.0000
  H   H320      1.0  0.49489090111365014  0.6252321329797565  0.43439469866861485  1.0000
  H   H321      1.0  0.4494988435898255  0.6006786966889025  0.44522858345664723  1.0000
  H   H322      1.0  0.43238758969792446  0.6594533271610296  0.4451549248451693  1.0000
  H   H323      1.0  0.4061470936342372  0.6174080687255481  0.4279173234545313  1.0000
  H   H324      1.0  0.421343613788283  0.6583965099830988  0.4089275859568441  1.0000
  N   N12       1.0  0.555511784314927  0.15230891290849757  0.49583279954865866  1.0000
  C   C333      1.0  0.586088632597782  0.18792083648540608  0.5018065158235844  1.0000
  C   C334      1.0  0.5671882917436392  0.1320292359067941  0.4781937491796165  1.0000
  C   C335      1.0  0.5278959312176625  0.15640929877361215  0.4809883775631728  1.0000
  C   C336      1.0  0.5408423929065801  0.13289275878841023  0.5222963203192774  1.0000
  H   H325      1.0  0.5784851782705795  0.20330359852231317  0.5161004196177541  1.0000
  H   H326      1.0  0.5965096641381378  0.20400034259534527  0.4823724296902948  1.0000
  H   H327      1.0  0.6080910901692712  0.18589373947208945  0.5118570636314639  1.0000
  H   H328      1.0  0.5447366826307987  0.10493736823584401  0.47345258381876215  1.0000
  H   H329      1.0  0.5776835348211371  0.1455730815494379  0.4577881006327384  1.0000
  H   H330      1.0  0.5882718012311109  0.1285569403126349  0.48846235083923006  1.0000
  H   H331      1.0  0.5042710884014647  0.13005376862452453  0.4762530604219593  1.0000
  H   H332      1.0  0.5378928400916407  0.17035959946594723  0.46065914395658025  1.0000
  H   H333      1.0  0.5188818152629442  0.17219814519880508  0.49340708676537026  1.0000
  H   H334      1.0  0.5179054498645271  0.10576148879457949  0.5184660731324757  1.0000
  H   H335      1.0  0.5313905298436482  0.14728267675024403  0.5359778713211271  1.0000
  H   H336      1.0  0.5610492160552888  0.1295521019824035  0.534154009164012  1.0000
  N   N13       1.0  0.4634810097698118  0.6094674788446586  0.6548038138294203  1.0000
  C   C337      1.0  0.48861792250150565  0.6407800913260888  0.6713538939139566  1.0000
  C   C338      1.0  0.4466196419168264  0.5776582537523512  0.6730415539596197  1.0000
  C   C339      1.0  0.4828190610951899  0.6034159326248538  0.6320511423663622  1.0000
  C   C340      1.0  0.43590642674789326  0.616035405957392  0.6427629856943987  1.0000
  H   H337      1.0  0.5019425648190012  0.6653411687081661  0.6582991406155496  1.0000
  H   H338      1.0  0.5095620999756847  0.6365997063132118  0.6810889735989067  1.0000
  H   H339      1.0  0.47489968868966065  0.6463523640009237  0.6886084818144036  1.0000
  H   H340      1.0  0.427473352165545  0.5533885642156047  0.6613795361492902  1.0000
  H   H341      1.0  0.4667701911209335  0.5720897586363466  0.6825257609058836  1.0000
  H   H342      1.0  0.43209473668590614  0.5814898197704254  0.6905723430843835  1.0000
  H   H343      1.0  0.4645533398573259  0.5804061812065263  0.6187973192211526  1.0000
  H   H344      1.0  0.5033978168635452  0.597689594896676  0.6404168015514677  1.0000
  H   H345      1.0  0.49642140238739135  0.6271899562685553  0.6181870984192884  1.0000
  H   H346      1.0  0.4160289337823582  0.5926794856411262  0.6306591380668118  1.0000
  H   H347      1.0  0.44773624298730197  0.6394977619271168  0.6284536683585779  1.0000
  H   H348      1.0  0.4215492390039384  0.6218841758730734  0.6593212513665077  1.0000
  N   N14       1.0  0.46284301560581315  0.43276264379317675  0.3869736165177762  1.0000
  C   C341      1.0  0.48060407052414467  0.4645848682680091  0.4050548973241384  1.0000
  C   C342      1.0  0.4815304788130531  0.41208530010291883  0.3890643728059414  1.0000
  C   C343      1.0  0.46349384339230826  0.44407145840752005  0.35773504578408766  1.0000
  C   C344      1.0  0.42568152946627075  0.41025252044410865  0.39616794754609536  1.0000
  H   H349      1.0  0.4807071250816028  0.4569634148521917  0.4272558426122944  1.0000
  H   H350      1.0  0.46697049509156474  0.4806418312156313  0.4042512866020801  1.0000
  H   H351      1.0  0.5086185090313221  0.48241053327490885  0.3985984516835954  1.0000
  H   H352      1.0  0.4819955617571492  0.40377354976417645  0.41101134285990915  1.0000
  H   H353      1.0  0.4683588848844449  0.38743754389455776  0.37618451569796496  1.0000
  H   H354      1.0  0.509457879241317  0.4279214146328781  0.38168067588053944  1.0000
  H   H355      1.0  0.49110357838023844  0.46014179524992854  0.3497088587232452  1.0000
  H   H356      1.0  0.4506833483692088  0.46074546241326303  0.35561751731367697  1.0000
  H   H357      1.0  0.44906419552191223  0.42076567264240744  0.34363716139071204  1.0000
  H   H358      1.0  0.4112673323459652  0.3861758638557593  0.3828196580438416  1.0000
  H   H359      1.0  0.41091577933293544  0.42512501438615924  0.3952291494436774  1.0000
  H   H360      1.0  0.4242254276657534  0.400997286037675  0.41808999837811645  1.0000
  N   N15       1.0  0.565974681570247  0.1954017014170255  0.24198823450698673  1.0000
  C   C345      1.0  0.5981448985675271  0.23039090167354148  0.2374086610691335  1.0000
  C   C346      1.0  0.5697380102062749  0.17940176648435768  0.26816522273262294  1.0000
  C   C347      1.0  0.5612536426410553  0.1714743392187188  0.2183926597810173  1.0000
  C   C348      1.0  0.5346980221072114  0.20028535664414382  0.24394280163111126  1.0000
  H   H361      1.0  0.5963929472834288  0.24291642473832353  0.21759744704058498  1.0000
  H   H362      1.0  0.6223373735576684  0.22777605594711225  0.23642070058785622  1.0000
  H   H363      1.0  0.6020669464249231  0.2493691396155706  0.2545832314587268  1.0000
  H   H364      1.0  0.5455332421590635  0.15334405187561817  0.2725736307888833  1.0000
  H   H365      1.0  0.5924212566603336  0.17427643610786459  0.2671586984776962  1.0000
  H   H366      1.0  0.5738737232458148  0.19694304886744152  0.28642483725430234  1.0000
  H   H367      1.0  0.5846499737416174  0.16766752856722777  0.21599029254649774  1.0000
  H   H368      1.0  0.557481981003806  0.18218306987032507  0.1983442166603109  1.0000
  H   H369      1.0  0.5377341684565147  0.14449537676626134  0.22163863903041967  1.0000
  H   H370      1.0  0.5102535629729562  0.1747920159185612  0.24923083525053  1.0000
  H   H371      1.0  0.5298288500554479  0.2104216059229791  0.2240444069255128  1.0000
  H   H372      1.0  0.5382117808579144  0.21969622184754534  0.2605754350682307  1.0000
  N   N16       1.0  0.7166664915099294  0.19016413817121794  0.5921805915291615  1.0000
  C   C349      1.0  0.7439850732915804  0.17924436717073966  0.5921443189004995  1.0000
  C   C350      1.0  0.6816535605223849  0.15878644707527975  0.586176572306438  1.0000
  C   C351      1.0  0.7253037001156721  0.21778277379355346  0.5705798267013881  1.0000
  C   C352      1.0  0.7157471307831544  0.204814329608955  0.619816293388942  1.0000
  H   H373      1.0  0.7707360970529902  0.20212689542816467  0.596709825654572  1.0000
  H   H374      1.0  0.7455934555520636  0.16827566666851798  0.571563056594604  1.0000
  H   H375      1.0  0.7382976227139194  0.15834380119671174  0.6081401570953398  1.0000
  H   H376      1.0  0.6601621760193972  0.1656971580159425  0.5865297531529827  1.0000
  H   H377      1.0  0.6813275567843406  0.14733461914010515  0.5653369502687992  1.0000
  H   H378      1.0  0.6746737256048762  0.1372450495251466  0.6019031391882725  1.0000
  H   H379      1.0  0.7048615987117679  0.2261198610852622  0.569553480639574  1.0000
  H   H380      1.0  0.7273841455542521  0.20808892824144823  0.5495500083131224  1.0000
  H   H381      1.0  0.7512067709906494  0.24211908750174116  0.5749050181292306  1.0000
  H   H382      1.0  0.7420243117130478  0.22795926443940334  0.6253308121846111  1.0000
  H   H383      1.0  0.7085728363050195  0.18445596828580188  0.636545422971946  1.0000
  H   H384      1.0  0.6958662708772654  0.213891602886022  0.6204251088022333  1.0000
  N   N17       1.0  0.48665188279121085  0.427011776454045  0.09109989411778736  1.0000
  C   C353      1.0  0.4712150267668601  0.3966627983126211  0.07144065115848447  1.0000
  C   C354      1.0  0.4926792742361927  0.4597677876825162  0.07655867646204334  1.0000
  C   C355      1.0  0.520808527436937  0.4321745089406688  0.10180050313927218  1.0000
  C   C356      1.0  0.46183936133073195  0.41947781306796444  0.1145751417025965  1.0000
  H   H385      1.0  0.4654879523809472  0.37130055528330946  0.0818386247457123  1.0000
  H   H386      1.0  0.48958390523299156  0.40092380968207036  0.053888855278538386  1.0000
  H   H387      1.0  0.4460319461007816  0.39276946386124323  0.062138061388275094  1.0000
  H   H388      1.0  0.5036164535199332  0.4831478944916518  0.09083055103476621  1.0000
  H   H389      1.0  0.5115714662571715  0.4666850555652296  0.058931271580125635  1.0000
  H   H390      1.0  0.46764188606529067  0.45664544679675945  0.06777318671375407  1.0000
  H   H391      1.0  0.51752591886005  0.40770736177843847  0.11227045697414327  1.0000
  H   H392      1.0  0.5329494176368228  0.4545780906364129  0.11696432751713799  1.0000
  H   H393      1.0  0.5403117700039878  0.438535222100211  0.08460408277453652  1.0000
  H   H394      1.0  0.4717813851282848  0.4423955945863847  0.12929382249503832  1.0000
  H   H395      1.0  0.4574839612647709  0.3956329452118706  0.1266690221832322  1.0000
  H   H396      1.0  0.43545412940521444  0.41421319907896204  0.10700018793818789  1.0000
  N   N18       1.0  0.07336353773866097  0.40717938950504406  0.27460053806684476  1.0000
  C   C357      1.0  0.055577523265949766  0.42667836126181224  0.26447219199916455  1.0000
  C   C358      1.0  0.09483416245194043  0.42522998207311324  0.2995443066821769  1.0000
  C   C359      1.0  0.09677405436685316  0.40671793960782004  0.2524815239394484  1.0000
  C   C360      1.0  0.0464234540155962  0.3701386091505549  0.2818004039663219  1.0000
  H   H397      1.0  0.03930776521294721  0.4138248658985597  0.24558875361400154  1.0000
  H   H398      1.0  0.07518918164315319  0.4546902836599998  0.2587103422105552  1.0000
  H   H399      1.0  0.03750563182170108  0.4274341213939339  0.28053587422172577  1.0000
  H   H400      1.0  0.11560486959307759  0.45318458838423653  0.2947615690740072  1.0000
  H   H401      1.0  0.0781864722465169  0.42616859390450484  0.3167812428957428  1.0000
  H   H402      1.0  0.10876007513789084  0.41127493258059294  0.3076499183921184  1.0000
  H   H403      1.0  0.08164226446383263  0.39249070982040274  0.23358318915585394  1.0000
  H   H404      1.0  0.11152864598669543  0.3931699151857642  0.25957763574378007  1.0000
  H   H405      1.0  0.11669836320054161  0.4342149463945804  0.24587301754735397  1.0000
  H   H406      1.0  0.058968835348648524  0.3546256252807465  0.2893882508098329  1.0000
  H   H407      1.0  0.029785943211646505  0.3557559962344496  0.26340545432313256  1.0000
  H   H408      1.0  0.028115071058524507  0.3693543914442745  0.2983514581488398  1.0000
  N   N19       1.0  0.298923488660017  0.591682964982945  0.5140575084289063  1.0000
  C   C361      1.0  0.2979129116928833  0.5735337346672594  0.5405093005408689  1.0000
  C   C362      1.0  0.2707250853836106  0.6013899379955928  0.5142469812805441  1.0000
  C   C363      1.0  0.2931409358155138  0.5674149248542758  0.49044084681967154  1.0000
  C   C364      1.0  0.3338539315834657  0.6243689773169419  0.5110378014192483  1.0000
  H   H409      1.0  0.27170015545765136  0.549086888898687  0.5436372885319236  1.0000
  H   H410      1.0  0.30252092627488125  0.5911901571771242  0.5587720088861308  1.0000
  H   H411      1.0  0.3185919674641622  0.5655180547650751  0.540997097745946  1.0000
  H   H412      1.0  0.2708354070808838  0.6153979454426024  0.49471658122510126  1.0000
  H   H413      1.0  0.2439755994958641  0.5773781884984008  0.5161192509016712  1.0000
  H   H414      1.0  0.2739596209620824  0.6193028770284592  0.5320479107885846  1.0000
  H   H415      1.0  0.29235163267464914  0.5796600369698047  0.4701896531565975  1.0000
  H   H416      1.0  0.2674445883818386  0.5420688486569331  0.4925324635603786  1.0000
  H   H417      1.0  0.31438656442799806  0.5602082756844787  0.48919820013186266  1.0000
  H   H418      1.0  0.3387999369970342  0.6434255070478615  0.5283746765232753  1.0000
  H   H419      1.0  0.3356095284786672  0.6385720069662704  0.4911923698268108  1.0000
  H   H420      1.0  0.3559009212171103  0.6182656397527402  0.51128592102948  1.0000
  N   N20       1.0  0.44093814870232617  0.8101381108795029  0.713427771240731  1.0000
  C   C365      1.0  0.40184664359012745  0.7884769693176066  0.7150505966417003  1.0000
  C   C366      1.0  0.4541131142412188  0.7950937414006526  0.6919451237024099  1.0000
  C   C367      1.0  0.4564977762005103  0.8096900034451675  0.7407792881604263  1.0000
  C   C368      1.0  0.4512643720087993  0.8472355210729743  0.705835502357908  1.0000
  H   H421      1.0  0.39084215173529974  0.799206425242387  0.7308332386894439  1.0000
  H   H422      1.0  0.3931666909251153  0.7604796914598517  0.7212262893219863  1.0000
  H   H423      1.0  0.3892483284949576  0.7875471625866739  0.6945864984358422  1.0000
  H   H424      1.0  0.48351164919385176  0.810724940112987  0.6900283764294372  1.0000
  H   H425      1.0  0.4469316731295274  0.7672413753145989  0.6970494686319392  1.0000
  H   H426      1.0  0.44265098696043403  0.7946641191593662  0.6710600355246568  1.0000
  H   H427      1.0  0.48598291343677785  0.8257396219556364  0.7403549900519044  1.0000
  H   H428      1.0  0.44932717418615814  0.782069048982949  0.7470159330844802  1.0000
  H   H429      1.0  0.4468271827227  0.8204255531440343  0.7576169396496178  1.0000
  H   H430      1.0  0.48062674729475824  0.8643938450108121  0.7046746412160552  1.0000
  H   H431      1.0  0.4413378874534687  0.8593346384170557  0.7213294304554735  1.0000
  H   H432      1.0  0.4403998161982827  0.8484849555195555  0.6850554208407147  1.0000
  N   N21       1.0  0.2957852946140045  0.45015388036391085  0.070388349484572  1.0000
  C   C369      1.0  0.2907607037556796  0.44233213635631025  0.10060481899587759  1.0000
  C   C370      1.0  0.32952459362294756  0.45284572060650974  0.061347583763539326  1.0000
  C   C371      1.0  0.2969103071801533  0.4843397471935651  0.06465041680318905  1.0000
  C   C372      1.0  0.2660189596397671  0.4211515892022778  0.05488414327475679  1.0000
  H   H433      1.0  0.312876151787587  0.46346192916112255  0.11297479678092733  1.0000
  H   H434      1.0  0.28948565796969494  0.4165089138722855  0.10552300432905697  1.0000
  H   H435      1.0  0.2655872781652648  0.44043923084314035  0.1081324594641245  1.0000
  H   H436      1.0  0.3526417433605538  0.4746352152331601  0.07239767903395779  1.0000
  H   H437      1.0  0.32973807436485025  0.42751332708496714  0.0652559710854228  1.0000
  H   H438      1.0  0.3337725324898339  0.45832086303434666  0.038578617203088285  1.0000
  H   H439      1.0  0.29970236141248613  0.4904801285654395  0.041915823533971545  1.0000
  H   H440      1.0  0.3194589897014799  0.5069061278678072  0.0755763839548353  1.0000
  H   H441      1.0  0.2722411232067578  0.48361298846308404  0.0717613646809491  1.0000
  H   H442      1.0  0.2679222624913412  0.4269509734841139  0.03211513004181019  1.0000
  H   H443      1.0  0.23999186664516775  0.41712788441575177  0.06227410928427682  1.0000
  H   H444      1.0  0.26570028136898916  0.39533191772423004  0.057298748807427066  1.0000
  N   N22       1.0  0.48620402895900555  0.42684506844470793  0.5878830891551856  1.0000
  C   C373      1.0  0.4717860923764597  0.3965262053576047  0.5682273406054291  1.0000
  C   C374      1.0  0.4566049423783615  0.4276780293494483  0.6023686988325321  1.0000
  C   C375      1.0  0.5073371376275122  0.46058963424452765  0.5723975409004487  1.0000
  C   C376      1.0  0.5091777008526462  0.4226151800356665  0.608503061545649  1.0000
  H   H445      1.0  0.4934041774814131  0.394142350992618  0.5579903546026532  1.0000
  H   H446      1.0  0.4558696159339206  0.3996876905163279  0.5513872729349996  1.0000
  H   H447      1.0  0.4545045793218908  0.37074461564047023  0.5789841796734687  1.0000
  H   H448      1.0  0.4391668272471061  0.4313707279846828  0.5873129337030581  1.0000
  H   H449      1.0  0.4398020936523638  0.4025553863350732  0.6140921585412006  1.0000
  H   H450      1.0  0.46646805350695336  0.45002606955390895  0.6175756486576722  1.0000
  H   H451      1.0  0.5166040132213781  0.48424668392513853  0.5862426697899709  1.0000
  H   H452      1.0  0.49167529606532057  0.46367214225340364  0.5553327413720678  1.0000
  H   H453      1.0  0.5312488879421544  0.46197194796019403  0.5627783773753432  1.0000
  H   H454      1.0  0.520729099059697  0.4452386786129686  0.6235221466553641  1.0000
  H   H455      1.0  0.531721808807636  0.4217514161034896  0.5980664188016874  1.0000
  H   H456      1.0  0.4941610557004824  0.39746066646477807  0.6206215822378207  1.0000
  N   N23       1.0  0.5106665137173761  0.34343712432980356  0.7213098256441596  1.0000
  C   C377      1.0  0.5332401651320067  0.347020907552413  0.7455346694998984  1.0000
  C   C378      1.0  0.5322390250961966  0.353081735079744  0.6955801686297689  1.0000
  C   C379      1.0  0.4957722784938205  0.3674244408381929  0.7247992535881312  1.0000
  C   C380      1.0  0.48137555468650295  0.30613627682990446  0.7194665218496055  1.0000
  H   H457      1.0  0.5543200765193986  0.3752167441742311  0.7488385151529282  1.0000
  H   H458      1.0  0.5466157880267896  0.3309728553174374  0.7428750252658013  1.0000
  H   H459      1.0  0.5172843664630689  0.3375193552050559  0.7649814281850722  1.0000
  H   H460      1.0  0.5441934743504522  0.3357530647332537  0.6925393077181288  1.0000
  H   H461      1.0  0.516006762648918  0.3500199390613531  0.6767404086384254  1.0000
  H   H462      1.0  0.5544347057731817  0.38114793567527544  0.6963218770093041  1.0000
  H   H463      1.0  0.47925181520312476  0.3661027983592705  0.7066284674988434  1.0000
  H   H464      1.0  0.5169938780929496  0.39576572252516123  0.7273673087168036  1.0000
  H   H465      1.0  0.47856958565156194  0.3601580966902309  0.74361168220309  1.0000
  H   H466      1.0  0.4916282811417453  0.28725813103152564  0.7172693678118706  1.0000
  H   H467      1.0  0.4639547746455955  0.3021859357731899  0.7012273604104906  1.0000
  H   H468      1.0  0.46450159490258436  0.2981920245393672  0.7385872910316519  1.0000
  N   N24       1.0  0.26631544058955614  0.4328782916094783  0.8553861368305615  1.0000
  C   C381      1.0  0.29401097737126053  0.46331500715208407  0.8712410778154641  1.0000
  C   C382      1.0  0.23202296888092597  0.41880749983417526  0.870058084281435  1.0000
  C   C383      1.0  0.2757315517601882  0.40446447891871384  0.8531371769621907  1.0000
  C   C384      1.0  0.26354305121953625  0.4450353915176487  0.8271224080656426  1.0000
  H   H469      1.0  0.31982943766551625  0.47580969687839714  0.8600247201138855  1.0000
  H   H470      1.0  0.2982301037180941  0.45484820492329087  0.8921963589958442  1.0000
  H   H471      1.0  0.2867273375898365  0.4844176065123099  0.8744200955119726  1.0000
  H   H472      1.0  0.2238855187724414  0.43942868419993897  0.8717038824819029  1.0000
  H   H473      1.0  0.21042988079845867  0.39545873004569804  0.8590338168624269  1.0000
  H   H474      1.0  0.23345466020346223  0.40992646271394806  0.8916186214424036  1.0000
  H   H475      1.0  0.25479707832513726  0.38073304505710964  0.842001034491602  1.0000
  H   H476      1.0  0.2792715886692517  0.3954600211753302  0.8740875401095622  1.0000
  H   H477      1.0  0.3008488181145415  0.41381509419946627  0.8412581032802062  1.0000
  H   H478      1.0  0.2579446347489881  0.46750840554084316  0.8280686533162801  1.0000
  H   H479      1.0  0.24189875299929636  0.42320051724233765  0.814863690483927  1.0000
  H   H480      1.0  0.2886836691933396  0.45455410914856353  0.8151784607471942  1.0000
  N   N25       1.0  0.6918003556017805  0.3508737296085893  0.9508498662389353  1.0000
  C   C385      1.0  0.7279047148502148  0.35583479532199863  0.9533688235749159  1.0000
  C   C386      1.0  0.6906253062330188  0.3721883578501794  0.9271224950669004  1.0000
  C   C387      1.0  0.6824473812384739  0.3626771728213452  0.9768217451332718  1.0000
  C   C388      1.0  0.6661161535393706  0.3127459445166293  0.9461260398289987  1.0000
  H   H481      1.0  0.7359036040678434  0.3471354566311501  0.9342018799818027  1.0000
  H   H482      1.0  0.7298885586312095  0.3403672172199683  0.9712218671560348  1.0000
  H   H483      1.0  0.7480805980885631  0.38431799151732976  0.956989812443597  1.0000
  H   H484      1.0  0.6638735462400189  0.36945411636267556  0.924871248257478  1.0000
  H   H485      1.0  0.7099756413568414  0.40107314397922056  0.9298395303418526  1.0000
  H   H486      1.0  0.6967658718108081  0.3635377961380223  0.9070353666413269  1.0000
  H   H487      1.0  0.6553533233574853  0.35924211714347204  0.9756356329598097  1.0000
  H   H488      1.0  0.7011346305214712  0.3913676737644741  0.9810807144931568  1.0000
  H   H489      1.0  0.6829799151239169  0.347120485447348  0.9951927799448209  1.0000
  H   H490      1.0  0.6662557341424629  0.29589058570361343  0.9636643043645656  1.0000
  H   H491      1.0  0.6720093299158056  0.3029141906089404  0.9265317124359398  1.0000
  H   H492      1.0  0.6386424173430224  0.3081369754406352  0.9443264196952009  1.0000
  N   N26       1.0  0.939673678266661  0.353933036099311  0.8542549282007291  1.0000
  C   C389      1.0  0.9220462997534068  0.3231328016116677  0.8734538447776143  1.0000
  C   C390      1.0  0.9559702668203947  0.3448068554247453  0.830928931744389  1.0000
  C   C391      1.0  0.9674192292246312  0.3850214766113244  0.8695051415754411  1.0000
  C   C392      1.0  0.9131959930434842  0.3627012126845639  0.8430955845653563  1.0000
  H   H493      1.0  0.9087474719672801  0.3287222703426344  0.8910503517879639  1.0000
  H   H494      1.0  0.94134359479867  0.3161297729593124  0.8826531577249053  1.0000
  H   H495      1.0  0.9013546657299992  0.29905598433219865  0.8624951981380435  1.0000
  H   H496      1.0  0.9358085189980134  0.3212005371241853  0.8191149057018444  1.0000
  H   H497      1.0  0.9688157574632094  0.36709713803635435  0.8156561375486161  1.0000
  H   H498      1.0  0.9763548693223781  0.33832300429608647  0.8384938283231815  1.0000
  H   H499      1.0  0.9562977929682754  0.3915957972819134  0.8880498972883817  1.0000
  H   H500      1.0  0.9803227477130144  0.4091844768139695  0.8560476422664327  1.0000
  H   H501      1.0  0.9886600416321145  0.3798718638589211  0.8771842063335235  1.0000
  H   H502      1.0  0.92546275317734  0.38611587701049105  0.8288136345450771  1.0000
  H   H503      1.0  0.899570961490764  0.3688265948566727  0.8600942602201603  1.0000
  H   H504      1.0  0.8923630903281846  0.3400790953272167  0.8309605284042505  1.0000
  N   N27       1.0  0.933788593340452  0.33841505799067945  0.6174705455872134  1.0000
  C   C393      1.0  0.9266080641050383  0.3505012804125726  0.5906002456430666  1.0000
  C   C394      1.0  0.9188584355853331  0.29930902361327055  0.6167534774676574  1.0000
  C   C395      1.0  0.9170589406605143  0.34765760578722044  0.640379420588946  1.0000
  C   C396      1.0  0.9724881842581544  0.35611061831933494  0.6221990465648413  1.0000
  H   H505      1.0  0.897596155016268  0.33728628333029603  0.5863972676429142  1.0000
  H   H506      1.0  0.9389111531557097  0.3441425574997513  0.5727466495423268  1.0000
  H   H507      1.0  0.937063716665981  0.37983622218016505  0.5903775212033914  1.0000
  H   H508      1.0  0.9232852173133369  0.2891122704182146  0.6368419836626039  1.0000
  H   H509      1.0  0.8897201759056597  0.28519455913608716  0.612902017847897  1.0000
  H   H510      1.0  0.9309703500598622  0.29131710252050247  0.5997994154369195  1.0000
  H   H511      1.0  0.921576676681301  0.3386115983760013  0.6609815827962814  1.0000
  H   H512      1.0  0.8879517836895939  0.3349404476713683  0.637405414919877  1.0000
  H   H513      1.0  0.927617540514697  0.37694689152415445  0.6416340166775304  1.0000
  H   H514      1.0  0.9787941347108152  0.3476755722385861  0.6423981183400671  1.0000
  H   H515      1.0  0.9845467981834793  0.3856654913508246  0.6230070016998455  1.0000
  H   H516      1.0  0.9860629157838459  0.34973529335862347  0.6053808900553838  1.0000
  N   N28       1.0  0.5480593547790179  0.9557028972988999  0.5689818078068536  1.0000
  C   C397      1.0  0.5590831166791737  0.9385994141111688  0.5904907129436586  1.0000
  C   C398      1.0  0.5798321329426361  0.986225303715819  0.5566354269317199  1.0000
  C   C399      1.0  0.5254348810831764  0.9684604067272509  0.5817818172179255  1.0000
  C   C400      1.0  0.5278106188273152  0.9294834522167286  0.5469608274492307  1.0000
  H   H517      1.0  0.5776179170828681  0.9302428981556059  0.5819022827630596  1.0000
  H   H518      1.0  0.5358926174837251  0.9143106091969363  0.5990881326573415  1.0000
  H   H519      1.0  0.5726339405319294  0.9568668047937364  0.6083338181786154  1.0000
  H   H520      1.0  0.5977004877383195  0.9777707746761441  0.5468603952356866  1.0000
  H   H521      1.0  0.5724778007204798  0.9995499909913522  0.5401397416400161  1.0000
  H   H522      1.0  0.5954911639480749  0.006665422706513269  0.5726784832597551  1.0000
  H   H523      1.0  0.5006993287379082  0.9460795788506324  0.5905859988109584  1.0000
  H   H524      1.0  0.517517788517309  0.9825056188333415  0.5663429689839372  1.0000
  H   H525      1.0  0.5393691562402927  0.9875616060111176  0.5990445101604156  1.0000
  H   H526      1.0  0.5440648729791887  0.9192447543760967  0.5368782601020078  1.0000
  H   H527      1.0  0.5191439871969523  0.9416022685497641  0.530379842853471  1.0000
  H   H528      1.0  0.5035845716312046  0.9061084539474464  0.5556856426997507  1.0000
  N   N29       1.0  0.28694635488329817  0.43575117455344586  0.6007931556228693  1.0000
  C   C401      1.0  0.3007055679377631  0.4123543973273664  0.5913618495493274  1.0000
  C   C402      1.0  0.31529957774355466  0.46708920942950344  0.6153977913007673  1.0000
  C   C403      1.0  0.25685381807927893  0.41578371415463217  0.6200841001321137  1.0000
  C   C404      1.0  0.2749278480354698  0.4477997232162113  0.5763203531586785  1.0000
  H   H529      1.0  0.32388156197451484  0.42683563851691797  0.5771798092919145  1.0000
  H   H530      1.0  0.2802430497794308  0.38902166884533895  0.5794986759773815  1.0000
  H   H531      1.0  0.30940271139491754  0.4021094435113517  0.6092579348957045  1.0000
  H   H532      1.0  0.32517660808235305  0.45894773388076127  0.6339221978437384  1.0000
  H   H533      1.0  0.33833399259182845  0.4829512382112896  0.6013899288531174  1.0000
  H   H534      1.0  0.30560475820066285  0.48509792906938587  0.6229481832313413  1.0000
  H   H535      1.0  0.24668979931122081  0.4330661972959155  0.6284185840749065  1.0000
  H   H536      1.0  0.2646218637368401  0.4051593539106211  0.6382970374298416  1.0000
  H   H537      1.0  0.2341896546019966  0.3929048733617591  0.60944091266799  1.0000
  H   H538      1.0  0.264861153422899  0.4659696844100677  0.5825522834354965  1.0000
  H   H539      1.0  0.25294729987486886  0.4248427303435181  0.5651805833045569  1.0000
  H   H540      1.0  0.29674765781039364  0.46207115054129166  0.5609371601408277  1.0000
  N   N30       1.0  0.7386208327272561  0.3679794137434349  0.1705426184001715  1.0000
  C   C405      1.0  0.7744714795687248  0.39666620662454205  0.17837070468304028  1.0000
  C   C406      1.0  0.7416927047237489  0.34460260672147364  0.14958150963935934  1.0000
  C   C407      1.0  0.718203811715735  0.38386772958145887  0.15862146928122112  1.0000
  C   C408      1.0  0.7201852353764469  0.34675693672562696  0.1955545845685418  1.0000
  H   H541      1.0  0.773264356941005  0.4149649345825717  0.19407764630943336  1.0000
  H   H542      1.0  0.7892741097251463  0.4129239981496561  0.15990178670138766  1.0000
  H   H543      1.0  0.7905443431824861  0.3855640313667267  0.18753798600513494  1.0000
  H   H544      1.0  0.7565697928371323  0.3318144363608371  0.15798285745540896  1.0000
  H   H545      1.0  0.7151395668994706  0.3231021645327689  0.14268251039071567  1.0000
  H   H546      1.0  0.7558685264677796  0.35987285097973837  0.13054442702290636  1.0000
  H   H547      1.0  0.6911015457334738  0.36290719541284944  0.15221393490913293  1.0000
  H   H548      1.0  0.7312954259526031  0.39986695421217944  0.13957213918819855  1.0000
  H   H549      1.0  0.7152413080170433  0.4016524047483984  0.17381000541139247  1.0000
  H   H550      1.0  0.6931380018334282  0.3246978211318487  0.19033024553024713  1.0000
  H   H551      1.0  0.71709894771183  0.363475983332396  0.21176217929170993  1.0000
  H   H552      1.0  0.7351580388864667  0.3346866602711086  0.20517477532848227  1.0000
  N   N31       1.0  0.5540930985156646  0.9684588775794479  0.7869601723871343  1.0000
  C   C409      1.0  0.5592958167036389  0.9894091130626504  0.7612117503742732  1.0000
  C   C410      1.0  0.5724271475447965  0.9475193091412742  0.7841241879990745  1.0000
  C   C411      1.0  0.5158091317655761  0.9439838194277562  0.7915287797261542  1.0000
  C   C412      1.0  0.5688957843935555  0.9929777349551481  0.8109570354234592  1.0000
  H   H553      1.0  0.5491820576050511  0.9719562778476686  0.7424637408572595  1.0000
  H   H554      1.0  0.5879073758248289  0.0085557934149596  0.7576023613918974  1.0000
  H   H555      1.0  0.5454738364656723  0.005281112624753614  0.7623432438181186  1.0000
  H   H556      1.0  0.5687091171631152  0.9309730941357268  0.8030117850144133  1.0000
  H   H557      1.0  0.5621248028181036  0.9289999679729428  0.7660188852268431  1.0000
  H   H558      1.0  0.6014608306009004  0.9651429745586413  0.7809534929920087  1.0000
  H   H559      1.0  0.503736362663303  0.9252898332418434  0.7737255500077719  1.0000
  H   H560      1.0  0.5012391132150059  0.9589419927233054  0.7941124496500954  1.0000
  H   H561      1.0  0.5110841800416331  0.9274882306469772  0.8106672793738827  1.0000
  H   H562      1.0  0.5980462361904463  0.010835698308846453  0.8088762434554282  1.0000
  H   H563      1.0  0.5642566062062343  0.9782397781782037  0.8309284167996097  1.0000
  H   H564      1.0  0.556645628210306  0.010199800230127343  0.8130144521826883  1.0000
  N   N32       1.0  0.7422567121294994  0.3705430003585084  0.6618304945782804  1.0000
  C   C413      1.0  0.7345317410273257  0.3341505639448561  0.6544983837645928  1.0000
  C   C414      1.0  0.708567957788072  0.37094761145776456  0.6646847909040546  1.0000
  C   C415      1.0  0.7641166675357485  0.3957060183630714  0.6396304941518506  1.0000
  C   C416      1.0  0.7618313486669102  0.3813111425425473  0.688532943261514  1.0000
  H   H565      1.0  0.7200044659519779  0.325317136845932  0.6343294166152998  1.0000
  H   H566      1.0  0.7180110157115468  0.3144322448685295  0.6707360416955577  1.0000
  H   H567      1.0  0.7593314219804719  0.3328198254977206  0.6523950870720783  1.0000
  H   H568      1.0  0.7132900481886023  0.3980609301239275  0.6698731423540912  1.0000
  H   H569      1.0  0.6929352019254927  0.3625997840490993  0.6449746726055154  1.0000
  H   H570      1.0  0.6916043000716102  0.3523816028926139  0.6813871939422462  1.0000
  H   H571      1.0  0.7705605589033268  0.4234683313530816  0.6444579808679111  1.0000
  H   H572      1.0  0.7501249079511191  0.38851247274700906  0.6191906047732191  1.0000
  H   H573      1.0  0.7895650053329804  0.3957356050970451  0.636775136541721  1.0000
  H   H574      1.0  0.7877874312845097  0.3821075013904598  0.6869043206967618  1.0000
  H   H575      1.0  0.7466606907537999  0.3622913929139375  0.7056121390053203  1.0000
  H   H576      1.0  0.7673971488275151  0.40831252452967104  0.6950659500516114  1.0000
  N   N33       1.0  0.9293497157294927  0.34555005764461505  0.11597632677468378  1.0000
  C   C417      1.0  0.9518458990836377  0.33283517403680507  0.12915562349884147  1.0000
  C   C418      1.0  0.910456133763472  0.35369050636216226  0.1378626211877008  1.0000
  C   C419      1.0  0.9032627051955133  0.31752839864420374  0.0973800566634351  1.0000
  C   C420      1.0  0.9517818376485407  0.37810946307406684  0.09946955308744977  1.0000
  H   H577      1.0  0.9658434903666183  0.32560372563013223  0.11326165950870366  1.0000
  H   H578      1.0  0.9358630302545424  0.3088938518944305  0.14244873932809737  1.0000
  H   H579      1.0  0.9724197281181299  0.35361317710408974  0.1428084517639275  1.0000
  H   H580      1.0  0.893137258776142  0.3632860374761706  0.12870285476164256  1.0000
  H   H581      1.0  0.8932223250962148  0.32972711579038044  0.1507510478752204  1.0000
  H   H582      1.0  0.9292856221692642  0.3747570148171781  0.15228427628091518  1.0000
  H   H583      1.0  0.8856987647637136  0.3261554117709688  0.08727831013603483  1.0000
  H   H584      1.0  0.8859019493793463  0.2924565114083611  0.10903251359159219  1.0000
  H   H585      1.0  0.9164878141550754  0.31097758148376864  0.08034979801100069  1.0000
  H   H586      1.0  0.9659755629638346  0.37279655032759157  0.08244031410435633  1.0000
  H   H587      1.0  0.9720213129354107  0.3998050663755883  0.11278727324042222  1.0000
  H   H588      1.0  0.9355915711009984  0.38845324393041225  0.08930169860023766  1.0000
  N   N34       1.0  0.48659643025346067  0.8371195834150201  0.959440882849618  1.0000
  C   C421      1.0  0.48893878183832035  0.81582734540094  0.9826887424024464  1.0000
  C   C422      1.0  0.47572906731137576  0.8622098634717417  0.9704106224778551  1.0000
  C   C423      1.0  0.4601002704837538  0.8130614572762641  0.938951573296661  1.0000
  C   C424      1.0  0.5215897274766325  0.8572799623166651  0.9456969726518658  1.0000
  H   H589      1.0  0.5079079467211752  0.8330074367458371  0.9990198845548455  1.0000
  H   H590      1.0  0.49808949643367734  0.7973434196417574  0.9752983292028876  1.0000
  H   H591      1.0  0.46273574632164693  0.7992202795721256  0.9929875033007048  1.0000
  H   H592      1.0  0.47379508240889784  0.8788171150468006  0.953452283249244  1.0000
  H   H593      1.0  0.44934629120921943  0.8477521869766722  0.9808121619719007  1.0000
  H   H594      1.0  0.4951787421239159  0.8808621292360465  0.9858352368037107  1.0000
  H   H595      1.0  0.4568884591567721  0.828093042571616  0.9214290585522735  1.0000
  H   H596      1.0  0.43350503259521855  0.7965588429085623  0.9486473269445745  1.0000
  H   H597      1.0  0.46796110609200453  0.7944631139540441  0.929647389174484  1.0000
  H   H598      1.0  0.5208282567472519  0.8736253612358105  0.9280350462375926  1.0000
  H   H599      1.0  0.5304046260746585  0.8390534334422979  0.9370097329199655  1.0000
  H   H600      1.0  0.5423023922124063  0.8757631672554758  0.9604749127481516  1.0000
  N   N35       1.0  0.07825384607862697  0.4343229367313803  0.7897365022870544  1.0000
  C   C425      1.0  0.06558963238793417  0.4298476245604176  0.8188936371053387  1.0000
  C   C426      1.0  0.05350307140273218  0.4386666067930777  0.7711298620721299  1.0000
  C   C427      1.0  0.08023354356665081  0.40249212364138887  0.7811923961032429  1.0000
  C   C428      1.0  0.11381799525531311  0.46628515674609766  0.787724242399573  1.0000
  H   H601      1.0  0.03892601625295922  0.40586039881361474  0.8212532748733756  1.0000
  H   H602      1.0  0.06398350905398831  0.45347142257295725  0.826140313244955  1.0000
  H   H603      1.0  0.08383867660843854  0.42654115837997914  0.8334336211737154  1.0000
  H   H604      1.0  0.02639775296064962  0.41489515685060313  0.7718987809643204  1.0000
  H   H605      1.0  0.05128235802811677  0.46241810339599004  0.7768849792948535  1.0000
  H   H606      1.0  0.06256955730675098  0.44222470541044734  0.7490052754039491  1.0000
  H   H607      1.0  0.0905052809306945  0.4052169986061447  0.7594779412085357  1.0000
  H   H608      1.0  0.053766277567706876  0.37791036211954876  0.7820289088611841  1.0000
  H   H609      1.0  0.09826707511802008  0.39808152653712314  0.7950008085162436  1.0000
  H   H610      1.0  0.12516298419623678  0.4694829625143149  0.7663829979810618  1.0000
  H   H611      1.0  0.1326436904617289  0.4645828265164163  0.8024814322208458  1.0000
  H   H612      1.0  0.11321882557229773  0.4911025727698573  0.7927988732366329  1.0000
  N   N36       1.0  0.7643270493931844  0.17091130999354198  0.9857619679806212  1.0000
  C   C429      1.0  0.7865011239064654  0.2021075396807639  0.0035668541812925447  1.0000
  C   C430      1.0  0.7409477994068681  0.17861416467701602  0.9681648242114296  1.0000
  C   C431      1.0  0.7424410686063179  0.13947656061924998  0.003512689502922939  1.0000
  C   C432      1.0  0.787461418118336  0.16346509454799912  0.9677001776054852  1.0000
  H   H613      1.0  0.8042808907850603  0.19724765124936683  0.017383133707088532  1.0000
  H   H614      1.0  0.770069721402014  0.20906495717782947  0.017165031237779765  1.0000
  H   H615      1.0  0.8037536175743862  0.22602033337271243  0.9906926825564681  1.0000
  H   H616      1.0  0.7235521909889309  0.15543751842226775  0.9546696891738565  1.0000
  H   H617      1.0  0.7231846931246391  0.18449575391299908  0.9810730566437168  1.0000
  H   H618      1.0  0.7566851072684352  0.2020882100312832  0.9543266176177541  1.0000
  H   H619      1.0  0.7259820267521742  0.115288666340393  0.9906640870550445  1.0000
  H   H620      1.0  0.7237420077743885  0.1436575420143038  0.016715612789809497  1.0000
  H   H621      1.0  0.7591114908894244  0.13331975261690904  0.017548685475570723  1.0000
  H   H622      1.0  0.8043035672524623  0.1866687180266681  0.9539673335784826  1.0000
  H   H623      1.0  0.7716215218501384  0.14013958309682384  0.9539011673847618  1.0000
  H   H624      1.0  0.8056186241063806  0.1577145847725646  0.9802374218891964  1.0000
  N   N37       1.0  0.08247915843602939  0.4379558453313513  0.5631262693032123  1.0000
  C   C433      1.0  0.09649263381638054  0.43630627314817066  0.5353907875766414  1.0000
  C   C434      1.0  0.10011788183798108  0.4753488180167454  0.572827219991265  1.0000
  C   C435      1.0  0.08949474512565846  0.4161301545733031  0.583185186345446  1.0000
  C   C436      1.0  0.043847964632029404  0.4241353244712185  0.5612163216631122  1.0000
  H   H625      1.0  0.08224536688120852  0.40887008065840874  0.526549119336961  1.0000
  H   H626      1.0  0.12504730203762832  0.444335116191066  0.5365067453177552  1.0000
  H   H627      1.0  0.09411745036022812  0.4544738010941949  0.5201537307279597  1.0000
  H   H628      1.0  0.09516812947610216  0.49259660505393654  0.5583609490201092  1.0000
  H   H629      1.0  0.09050084140889099  0.47745511258585865  0.5939192763129447  1.0000
  H   H630      1.0  0.12933570607939934  0.4868224445712661  0.5741980809859344  1.0000
  H   H631      1.0  0.07925493695567418  0.4166876281019721  0.6043717454332997  1.0000
  H   H632      1.0  0.11846653559582832  0.4261273518015681  0.5853632168563697  1.0000
  H   H633      1.0  0.07697568130175768  0.38782073583878124  0.5764052068429804  1.0000
  H   H634      1.0  0.02958170866808518  0.3962518497717752  0.5532704164493276  1.0000
  H   H635      1.0  0.037664706860698116  0.4404401089467014  0.5466646424479679  1.0000
  H   H636      1.0  0.032462830105607125  0.42460714841479136  0.5819064332259897  1.0000
  N   N38       1.0  0.4398014980274857  0.8289897016053315  0.4621363792860193  1.0000
  C   C437      1.0  0.46326074010307916  0.8667949946079588  0.45454634060590376  1.0000
  C   C438      1.0  0.4211963366526443  0.8085087231236187  0.4369456413478032  1.0000
  C   C439      1.0  0.41344099630583653  0.8262571284050032  0.4829417941797768  1.0000
  C   C440      1.0  0.46125511315982204  0.8143392109020781  0.47412158302855983  1.0000
  H   H637      1.0  0.48336532144335315  0.8698577713968779  0.43871506383755904  1.0000
  H   H638      1.0  0.4778741095175339  0.8832121408167781  0.4729033347596215  1.0000
  H   H639      1.0  0.4479348791408071  0.8787856707594145  0.4454908081746562  1.0000
  H   H640      1.0  0.4024395734069613  0.7800527885935924  0.4420354095448861  1.0000
  H   H641      1.0  0.4055302982141514  0.8194375146282938  0.42684080850728  1.0000
  H   H642      1.0  0.44012131560521306  0.8088850873160437  0.42107035438153423  1.0000
  H   H643      1.0  0.39683040121655677  0.837179812380035  0.4745922105963273  1.0000
  H   H644      1.0  0.42650295941751276  0.8411893774349157  0.502322429755229  1.0000
  H   H645      1.0  0.3952356493728984  0.7979706243731036  0.4890501856280201  1.0000
  H   H646      1.0  0.4441445577771758  0.7863247425175394  0.4810297438742549  1.0000
  H   H647      1.0  0.4765501463351315  0.8297152515619981  0.49267667411234156  1.0000
  H   H648      1.0  0.4804390172802941  0.8144944562763297  0.4586325343865317  1.0000
  N   N39       1.0  0.49452859283421  0.6417251628875682  0.9228694348724532  1.0000
  C   C441      1.0  0.4815094848290327  0.6306304108569458  0.951684207647994  1.0000
  C   C442      1.0  0.5142090610156287  0.6237701043773177  0.9136800957710101  1.0000
  C   C443      1.0  0.5184153186226985  0.6807849177897292  0.9219822212807754  1.0000
  C   C444      1.0  0.4640017181296169  0.6317458082165761  0.9040993318138774  1.0000
  H   H649      1.0  0.463226131712532  0.6012655600954224  0.9530354559416092  1.0000
  H   H650      1.0  0.466790492644584  0.6439702050705514  0.9592856484138577  1.0000
  H   H651      1.0  0.5037119814008539  0.6372726272042026  0.9664414680884329  1.0000
  H   H652      1.0  0.5373266915252947  0.6305263897275284  0.927429759902654  1.0000
  H   H653      1.0  0.49707522007293997  0.5942485009800875  0.9139561489578468  1.0000
  H   H654      1.0  0.5242746741138864  0.6315505511708193  0.8919644820110496  1.0000
  H   H655      1.0  0.5305505368243089  0.689738071281583  0.9009829709932794  1.0000
  H   H656      1.0  0.5405118678812612  0.6895115884723544  0.9372114376567896  1.0000
  H   H657      1.0  0.5039221949832116  0.6953268458603888  0.9266800933900371  1.0000
  H   H658      1.0  0.4727170207894302  0.6388290102439843  0.8820554521422943  1.0000
  H   H659      1.0  0.4491622026945714  0.645665629293765  0.9098497455092709  1.0000
  H   H660      1.0  0.4450221280387628  0.6025132023623082  0.9049059738254904  1.0000
  N   N40       1.0  0.7420758678594961  0.3264963847174321  0.426923482943488  1.0000
  C   C445      1.0  0.7575241974763038  0.33551739242420453  0.3985954869910127  1.0000
  C   C446      1.0  0.7659988137585241  0.3209683451216528  0.44558752863506823  1.0000
  C   C447      1.0  0.7072059830665387  0.2934882723055627  0.4258477048599102  1.0000
  C   C448      1.0  0.7375842330294274  0.3560587108978916  0.4377166006348138  1.0000
  H   H661      1.0  0.7836557028636012  0.36058518985171334  0.39864508434372514  1.0000
  H   H662      1.0  0.7398509337120198  0.3394536368237704  0.38390126925434637  1.0000
  H   H663      1.0  0.7618550991490971  0.3140696539828264  0.38995312094763585  1.0000
  H   H664      1.0  0.7554887429013005  0.31494820967574744  0.4672955636489465  1.0000
  H   H665      1.0  0.7699267914469794  0.298665027702249  0.4383798625931329  1.0000
  H   H666      1.0  0.7926163294941306  0.345319222229701  0.44670073489021056  1.0000
  H   H667      1.0  0.6888152013764237  0.29643076867383084  0.4113393826592649  1.0000
  H   H668      1.0  0.6942473391960037  0.2865880301097993  0.44672013260942556  1.0000
  H   H669      1.0  0.7097054628688813  0.27043167179772043  0.4184783222901629  1.0000
  H   H670      1.0  0.7635345934133502  0.38123347221811876  0.4394392511109822  1.0000
  H   H671      1.0  0.7256891519388722  0.35000594427192555  0.4589870365971124  1.0000
  H   H672      1.0  0.7200126476947386  0.36130557671123487  0.4239118032627176  1.0000
  N   N41       1.0  0.5494981772070131  0.9790182675782835  0.27650274270116443  1.0000
  C   C449      1.0  0.5480683865825592  0.9905189957797091  0.3052754144581604  1.0000
  C   C450      1.0  0.5360202035223496  0.9959380519968489  0.2568473550407228  1.0000
  C   C451      1.0  0.5273962849207638  0.9398087462548425  0.27444296030511567  1.0000
  C   C452      1.0  0.5865789866016805  0.9898090594992008  0.2693053104130749  1.0000
  H   H673      1.0  0.5203815082566416  0.9818543219220284  0.31187908267989367  1.0000
  H   H674      1.0  0.5635751603719265  0.02004234802698379  0.3072642439184387  1.0000
  H   H675      1.0  0.5593426703559796  0.9794204690276442  0.3205419906783133  1.0000
  H   H676      1.0  0.5366273718127095  0.9877363208246587  0.23492167109956075  1.0000
  H   H677      1.0  0.5082172265634469  0.9887167065861938  0.2617951992624055  1.0000
  H   H678      1.0  0.5522821072054364  0.025528474467059414  0.25759964245729533  1.0000
  H   H679      1.0  0.527449648652831  0.9306071126094566  0.2527652818326272  1.0000
  H   H680      1.0  0.49938510478327564  0.9305610298812967  0.28041873313842774  1.0000
  H   H681      1.0  0.5372714426172076  0.9260512571334903  0.28845876806448895  1.0000
  H   H682      1.0  0.5886011810724139  0.9814223955216649  0.2477194369675235  1.0000
  H   H683      1.0  0.5976795165520387  0.9776563927877283  0.2837869729310418  1.0000
  H   H684      1.0  0.6039899969612603  0.0192778317193254  0.27051676641654193  1.0000
  N   N42       1.0  0.5371265021378112  0.3705855513613161  0.2188543452408625  1.0000
  C   C453      1.0  0.5512384847777795  0.36666803691938016  0.24588704052096105  1.0000
  C   C454      1.0  0.5641865419743066  0.3796057596227427  0.19691804445744593  1.0000
  C   C455      1.0  0.5282582141153177  0.3993926110388068  0.22089482400499127  1.0000
  C   C456      1.0  0.5048330488026006  0.33672970781062844  0.2117809282835278  1.0000
  H   H685      1.0  0.5312850413180056  0.35927699495448406  0.26286101124850214  1.0000
  H   H686      1.0  0.5753413345922301  0.3918754221043022  0.2521114690879206  1.0000
  H   H687      1.0  0.5589002018503749  0.34567156974472635  0.24503295056689187  1.0000
  H   H688      1.0  0.5543924726508521  0.3823817199155017  0.17613008067554894  1.0000
  H   H689      1.0  0.588878181623916  0.4050688803742999  0.20162632434126596  1.0000
  H   H690      1.0  0.5716417272818938  0.3585508986490406  0.19498993169436848  1.0000
  H   H691      1.0  0.5174584215926592  0.4032222953345357  0.2009700704243822  1.0000
  H   H692      1.0  0.5520268487918264  0.4253639402988421  0.22629039534258122  1.0000
  H   H693      1.0  0.5080535700640659  0.39364987635417753  0.23739147874532954  1.0000
  H   H694      1.0  0.5104922725357587  0.31434705254102846  0.21037972943442085  1.0000
  H   H695      1.0  0.49371170765323086  0.338512572514562  0.19130854846368991  1.0000
  H   H696      1.0  0.48378857203657677  0.3293662388073507  0.22784371004537185  1.0000
  N   N43       1.0  0.27910070447628815  0.4536880773130949  0.34949326017563154  1.0000
  C   C457      1.0  0.3042554968176549  0.4515969252162376  0.3298904778994965  1.0000
  C   C458      1.0  0.24438283928048404  0.4205876407754351  0.3476432018785627  1.0000
  C   C459      1.0  0.2747601304659503  0.48457735144786657  0.34217198756732187  1.0000
  C   C460      1.0  0.29296871328928864  0.4579464060818647  0.3782492883799012  1.0000
  H   H697      1.0  0.30837771326875635  0.4287197229055308  0.3349200386669855  1.0000
  H   H698      1.0  0.33076820362344933  0.4761742104006647  0.3305656716278219  1.0000
  H   H699      1.0  0.29466612309615164  0.44809337125609316  0.30796854190332296  1.0000
  H   H700      1.0  0.22447914856324494  0.42169521126969667  0.3615899679442856  1.0000
  H   H701      1.0  0.2336058614812616  0.41586870379984503  0.3260519710012637  1.0000
  H   H702      1.0  0.2463146601082152  0.39683393537960804  0.3541686281851807  1.0000
  H   H703      1.0  0.2645588260950928  0.4823160777041455  0.3205291265221498  1.0000
  H   H704      1.0  0.3003700039659532  0.5100596511248275  0.3436302313957183  1.0000
  H   H705      1.0  0.2555392853407811  0.486669886879928  0.35636666556707713  1.0000
  H   H706      1.0  0.2749892683733681  0.46036696042100783  0.3935411696177219  1.0000
  H   H707      1.0  0.319666004039817  0.48203344573574963  0.3802629155362363  1.0000
  H   H708      1.0  0.29536662696311067  0.4344802919749057  0.3848181906723503  1.0000
  N   N44       1.0  0.5524633027231713  0.17868033290645757  0.7489268502660137  1.0000
  C   C461      1.0  0.5262749012141866  0.1460711023787971  0.7637553014195652  1.0000
  C   C462      1.0  0.5370861008581891  0.1819942978491518  0.7223258184325465  1.0000
  C   C463      1.0  0.5847060281719937  0.17641732705930552  0.7431833643716412  1.0000
  C   C464      1.0  0.5617734422126793  0.2102368019607455  0.7664539223664559  1.0000
  H   H709      1.0  0.5013463845228551  0.1465971304364046  0.7681068483492897  1.0000
  H   H710      1.0  0.536652527746393  0.1432600272405589  0.7842928995696586  1.0000
  H   H711      1.0  0.5193101616645771  0.12157925641896804  0.7514765088368577  1.0000
  H   H712      1.0  0.5294521882778143  0.15844164566645982  0.708669444312678  1.0000
  H   H713      1.0  0.5128384045790295  0.18404557665470422  0.7259497400323531  1.0000
  H   H714      1.0  0.5562293243494565  0.20623526601647874  0.710521287832109  1.0000
  H   H715      1.0  0.6056431835805517  0.2012190326643461  0.7331272850993682  1.0000
  H   H716      1.0  0.5788480085985755  0.15381701828829242  0.728935063668655  1.0000
  H   H717      1.0  0.5958404983469675  0.17190410325986222  0.7626989128897314  1.0000
  H   H718      1.0  0.5380487805039673  0.21288989971120356  0.7708080095689263  1.0000
  H   H719      1.0  0.581854134791388  0.23542033536863652  0.7562116827635473  1.0000
  H   H720      1.0  0.5725395810707282  0.20820959846448545  0.7870422231027763  1.0000
  N   N45       1.0  0.38355571296326435  0.6007989609567408  0.774580683646719  1.0000
  C   C465      1.0  0.40335383074344905  0.6152563067088139  0.7482693483735771  1.0000
  C   C466      1.0  0.3746877826371197  0.62686146543446  0.7866448151260029  1.0000
  C   C467      1.0  0.4057346788143114  0.5942850215324483  0.794504134985192  1.0000
  C   C468      1.0  0.3505573911592825  0.5669535542842898  0.7688997342601056  1.0000
  H   H721      1.0  0.42864183578689063  0.6404809634246074  0.7519538579289577  1.0000
  H   H722      1.0  0.38779297710676086  0.6212987444493271  0.7329221194709552  1.0000
  H   H723      1.0  0.4103727896689724  0.5962568625776358  0.7384659557101488  1.0000
  H   H724      1.0  0.3600472131182381  0.6172129332898348  0.8066923680913503  1.0000
  H   H725      1.0  0.3990539873134797  0.652829052525398  0.7908428149696514  1.0000
  H   H726      1.0  0.3579285519787759  0.6325056644884165  0.7722242939876692  1.0000
  H   H727      1.0  0.3911560318545755  0.5818430796889776  0.8141581537572833  1.0000
  H   H728      1.0  0.4299915526461226  0.619638260405166  0.80023344609394  1.0000
  H   H729      1.0  0.4146271428815587  0.5762541993923115  0.7855103119167318  1.0000
  H   H730      1.0  0.33472348923455725  0.555567677342005  0.7882662450451425  1.0000
  H   H731      1.0  0.3563487091504048  0.5465187765883089  0.7601564535175306  1.0000
  H   H732      1.0  0.33339978650209656  0.570891644818729  0.7536776864878233  1.0000
  N   N46       1.0  0.09023740856622836  0.4473973446937077  0.06253402230465333  1.0000
  C   C469      1.0  0.05119100853108956  0.43066276913939744  0.06409219315969915  1.0000
  C   C470      1.0  0.10212699540253434  0.42798591522702817  0.08108256127175827  1.0000
  C   C471      1.0  0.10654128691262559  0.48497007217530513  0.07158811247404691  1.0000
  C   C472      1.0  0.10117992075039095  0.4460805404719791  0.03354466403277511  1.0000
  H   H733      1.0  0.041352985833470024  0.44558039606121475  0.051411536918202556  1.0000
  H   H734      1.0  0.042263109387501455  0.430126550736472  0.08596681981409755  1.0000
  H   H735      1.0  0.037808084164079984  0.4027490896366344  0.056185824980230614  1.0000
  H   H736      1.0  0.09071096449237365  0.39963857324419577  0.07467030057440253  1.0000
  H   H737      1.0  0.13149874437181294  0.44016748237268166  0.08076582811625901  1.0000
  H   H738      1.0  0.09427536886817672  0.42833819046834876  0.10314420341212915  1.0000
  H   H739      1.0  0.09883732078847499  0.48694325100307223  0.09341399760416812  1.0000
  H   H740      1.0  0.09822710966012896  0.5004704412533909  0.0580394809638682  1.0000
  H   H741      1.0  0.13600152048306327  0.49845655091094154  0.07070235256052686  1.0000
  H   H742      1.0  0.1303020991662877  0.45689376438435836  0.03206464058223328  1.0000
  H   H743      1.0  0.09464473313640442  0.4622325185405203  0.01915241274628325  1.0000
  H   H744      1.0  0.08807948392636854  0.41828999695451885  0.025394395616531187  1.0000
  N   N47       1.0  0.5143326979608394  0.15661163784621968  0.0049681534515140235  1.0000
  C   C473      1.0  0.49787281187558563  0.16632870514735765  0.9820851888671713  1.0000
  C   C474      1.0  0.5075300292746076  0.1689012114632351  0.03182874509452471  1.0000
  C   C475      1.0  0.5530168309755292  0.17378192786746416  0.00025883661014614034  1.0000
  C   C476      1.0  0.4989196413402222  0.11744279606504726  0.005680909344209173  1.0000
  H   H745      1.0  0.5026511339982043  0.1575887603196917  0.9614899885939868  1.0000
  H   H746      1.0  0.5087685924333416  0.19570075876180537  0.981024307403794  1.0000
  H   H747      1.0  0.4686745853597758  0.15373777225702234  0.9848312571141284  1.0000
  H   H748      1.0  0.5196626283603469  0.16213286386840897  0.04957529860913246  1.0000
  H   H749      1.0  0.5188581287812949  0.19839374105379792  0.031944392696371615  1.0000
  H   H750      1.0  0.4786093864113804  0.15665697549518676  0.036008757051086526  1.0000
  H   H751      1.0  0.559120227767638  0.165426635067615  0.9800333952092297  1.0000
  H   H752      1.0  0.5662860593027574  0.16682482277247157  0.016994316454398195  1.0000
  H   H753      1.0  0.5654979454378067  0.20334962866214434  0.9996254946684849  1.0000
  H   H754      1.0  0.510619538243488  0.10911075485741062  0.022742156045922224  1.0000
  H   H755      1.0  0.503814686987924  0.10738935569395225  0.985737824052745  1.0000
  H   H756      1.0  0.46970321408884314  0.10359462472241332  0.008882826299375202  1.0000
  N   N48       1.0  0.7183697828889342  0.18791280999418813  0.8131616853306083  1.0000
  C   C477      1.0  0.6902468649597878  0.18424119353088633  0.8325063502309327  1.0000
  C   C478      1.0  0.7501932111727754  0.223350339962964  0.816806015323426  1.0000
  C   C479      1.0  0.7055958852609895  0.1841850222935739  0.7841106507428807  1.0000
  C   C480      1.0  0.7275805855423508  0.1599198663134423  0.8192750842511879  1.0000
  H   H757      1.0  0.6655453581023606  0.15814219889338563  0.8297912344439006  1.0000
  H   H758      1.0  0.6833919640878556  0.2055887702951614  0.8290837966450457  1.0000
  H   H759      1.0  0.6985189893005435  0.18561516142905746  0.854659932221398  1.0000
  H   H760      1.0  0.7723735561672056  0.2264462141703609  0.8032191972084219  1.0000
  H   H761      1.0  0.744875768086537  0.24537053238658446  0.8114811804696174  1.0000
  H   H762      1.0  0.7597024437474871  0.22740520229047667  0.8387424711441578  1.0000
  H   H763      1.0  0.6822283331027611  0.15734752919649742  0.7803654224152583  1.0000
  H   H764      1.0  0.7265063922213627  0.18768170942201443  0.7689914897891057  1.0000
  H   H765      1.0  0.6978672523904723  0.2045060401600794  0.7789438964773043  1.0000
  H   H766      1.0  0.7380716105737493  0.1624178422043714  0.8408196970260422  1.0000
  H   H767      1.0  0.7481151127073115  0.16131759929136885  0.8046062785527083  1.0000
  H   H768      1.0  0.7040794356056033  0.13280162171287394  0.8174865567705697  1.0000
