data_image0
_chemical_formula_structural       FeS2FeS2FeSFeS3FeS2FeS2FeSFeS3FeS2FeS2FeSFeS3FeS2FeS2FeSFeS3FeS2FeS2FeSFeS3FeS2FeS2FeSFeS3FeS2FeS2FeSFeS3FeS2FeS2FeSFeS3FeS2FeS2FeSFeS3FeS2FeS2FeSFeS3FeS2FeS2FeSFeS3FeS2FeS2FeSFeS3C6H4C6H4C6H4C6H4C6H4C6H4C6H4C6H4C6H4C6H4C6H4C6H4C6H4C6H4C6H4C6H4C6H4C6H4C6H4C6H4C6H4C6H4C6H4C6H4NC4H12NC4H12NC4H12NC4H12NC4H12NC4H12NC4H12NC4H12NC4H12NC4H12NC4H12NC4H12NC4H12NC4H12NC4H12NC4H12NC4H12NC4H12NC4H12NC4H12NC4H12NC4H12NC4H12NC4H12
_chemical_formula_sum              "Fe48 S96 C240 H384 N24"
_cell_length_a       43.044952414868995
_cell_length_b       43.21689056322918
_cell_length_c       30.595803235084603
_cell_angle_alpha    90.87606397535961
_cell_angle_beta     89.68971594026394
_cell_angle_gamma    118.82200567803712

_space_group_name_H-M_alt    "P 1"
_space_group_IT_number       1

loop_
  _space_group_symop_operation_xyz
  'x, y, z'

loop_
  _atom_site_type_symbol
  _atom_site_label
  _atom_site_symmetry_multiplicity
  _atom_site_fract_x
  _atom_site_fract_y
  _atom_site_fract_z
  _atom_site_occupancy
  Fe  Fe1       1.0  0.15053357399342573  0.5548030332844759  0.46117057972919384  1.0000
  S   S1        1.0  0.13853696495943632  0.596867296371986  0.43773774358426526  1.0000
  S   S2        1.0  0.13379702544292388  0.5324052836252501  0.5288630088838271  1.0000
  Fe  Fe2       1.0  0.1772396170783883  0.545967790786855  0.3719750056928002  1.0000
  S   S3        1.0  0.16534629989731373  0.5859306955237388  0.3415838762961607  1.0000
  S   S4        1.0  0.20251291026721652  0.5206345035814749  0.32991251520997433  1.0000
  Fe  Fe3       1.0  0.19045774117262382  0.617777488865293  0.40229553388033484  1.0000
  S   S5        1.0  0.23192973660110755  0.6741216696959028  0.39002103770258223  1.0000
  Fe  Fe4       1.0  0.11420119289180697  0.560787171831255  0.37944179486021634  1.0000
  S   S6        1.0  0.062298558385255234  0.5560011661818278  0.35385635556000156  1.0000
  S   S7        1.0  0.20487013154664374  0.5789548062402553  0.43117489513414087  1.0000
  S   S8        1.0  0.12372471480675955  0.5175343455155871  0.404513452510228  1.0000
  Fe  Fe5       1.0  0.19279040706144565  0.5662074578047495  0.8328945464585936  1.0000
  S   S9        1.0  0.2339251567947357  0.6167133423583017  0.8038423441031114  1.0000
  S   S10       1.0  0.20051955744271485  0.5191642282405338  0.844973449072189  1.0000
  Fe  Fe6       1.0  0.13655109633210671  0.5895749877577244  0.8393104442482872  1.0000
  S   S11       1.0  0.1733461802875764  0.6417550553804827  0.8088642828764878  1.0000
  S   S12       1.0  0.08568187975868062  0.5842394268511657  0.8700844365455385  1.0000
  Fe  Fe7       1.0  0.1891001433662026  0.6116085965941684  0.7618925700940999  1.0000
  S   S13       1.0  0.2073680940112553  0.6306964381692539  0.6932918321933095  1.0000
  Fe  Fe8       1.0  0.21537285328451025  0.6431889289826336  0.8530842368229722  1.0000
  S   S14       1.0  0.2495351291838148  0.6975248664546732  0.8830245148154212  1.0000
  S   S15       1.0  0.1484769487473853  0.5588518576083479  0.787749832125334  1.0000
  S   S16       1.0  0.17804169097963668  0.5928481394607296  0.8864404411800556  1.0000
  Fe  Fe9       1.0  0.8798895907906692  0.44110304738666195  0.8814118734932472  1.0000
  S   S17       1.0  0.8670777067447643  0.47784829380247723  0.9207399944411816  1.0000
  S   S18       1.0  0.9301366641859079  0.4537728785649126  0.8432185887852659  1.0000
  Fe  Fe10      1.0  0.81063940575937  0.37587106308371676  0.9079933747480604  1.0000
  S   S19       1.0  0.7934704892441367  0.4074123403771474  0.950709768072366  1.0000
  S   S20       1.0  0.7749795844403208  0.31773965475161614  0.8942020147582311  1.0000
  Fe  Fe11      1.0  0.8112706681132655  0.44541060004724076  0.8950560728492309  1.0000
  S   S21       1.0  0.7716688332683829  0.4640073850242716  0.878993151507313  1.0000
  Fe  Fe12      1.0  0.8501859968009832  0.4364898578494881  0.9726066191601659  1.0000
  S   S22       1.0  0.8719099854200599  0.4555395888428649  0.04054216812670974  1.0000
  S   S23       1.0  0.8253361678159093  0.41217405274342667  0.8508630781215811  1.0000
  S   S24       1.0  0.8660026515086422  0.40142044650300573  0.9347456968124676  1.0000
  Fe  Fe13      1.0  0.8557972779914731  0.420213021748978  0.3496133643031693  1.0000
  S   S25       1.0  0.8111104798832913  0.36633249121281025  0.3295673823599172  1.0000
  S   S26       1.0  0.9076338558921582  0.42398381314958683  0.3732790875446577  1.0000
  Fe  Fe14      1.0  0.8113492267079186  0.45593957175912125  0.33254038384568113  1.0000
  S   S27       1.0  0.7649774473041133  0.4057268740071768  0.31022787211484165  1.0000
  S   S28       1.0  0.8078639418692254  0.5063969999046023  0.3355450485568197  1.0000
  Fe  Fe15      1.0  0.7758109913850614  0.3815330075622259  0.3683496459755515  1.0000
  S   S29       1.0  0.724437766158901  0.3501996122132766  0.4056932580728584  1.0000
  Fe  Fe16      1.0  0.8039816812782965  0.39533636482526563  0.2734202243534173  1.0000
  S   S30       1.0  0.7843714193074112  0.3714968414121687  0.20591899074379397  1.0000
  S   S31       1.0  0.820672568417694  0.4328368573158467  0.3929455050480958  1.0000
  S   S32       1.0  0.8503929185450129  0.44812523644496594  0.2909647259357848  1.0000
  Fe  Fe17      1.0  0.3872933750368197  0.5556222495182349  0.7737440204244876  1.0000
  S   S33       1.0  0.40084909135912455  0.6023571809057843  0.8173530573020247  1.0000
  S   S34       1.0  0.33282073125448414  0.508386730438851  0.7719294050066516  1.0000
  Fe  Fe18      1.0  0.4625987014458619  0.5843960805666212  0.7391424478599214  1.0000
  S   S35       1.0  0.4822081371589813  0.6344411623352288  0.779433258493923  1.0000
  S   S36       1.0  0.4967006340356124  0.5746836892537095  0.6893441310035869  1.0000
  Fe  Fe19      1.0  0.44954857168102264  0.5987262561220289  0.8334799797339135  1.0000
  S   S37       1.0  0.4725772959035798  0.6053292662563251  0.9011244965120532  1.0000
  Fe  Fe20      1.0  0.4317299253992996  0.6339475378187177  0.7596441427526891  1.0000
  S   S38       1.0  0.42608034952013835  0.6824307846508186  0.7473199280779151  1.0000
  S   S39       1.0  0.43357804976568576  0.5487730136804578  0.7946885151527646  1.0000
  S   S40       1.0  0.4145384572655773  0.5871132822615045  0.7145490158582035  1.0000
  Fe  Fe21      1.0  0.38893612668125943  0.6040601387919919  0.22581102932993552  1.0000
  S   S41       1.0  0.4424547981229602  0.6141645198119398  0.2482531870396653  1.0000
  S   S42       1.0  0.36086407825001576  0.6235407627569158  0.2723116775099932  1.0000
  Fe  Fe22      1.0  0.4005021740665626  0.5811698430322372  0.13475672634939745  1.0000
  S   S43       1.0  0.4551144615734868  0.5896668645621723  0.15086621514733345  1.0000
  S   S44       1.0  0.37419314445095514  0.5677185156214641  0.0682309795637479  1.0000
  Fe  Fe23      1.0  0.4303462863170283  0.5631028599092976  0.2141298641999964  1.0000
  S   S45       1.0  0.44078164042475537  0.5253267397257506  0.25488389881183027  1.0000
  Fe  Fe24      1.0  0.46190947968576285  0.6395737089271546  0.18354475305638512  1.0000
  S   S46       1.0  0.5118435219955674  0.6921355292517066  0.18202565889366643  1.0000
  S   S47       1.0  0.37476993588400626  0.550996260356341  0.19603641176726638  1.0000
  S   S48       1.0  0.40922956919309267  0.6327548377148806  0.1632530373685157  1.0000
  Fe  Fe25      1.0  0.6173223640965145  0.4427251705396886  0.591885561572498  1.0000
  S   S49       1.0  0.5650273887994554  0.4276281486972872  0.6244549518277382  1.0000
  S   S50       1.0  0.634288081074354  0.4605090645915949  0.5227334080470805  1.0000
  Fe  Fe26      1.0  0.6502432130085264  0.4310635149064294  0.6734543361068704  1.0000
  S   S51       1.0  0.6011124095603401  0.4149551928515281  0.7133244500647811  1.0000
  S   S52       1.0  0.7014438155215852  0.43144129443643847  0.6907205403722231  1.0000
  Fe  Fe27      1.0  0.5723145269292926  0.3839222667532735  0.6534931377522748  1.0000
  S   S53       1.0  0.5262377932043455  0.32899714001056224  0.6579020473117557  1.0000
  Fe  Fe28      1.0  0.5976334442065626  0.46014397936500684  0.6816533351975571  1.0000
  S   S54       1.0  0.5867551272393012  0.4960006381374018  0.7276424384178779  1.0000
  S   S55       1.0  0.6214948493503892  0.3962568142381579  0.6159275150079578  1.0000
  S   S56       1.0  0.6497586758584467  0.47886798544336695  0.6466770230555685  1.0000
  Fe  Fe29      1.0  0.5874311141746837  0.3797886742444518  0.2177381765616474  1.0000
  S   S57       1.0  0.5979761179476523  0.4339661013667542  0.19888497665368543  1.0000
  S   S58       1.0  0.6081794467087197  0.35261963754652387  0.17136725245487355  1.0000
  Fe  Fe30      1.0  0.5570714368467569  0.3854063080981352  0.30534427918015616  1.0000
  S   S59       1.0  0.5644945871125192  0.439635582891151  0.2929628978152425  1.0000
  S   S60       1.0  0.5373999593052665  0.36018534522866036  0.37067779475168966  1.0000
  Fe  Fe31      1.0  0.5439329483967597  0.41871780023161403  0.2257869274672828  1.0000
  S   S61       1.0  0.5102410698924026  0.43338260844536447  0.18281431959888345  1.0000
  Fe  Fe32      1.0  0.6175908259274366  0.45029329418092234  0.267274587622262  1.0000
  S   S62       1.0  0.6650622921347418  0.5036623441206465  0.27946025101347566  1.0000
  S   S63       1.0  0.5316962616704374  0.36286926113634616  0.23987013519973846  1.0000
  S   S64       1.0  0.6116496849692337  0.3975092187906269  0.284329781869664  1.0000
  Fe  Fe33      1.0  0.39078406548634853  0.7956852744039383  0.5317299601911177  1.0000
  S   S65       1.0  0.42529681839675654  0.7787475659516979  0.495106348766834  1.0000
  S   S66       1.0  0.334435016508281  0.7562264820633938  0.5477612290359944  1.0000
  Fe  Fe34      1.0  0.45229183301305814  0.8690530044085425  0.5539835024883834  1.0000
  S   S67       1.0  0.49209222591475127  0.8569963620999297  0.5207715415714645  1.0000
  S   S68       1.0  0.4596528081956907  0.920776024488267  0.5842153057116161  1.0000
  Fe  Fe35      1.0  0.4511479965105419  0.8331606719313297  0.46741949793070214  1.0000
  S   S69       1.0  0.4715587715584883  0.8466957372499678  0.3983627718394651  1.0000
  Fe  Fe36      1.0  0.46269950865778053  0.8034146594047736  0.5514381226245028  1.0000
  S   S70       1.0  0.48647408778971646  0.7700676526217437  0.5748908589275853  1.0000
  S   S71       1.0  0.41283229162114016  0.8480490208179378  0.49860924308310506  1.0000
  S   S72       1.0  0.42667996471011393  0.8174375146204017  0.5899764822758775  1.0000
  Fe  Fe37      1.0  0.37489106556069873  0.7799067770032346  0.08486403525425747  1.0000
  S   S73       1.0  0.42523841727781114  0.8230546783983084  0.05683039396320666  1.0000
  S   S74       1.0  0.34080088965634525  0.7252443396243037  0.055639168760864166  1.0000
  Fe  Fe38      1.0  0.3881597534628559  0.8165196431641616  0.17413816778599808  1.0000
  S   S75       1.0  0.43977183539679787  0.8629985701871599  0.15403735153169557  1.0000
  S   S76       1.0  0.36305938254140757  0.8038105807958021  0.2411323505280785  1.0000
  Fe  Fe39      1.0  0.4113445565479793  0.8610541550584542  0.0918933960685611  1.0000
  S   S77       1.0  0.4201913939002188  0.9097938994068103  0.05426816941587637  1.0000
  Fe  Fe40      1.0  0.45015854448177545  0.8223425520908373  0.12041953457060334  1.0000
  S   S78       1.0  0.5048106715159555  0.8279442344429739  0.12091895183638691  1.0000
  S   S79       1.0  0.35815027650837866  0.817459349781987  0.11456020187084531  1.0000
  S   S80       1.0  0.4014263980094531  0.7763625385400608  0.14609734550808207  1.0000
  Fe  Fe41      1.0  0.6561041038563757  0.20584682073047642  0.5811499774308726  1.0000
  S   S81       1.0  0.6056657484625275  0.16812826775527137  0.5467671758566655  1.0000
  S   S82       1.0  0.7102715923345561  0.24338878270144004  0.5545040171628801  1.0000
  Fe  Fe42      1.0  0.6243405842779817  0.18290078747433364  0.6719730017870381  1.0000
  S   S83       1.0  0.5707692211696153  0.14282397179566944  0.6459492523338634  1.0000
  S   S84       1.0  0.6450024793531214  0.20271138160956526  0.7403077278084379  1.0000
  Fe  Fe43      1.0  0.6007754589955644  0.12805729592896467  0.5965809744127858  1.0000
  S   S85       1.0  0.5941691861085946  0.07448853187792402  0.5748193442277152  1.0000
  Fe  Fe44      1.0  0.5793796615624814  0.18541970820926648  0.598095070870228  1.0000
  S   S86       1.0  0.535076231589662  0.1967927951896227  0.5811325346639933  1.0000
  S   S87       1.0  0.6537007099280587  0.164801986382368  0.626968417868277  1.0000
  S   S88       1.0  0.6300860960471502  0.2263269519997404  0.6280243121467883  1.0000
  Fe  Fe45      1.0  0.555019313524324  0.15117987494436244  0.9659377572429206  1.0000
  S   S89       1.0  0.5953416729431814  0.13878642050402587  0.9961220067238901  1.0000
  S   S90       1.0  0.5363197248550089  0.13703969182374334  0.8960374657471113  1.0000
  Fe  Fe46      1.0  0.5401131398670462  0.17825384471740213  0.051866189872252555  1.0000
  S   S91       1.0  0.5788966454546733  0.16770621919799045  0.08775699928332847  1.0000
  S   S92       1.0  0.5099204375448151  0.19894032067370224  0.09275658155292608  1.0000
  Fe  Fe47      1.0  0.6142181122027851  0.19155106850712178  0.029987862365114415  1.0000
  S   S93       1.0  0.6689732596709207  0.2350407535265526  0.0474772148012621  1.0000
  Fe  Fe48      1.0  0.5555831239720359  0.1159230680276412  0.05081371885668484  1.0000
  S   S94       1.0  0.5419346188867273  0.06753351398325981  0.09220627531502701  1.0000
  S   S95       1.0  0.5766614110916926  0.20550502284082925  0.995978068594684  1.0000
  S   S96       1.0  0.5141303454802735  0.12495823219984331  0.018548240709113317  1.0000
  C   C1        1.0  0.616162183712675  0.18224181816722057  0.7844003802480658  1.0000
  C   C2        1.0  0.583335953595866  0.1522042399278234  0.7776584568357185  1.0000
  C   C3        1.0  0.5594197113020216  0.137982117345035  0.8125142503985116  1.0000
  C   C4        1.0  0.5683718576089407  0.15344929360502876  0.8543813040541444  1.0000
  C   C5        1.0  0.6017822690683662  0.18272117304295726  0.8615474562153564  1.0000
  C   C6        1.0  0.6256168979896086  0.1971024933171545  0.8265562902702185  1.0000
  H   H1        1.0  0.5763455196845358  0.13995324128647904  0.745573758132619  1.0000
  H   H2        1.0  0.5338401900929185  0.11493948809473034  0.8070890719241965  1.0000
  H   H3        1.0  0.6089920748143649  0.19458286704223046  0.8938732082008736  1.0000
  H   H4        1.0  0.6512901551143215  0.21987246674207073  0.8322087928034232  1.0000
  C   C7        1.0  0.4530011343687295  0.9538625925698452  0.06624761581149152  1.0000
  C   C8        1.0  0.4609073766661995  0.9800732034627911  0.03486745314689843  1.0000
  C   C9        1.0  0.48814345924951746  0.014990512435949887  0.042141967470813  1.0000
  C   C10       1.0  0.5076418291420072  0.02404334534601567  0.08106700547128964  1.0000
  C   C11       1.0  0.4993724294932785  0.9979774750095858  0.11271827875715679  1.0000
  C   C12       1.0  0.4720629743753943  0.9631263454759579  0.10550063152038502  1.0000
  H   H5        1.0  0.44622841949902364  0.973197472283414  0.004421197774658214  1.0000
  H   H6        1.0  0.4942099404711666  0.03478867497941143  0.017474104841082028  1.0000
  H   H7        1.0  0.5141214655300239  0.004816401583206885  0.1430959555499265  1.0000
  H   H8        1.0  0.4658618134131932  0.9433959461171054  0.13025330318912526  1.0000
  C   C13       1.0  0.497838113742812  0.9630961362896499  0.58356807011394  1.0000
  C   C14       1.0  0.530908103401512  0.9678814317642285  0.5699760404014375  1.0000
  C   C15       1.0  0.5600814008343696  0.0021669083793288174  0.5676879744832476  1.0000
  C   C16       1.0  0.5566968559445901  0.03198576681070624  0.5795632877280413  1.0000
  C   C17       1.0  0.5237470271284372  0.027182512597710068  0.5937501841025994  1.0000
  C   C18       1.0  0.49448904874272653  0.992882588298522  0.5957173892586161  1.0000
  H   H9        1.0  0.5340934186557109  0.9451744115150649  0.5615782910442663  1.0000
  H   H10       1.0  0.5855696243274408  0.005637056934096797  0.5570628964376555  1.0000
  H   H11       1.0  0.5207792892447032  0.04986999502838952  0.6030074428858757  1.0000
  H   H12       1.0  0.4690378928250373  0.989417833555564  0.6064928180291445  1.0000
  C   C19       1.0  0.3930672284061274  0.8160516846337502  0.28500928617861  1.0000
  C   C20       1.0  0.38036550296463956  0.8074473210508952  0.3278996983486349  1.0000
  C   C21       1.0  0.4041806412868828  0.8165667740334608  0.3631501075065553  1.0000
  C   C22       1.0  0.4407278289845284  0.8344730051961624  0.35548440302163853  1.0000
  C   C23       1.0  0.4533366143670361  0.8429478088252309  0.31263908296329573  1.0000
  C   C24       1.0  0.42958723023816153  0.8336698295773722  0.27747590044931514  1.0000
  H   H13       1.0  0.3521016884138239  0.7939156344489076  0.3339675744424058  1.0000
  H   H14       1.0  0.394267387094802  0.809920744514332  0.396185822582024  1.0000
  H   H15       1.0  0.4816044323613768  0.8568565376585963  0.3066200313249369  1.0000
  H   H16       1.0  0.4395858068991282  0.8403131048509802  0.24456691887949766  1.0000
  C   C25       1.0  0.5371349309025106  0.2415115290085532  0.11504500895579224  1.0000
  C   C26       1.0  0.5236997988424956  0.2555431392710047  0.14703117611094457  1.0000
  C   C27       1.0  0.5452616346781551  0.2895237218115274  0.16495193410088355  1.0000
  C   C28       1.0  0.5801831225706753  0.3097706907808557  0.15043069103308174  1.0000
  C   C29       1.0  0.5934081588604964  0.29581227198527654  0.11822615888954582  1.0000
  C   C30       1.0  0.5721234316630387  0.26171716904467246  0.10090670221494817  1.0000
  H   H17       1.0  0.4967277254796171  0.23991859956346598  0.15833265122439563  1.0000
  H   H18       1.0  0.5350001207850584  0.29986031335490204  0.19022679445733892  1.0000
  H   H19       1.0  0.6202025041556917  0.3114311688995564  0.10638509486300486  1.0000
  H   H20       1.0  0.5827340643174869  0.2512235103445335  0.07621862907325122  1.0000
  C   C31       1.0  0.5307463184622006  0.2936852834363134  0.635739701777054  1.0000
  C   C32       1.0  0.5631159346546395  0.29326411653700185  0.636230265399207  1.0000
  C   C33       1.0  0.5649746207744752  0.26353606991357936  0.6198201052349408  1.0000
  C   C34       1.0  0.5346997125431305  0.23475047978206035  0.6019793528542279  1.0000
  C   C35       1.0  0.5027521612092676  0.23576094384254648  0.6007273219122555  1.0000
  C   C36       1.0  0.5006210902712008  0.2647420566027359  0.6183174205854451  1.0000
  H   H21       1.0  0.5864351655812292  0.31552515618497246  0.6499759304465292  1.0000
  H   H22       1.0  0.5898338199510306  0.2631426045093773  0.6205634990248119  1.0000
  H   H23       1.0  0.4792853015160823  0.213692552672826  0.5868850191526375  1.0000
  H   H24       1.0  0.4755594269748077  0.26493865866907385  0.6179295488329555  1.0000
  C   C37       1.0  0.5629941333837819  0.38894221746371943  0.413148503738338  1.0000
  C   C38       1.0  0.5530485846886377  0.3803259170119733  0.45686917153075457  1.0000
  C   C39       1.0  0.5744030980157891  0.4025536892733191  0.49090443627127595  1.0000
  C   C40       1.0  0.6056307224983382  0.43346118789035126  0.48117271708655523  1.0000
  C   C41       1.0  0.6150036785616138  0.4424728738120669  0.4374676692921006  1.0000
  C   C42       1.0  0.5939098022544842  0.4201856418570633  0.40357750440730455  1.0000
  H   H25       1.0  0.5287643267315341  0.3565463635380585  0.4643708750963523  1.0000
  H   H26       1.0  0.5666392265451032  0.39593457392332265  0.5246243810009267  1.0000
  H   H27       1.0  0.6386377223253097  0.46674721060241364  0.4296643408059544  1.0000
  H   H28       1.0  0.6016799305988959  0.4272606184451212  0.3700314651432053  1.0000
  C   C43       1.0  0.5093433993381743  0.7292060250416905  0.16326290237719362  1.0000
  C   C44       1.0  0.4773640687131933  0.7265494302594676  0.1488157487164073  1.0000
  C   C45       1.0  0.47591568840922244  0.756586366191735  0.13475163526797818  1.0000
  C   C46       1.0  0.5064053469529559  0.7896349558529039  0.13582358512131598  1.0000
  C   C47       1.0  0.5385171482446514  0.7923263304933209  0.14980798601584386  1.0000
  C   C48       1.0  0.5399605168137647  0.7622087089289443  0.1635420451269956  1.0000
  H   H29       1.0  0.45374204323408196  0.7014762647171257  0.14857184649415142  1.0000
  H   H30       1.0  0.4512221029490212  0.7541339249772102  0.12318551903154566  1.0000
  H   H31       1.0  0.5622643475862474  0.8177864458017537  0.15052622235122085  1.0000
  H   H32       1.0  0.5648539342360802  0.7645314662867985  0.17458647905665137  1.0000
  C   C49       1.0  0.4612394033143206  0.501024987700537  0.23414402472449794  1.0000
  C   C50       1.0  0.47184653115206027  0.48313071792106743  0.2634853764674893  1.0000
  C   C51       1.0  0.4874492452866508  0.4628624467154592  0.24826392720745868  1.0000
  C   C52       1.0  0.4919952032946344  0.45976291049286  0.20339701572645655  1.0000
  C   C53       1.0  0.4815958973231736  0.47780672555079495  0.1740670287707294  1.0000
  C   C54       1.0  0.46658272750951624  0.49861220954563734  0.18935001211803512  1.0000
  H   H33       1.0  0.4677051231099859  0.48471520642140686  0.29818230538361895  1.0000
  H   H34       1.0  0.4950189950489158  0.4488563813065537  0.27120042868753486  1.0000
  H   H35       1.0  0.48501959429172586  0.47561975818230884  0.1393049573201168  1.0000
  H   H36       1.0  0.4584887735792849  0.5121956186718835  0.16640605084124338  1.0000
  C   C55       1.0  0.4400809473186668  0.7050820059789765  0.6977496041304401  1.0000
  C   C56       1.0  0.44316066485740085  0.7387846310843745  0.6946862747003991  1.0000
  C   C57       1.0  0.4557283744423183  0.7582361826210258  0.6562020486971648  1.0000
  C   C58       1.0  0.4658528666670508  0.7442611683859628  0.6208584604039167  1.0000
  C   C59       1.0  0.46176564561826183  0.7101140998838033  0.6234204445780528  1.0000
  C   C60       1.0  0.4485337840902888  0.6903641213836782  0.6616953587255742  1.0000
  H   H37       1.0  0.4368725220269425  0.7503690790370959  0.7226432264083125  1.0000
  H   H38       1.0  0.4591960537837802  0.7847116460774097  0.6546169775177365  1.0000
  H   H39       1.0  0.46896177250819054  0.699103985775522  0.5956929623209497  1.0000
  H   H40       1.0  0.4451223488981768  0.6639615487735251  0.6635706646092341  1.0000
  C   C61       1.0  0.519512949674648  0.5506337232521656  0.7007018295956754  1.0000
  C   C62       1.0  0.5275264775442339  0.5458403981045546  0.7434872401280909  1.0000
  C   C63       1.0  0.5477642334139461  0.5287086069232738  0.7511143937475199  1.0000
  C   C64       1.0  0.5595414298047485  0.5154576281843187  0.7162117750049546  1.0000
  C   C65       1.0  0.5509886715036075  0.5196861246168112  0.6734492498814676  1.0000
  C   C66       1.0  0.5314307250180866  0.5375391990228878  0.6657746770233807  1.0000
  H   H41       1.0  0.5187286050391631  0.5559209569494419  0.7706868038746727  1.0000
  H   H42       1.0  0.554277188010473  0.5256716306546729  0.7843048481565722  1.0000
  H   H43       1.0  0.5599535836973792  0.5097663565758298  0.6462474484718329  1.0000
  H   H44       1.0  0.5254291040669173  0.5411190645304502  0.6325525041711816  1.0000
  C   C67       1.0  0.4452894605936458  0.5969026301121089  0.9473144495524961  1.0000
  C   C68       1.0  0.409865314796624  0.5891220808426024  0.9436254953815066  1.0000
  C   C69       1.0  0.3882553516546762  0.5803546330893257  0.9810144382107499  1.0000
  C   C70       1.0  0.4020805376921838  0.5797250601972365  0.022196929228606832  1.0000
  C   C71       1.0  0.43776624923505003  0.588662191640442  0.025973925585549784  1.0000
  C   C72       1.0  0.45924730292013066  0.5971004043578961  0.9886335871561174  1.0000
  H   H45       1.0  0.39908249556576514  0.5895694403615874  0.9120134970471561  1.0000
  H   H46       1.0  0.36078964278947445  0.5741038097729546  0.9781148762549065  1.0000
  H   H47       1.0  0.4487489670448464  0.5883932156886308  0.057482730524908154  1.0000
  H   H48       1.0  0.48670065259318557  0.6033102571520499  0.9917198726411627  1.0000
  C   C73       1.0  0.7210211864890769  0.3201089225137443  0.44619930021187243  1.0000
  C   C74       1.0  0.6876306567511286  0.29783090230771864  0.4642644027740862  1.0000
  C   C75       1.0  0.6839273841575261  0.2740573039015486  0.49737497942979914  1.0000
  C   C76       1.0  0.7137331782234291  0.2725068658319668  0.5126034430799474  1.0000
  C   C77       1.0  0.7471165655992238  0.29479945947106856  0.494513095594548  1.0000
  C   C78       1.0  0.7507760316507782  0.3184959173213529  0.461310461398165  1.0000
  H   H49       1.0  0.6645672282740203  0.2986860678099196  0.45210564926427  1.0000
  H   H50       1.0  0.6580954192659478  0.2567948312409445  0.5109469404693314  1.0000
  H   H51       1.0  0.7702466449695985  0.2936472510716199  0.5060497730036935  1.0000
  H   H52       1.0  0.776609956492375  0.33553025994998126  0.44752532863139766  1.0000
  C   C79       1.0  0.7040141224251117  0.5036145085014477  0.29659645397061446  1.0000
  C   C80       1.0  0.7044968064620087  0.47207935709348997  0.30466153892999914  1.0000
  C   C81       1.0  0.7360786903309776  0.4726700218329363  0.31728655720782906  1.0000
  C   C82       1.0  0.7674614399154074  0.5047709508092819  0.3216589590069332  1.0000
  C   C83       1.0  0.7668427962516428  0.5363430803250943  0.31429036495889207  1.0000
  C   C84       1.0  0.7352520033068412  0.5357750716123713  0.3017598768880415  1.0000
  H   H53       1.0  0.680616184031854  0.44720121624435205  0.30129396913726514  1.0000
  H   H54       1.0  0.7358534374169737  0.448251196656493  0.32400457651515585  1.0000
  H   H55       1.0  0.7909542764710732  0.561331923399395  0.3178693401869611  1.0000
  H   H56       1.0  0.735130550617967  0.5603364183475217  0.2958173620035468  1.0000
  C   C85       1.0  0.7519469056324248  0.454135806765999  0.8268034692034147  1.0000
  C   C86       1.0  0.7178955723073763  0.4503455597246138  0.8213873973031409  1.0000
  C   C87       1.0  0.7016477821810586  0.4424898838775893  0.7799485727918228  1.0000
  C   C88       1.0  0.7199164118975506  0.439628284766228  0.743562588341843  1.0000
  C   C89       1.0  0.753758214427206  0.4430388267609101  0.7491258010095864  1.0000
  C   C90       1.0  0.7696750503550805  0.45009169248733316  0.7906479159867412  1.0000
  H   H57       1.0  0.7038940610585412  0.45295351493133296  0.849465530800535  1.0000
  H   H58       1.0  0.674894155186249  0.4381653805614966  0.7761758545264521  1.0000
  H   H59       1.0  0.7679433208911857  0.4406451148659362  0.7210878011852089  1.0000
  H   H60       1.0  0.7960311565615821  0.4532466671893411  0.7944821573490719  1.0000
  C   C91       1.0  0.7453002413471237  0.29493505292538463  0.936730657083464  1.0000
  C   C92       1.0  0.75047951236078  0.30983820154829533  0.9787113465251653  1.0000
  C   C93       1.0  0.7268178927698643  0.29127321841625436  0.012411081178314687  1.0000
  C   C94       1.0  0.6974280438770273  0.2580410670740266  0.0041229032504193075  1.0000
  C   C95       1.0  0.6918053479504943  0.2433809643594781  0.9619352623596106  1.0000
  C   C96       1.0  0.7160186066209187  0.2615827722454155  0.9284527365530811  1.0000
  H   H61       1.0  0.7732417345055612  0.33526503945575237  0.9855527450615944  1.0000
  H   H62       1.0  0.7314600279232502  0.3027086843205671  0.044959442409646444  1.0000
  H   H63       1.0  0.6693831773504904  0.21758876793720808  0.9554351931383027  1.0000
  H   H64       1.0  0.7121437529379181  0.249579346005285  0.8962678880907055  1.0000
  C   C97       1.0  0.8478738650513001  0.43080899880824364  0.08586316765514705  1.0000
  C   C98       1.0  0.815630792362985  0.3996629678966605  0.08081944328382089  1.0000
  C   C99       1.0  0.7968269784781749  0.38100732259060044  0.11786774998555007  1.0000
  C   C100      1.0  0.8101377188229353  0.393456242446668  0.16005681822038456  1.0000
  C   C101      1.0  0.8426435841038982  0.4242710083892102  0.16493832499038233  1.0000
  C   C102      1.0  0.8613616786871422  0.4429351169606102  0.12796972608395632  1.0000
  H   H65       1.0  0.8051802864836783  0.38996966116395226  0.048425804731007153  1.0000
  H   H66       1.0  0.7718610333793977  0.3570450317551177  0.11366547450873121  1.0000
  H   H67       1.0  0.8534535694403478  0.43380842226015237  0.19717115557269188  1.0000
  H   H68       1.0  0.8864242501908048  0.46687601185616895  0.13205635525667014  1.0000
  C   C103      1.0  0.2747398407155626  0.7046006644274382  0.9309881871748762  1.0000
  C   C104      1.0  0.29560620641456026  0.7393053535005315  0.9467477210846968  1.0000
  C   C105      1.0  0.3158889953776604  0.7460436216592  0.985074169109936  1.0000
  C   C106      1.0  0.31528344511763234  0.7180164916568007  0.007915914693572113  1.0000
  C   C107      1.0  0.29420624120688316  0.6832663863127904  0.9923368991260643  1.0000
  C   C108      1.0  0.2739688452980656  0.6765334752465728  0.9539516100272281  1.0000
  H   H69       1.0  0.2962887666853024  0.761126879141465  0.9290802504188779  1.0000
  H   H70       1.0  0.3320414223912763  0.7728914353091146  0.9968293417910131  1.0000
  H   H71       1.0  0.2934584025348768  0.6614416957893883  0.010044752087685849  1.0000
  H   H72       1.0  0.2578910754859527  0.6497031441946453  0.9421086622487855  1.0000
  C   C109      1.0  0.2385029039280485  0.5181352648482292  0.8254213126898313  1.0000
  C   C110      1.0  0.27003359460497267  0.5489111192779282  0.815683779977463  1.0000
  C   C111      1.0  0.2995713672768987  0.5465011496507387  0.7995561451297097  1.0000
  C   C112      1.0  0.29726271270126414  0.5132967236052611  0.7926446711046585  1.0000
  C   C113      1.0  0.26572274428481574  0.48274896050002297  0.802345947328122  1.0000
  C   C114      1.0  0.2366569389022366  0.48517874558129687  0.8190934799509733  1.0000
  H   H73       1.0  0.2718058335777684  0.5744883107734838  0.821131585975806  1.0000
  H   H74       1.0  0.32385525144495697  0.5702415624726499  0.7920330153142946  1.0000
  H   H75       1.0  0.26373141763555247  0.45703671557171693  0.7970195148435246  1.0000
  H   H76       1.0  0.21238919282964547  0.4613426911473519  0.8266157090438129  1.0000
  C   C115      1.0  0.04260210574359925  0.5478043282565143  0.8619096313365553  1.0000
  C   C116      1.0  0.013365929724677646  0.5482769379783253  0.8821170947646058  1.0000
  C   C117      1.0  0.9787282572872901  0.5198830697771905  0.8764381705773363  1.0000
  C   C118      1.0  0.9730122903288954  0.4905852407463005  0.8506734891124715  1.0000
  C   C119      1.0  0.002235431432405788  0.49011179959977913  0.8305356810334408  1.0000
  C   C120      1.0  0.0368542667449827  0.5185049945342555  0.8361449484762987  1.0000
  H   H77       1.0  0.01747395446129892  0.570943000229782  0.9017954464647409  1.0000
  H   H78       1.0  0.9563985090800836  0.5208533967343796  0.8914396834731139  1.0000
  H   H79       1.0  0.998082498538145  0.46761024921427446  0.8104351294603357  1.0000
  H   H80       1.0  0.05904305339338487  0.5177528767290847  0.8203742803992248  1.0000
  C   C121      1.0  0.2462563808025601  0.5495114353442333  0.3132077788169904  1.0000
  C   C122      1.0  0.2661651341739396  0.5823387443729051  0.3339197645773217  1.0000
  C   C123      1.0  0.30138679191991075  0.6045551845381671  0.3213754963235949  1.0000
  C   C124      1.0  0.31671799691046054  0.5945768446102432  0.2872802082230876  1.0000
  C   C125      1.0  0.2968065006649037  0.5619306040529108  0.26610701275785925  1.0000
  C   C126      1.0  0.2617233487680329  0.5393076539535137  0.279343582106893  1.0000
  H   H81       1.0  0.2545966381374655  0.5904325866513284  0.360100010495183  1.0000
  H   H82       1.0  0.31681254524956437  0.6293781580414428  0.33856709540022745  1.0000
  H   H83       1.0  0.30825211061146707  0.5542414946759769  0.23933925897221986  1.0000
  H   H84       1.0  0.246304211890233  0.5140465096397824  0.26297927271488597  1.0000
  C   C127      1.0  0.2608794141119464  0.696067063702103  0.4338074254187541  1.0000
  C   C128      1.0  0.2921377274075589  0.7277718805452589  0.42628013836349377  1.0000
  C   C129      1.0  0.3154387127604779  0.7459261921912421  0.460922669458182  1.0000
  C   C130      1.0  0.30698555264926825  0.732906898242942  0.5033640387524059  1.0000
  C   C131      1.0  0.2757047168698505  0.7012655139001804  0.5109028186253158  1.0000
  C   C132      1.0  0.252887665700754  0.6826112340221637  0.47607591028203317  1.0000
  H   H85       1.0  0.29821872139845174  0.7385193480789249  0.3937596251913487  1.0000
  H   H86       1.0  0.3394059016032599  0.7704673680993702  0.4550451368239189  1.0000
  H   H87       1.0  0.268995442686575  0.6912083903734947  0.5437185907376179  1.0000
  H   H88       1.0  0.22871870748546588  0.6582876394943747  0.482076765828348  1.0000
  C   C133      1.0  0.019642854906139255  0.5181916133684199  0.3557034300097743  1.0000
  C   C134      1.0  0.014886211667302241  0.48499120505221516  0.36718366973637956  1.0000
  C   C135      1.0  0.9804269398966179  0.45634620184899755  0.37196843346702213  1.0000
  C   C136      1.0  0.9503612427376922  0.4603027884635684  0.3642171752740197  1.0000
  C   C137      1.0  0.9551090334526361  0.49323163487017374  0.35138163647987797  1.0000
  C   C138      1.0  0.9895901858372879  0.5220244709832288  0.34728027502845604  1.0000
  H   H89       1.0  0.03775070400014607  0.48139780000216725  0.3725754409998736  1.0000
  H   H90       1.0  0.9770026483842382  0.4308786932056935  0.3814876461778157  1.0000
  H   H91       1.0  0.9322256993839814  0.49666297053385966  0.3453289226981661  1.0000
  H   H92       1.0  0.9929814788055368  0.5475465055475683  0.33808760986178343  1.0000
  C   C139      1.0  0.1527498851667055  0.5611528900546024  0.5738668959753689  1.0000
  C   C140      1.0  0.18199401154964623  0.5946633806488213  0.5688114152765918  1.0000
  C   C141      1.0  0.1978319492520998  0.616297764949191  0.605692549984622  1.0000
  C   C142      1.0  0.18429409915515116  0.60465361382383  0.6476473479876036  1.0000
  C   C143      1.0  0.15433009528472158  0.5715869651683201  0.652536269237579  1.0000
  C   C144      1.0  0.13882839371726222  0.5497473916551769  0.6157264286069458  1.0000
  H   H93       1.0  0.19279415956729357  0.6036697780331785  0.5365872553234274  1.0000
  H   H94       1.0  0.22087368407217092  0.6419627183334145  0.6016584117209466  1.0000
  H   H95       1.0  0.1433802768958846  0.562624291311898  0.6846690573085696  1.0000
  H   H96       1.0  0.11605482310225813  0.5238953270903223  0.6196976709685108  1.0000
  N   N1        1.0  0.5314958738136415  0.923095514092431  0.03927864270438586  1.0000
  C   C145      1.0  0.5226907723727046  0.9468332304723953  0.01417926011010584  1.0000
  C   C146      1.0  0.5143883346988664  0.9168093410435465  0.08259620372176912  1.0000
  C   C147      1.0  0.5703303860890857  0.9396007686403013  0.045054332654069995  1.0000
  C   C148      1.0  0.5184304761950835  0.8890363714153919  0.015502803591066927  1.0000
  H   H97       1.0  0.5311703538000073  0.9724310659274836  0.03182043521100253  1.0000
  H   H98       1.0  0.493554847753095  0.9347488374368504  0.00856420077535791  1.0000
  H   H99       1.0  0.5356955912607332  0.9528149516443877  0.9815755721166188  1.0000
  H   H100      1.0  0.48508633870353696  0.904695071086635  0.07933605476642613  1.0000
  H   H101      1.0  0.5200183629913326  0.8986541469167318  0.10233802843636775  1.0000
  H   H102      1.0  0.5238822593783891  0.94183339828634  0.1017563660557379  1.0000
  H   H103      1.0  0.5776933426397204  0.9223237123467967  0.06414462608717941  1.0000
  H   H104      1.0  0.5809371091478579  0.96538688352602  0.06289413528258159  1.0000
  H   H105      1.0  0.5841849232266557  0.9446591534939716  0.013014404588334472  1.0000
  H   H106      1.0  0.5234950198635789  0.8700163800915155  0.0343584625585347  1.0000
  H   H107      1.0  0.5313929760115684  0.8925395433948687  0.9830435327882765  1.0000
  H   H108      1.0  0.4893070089227013  0.8764311853139608  0.009754023158769831  1.0000
  N   N2        1.0  0.347330640231902  0.510981651306269  0.3280237259815011  1.0000
  C   C149      1.0  0.3738466920152206  0.5481100940034194  0.3199148874467079  1.0000
  C   C150      1.0  0.3334693167708374  0.49236148400147534  0.2858066768729455  1.0000
  C   C151      1.0  0.3178543895682035  0.5099192120036061  0.3542290307341914  1.0000
  C   C152      1.0  0.3643436458858675  0.4936337342228455  0.3519394799383991  1.0000
  H   H109      1.0  0.38427455689443  0.563364117983928  0.35094286934984853  1.0000
  H   H110      1.0  0.3622659559788494  0.5617210591246103  0.3007598988855091  1.0000
  H   H111      1.0  0.39685254269311815  0.5498743207749598  0.301143766532621  1.0000
  H   H112      1.0  0.3135100181740163  0.4641802935863537  0.29058691410198095  1.0000
  H   H113      1.0  0.32036057371307525  0.5047006620904635  0.2668937725083752  1.0000
  H   H114      1.0  0.35517606562265264  0.4929501616464111  0.2651286566238313  1.0000
  H   H115      1.0  0.2969809280306439  0.4823019595049334  0.3604398488167484  1.0000
  H   H116      1.0  0.304836910361738  0.5232861116498615  0.3372607921569763  1.0000
  H   H117      1.0  0.32729517336542935  0.5235435853942123  0.38643599181001165  1.0000
  H   H118      1.0  0.3451642175903035  0.46552352282950993  0.3586743176590174  1.0000
  H   H119      1.0  0.3754335121845754  0.507185247844503  0.3837961785927654  1.0000
  H   H120      1.0  0.38667343538133625  0.49405700970046723  0.33272291319378594  1.0000
  N   N3        1.0  0.9677546463683969  0.46509861020251525  0.9950683934911898  1.0000
  C   C153      1.0  0.0023041448536480647  0.48357298603282006  0.017851013839871088  1.0000
  C   C154      1.0  0.9543944339733613  0.4902715383743306  0.9872353951536523  1.0000
  C   C155      1.0  0.9421450251935714  0.43597149755001946  0.02248243186681309  1.0000
  C   C156      1.0  0.9722371641323867  0.45071696927472527  0.9527519563345985  1.0000
  H   H121      1.0  0.013131028255006852  0.4653195834544568  0.024374934358713407  1.0000
  H   H122      1.0  0.9998550289424183  0.4948837537216108  0.04982198088694001  1.0000
  H   H123      1.0  0.022271682215064297  0.505677632823133  0.9979614352010027  1.0000
  H   H124      1.0  0.928967758951761  0.47749368720263463  0.968693629666577  1.0000
  H   H125      1.0  0.9491445985987487  0.500490068494441  0.01847584060893448  1.0000
  H   H126      1.0  0.9736107371986359  0.5132942494240832  0.9681131026068628  1.0000
  H   H127      1.0  0.9511983357795607  0.4163518676897757  0.029133007648945553  1.0000
  H   H128      1.0  0.9157004180878533  0.42164334519384433  0.006484018945538628  1.0000
  H   H129      1.0  0.9378606634492276  0.44598185963291287  0.054496490820396426  1.0000
  H   H130      1.0  0.946948422380146  0.43761592852183484  0.9338769347549755  1.0000
  H   H131      1.0  0.9813322029812684  0.4308627287759562  0.957270910400168  1.0000
  H   H132      1.0  0.9920603315274354  0.47193863820098525  0.9317296118132534  1.0000
  N   N4        1.0  0.41063919778387564  0.686942474999117  0.019923382407758483  1.0000
  C   C157      1.0  0.4265773007031618  0.683934554628936  0.9782520622422143  1.0000
  C   C158      1.0  0.4250297925014691  0.6754596722339204  0.05618565465974035  1.0000
  C   C159      1.0  0.37171683425557067  0.664253469444173  0.017908460332052734  1.0000
  C   C160      1.0  0.4191930777804026  0.7240837371424076  0.02756763783734062  1.0000
  H   H133      1.0  0.4559499491252382  0.7005912347299588  0.9787065759644307  1.0000
  H   H134      1.0  0.41614945847271434  0.6922462027199976  0.9501268335097746  1.0000
  H   H135      1.0  0.42076162668227324  0.65626979740062  0.9716835774895388  1.0000
  H   H136      1.0  0.4130987076349825  0.677079785767427  0.0878652934328743  1.0000
  H   H137      1.0  0.41914660155273065  0.6475668441686494  0.0516198698967385  1.0000
  H   H138      1.0  0.4543375246756611  0.6920307015847758  0.05907634159539277  1.0000
  H   H139      1.0  0.3598406827616391  0.6720924765933703  0.9908678934411602  1.0000
  H   H140      1.0  0.35882514068298127  0.6662561403439501  0.04871631265763088  1.0000
  H   H141      1.0  0.3642879721734616  0.635928757432602  0.012874936663808123  1.0000
  H   H142      1.0  0.4483394877018657  0.7421063188630045  0.028490569598519366  1.0000
  H   H143      1.0  0.40822619873099697  0.7273134902108562  0.059296698913815504  1.0000
  H   H144      1.0  0.40757525215884205  0.7333063912867066  0.0016956201084963318  1.0000
  N   N5        1.0  0.6916901755761664  0.5427585163777043  0.7616356974442798  1.0000
  C   C161      1.0  0.6891355053195768  0.555152664291496  0.7177060914084333  1.0000
  C   C162      1.0  0.6754498069925852  0.5038705759076213  0.760852961693251  1.0000
  C   C163      1.0  0.672731101497819  0.5536381045060904  0.7935325016642331  1.0000
  C   C164      1.0  0.7293787716803958  0.5581544553688144  0.7744639221897872  1.0000
  H   H145      1.0  0.7009303393396313  0.5843902714088844  0.717089258986338  1.0000
  H   H146      1.0  0.6609537967259964  0.5437281668136572  0.7070060303057059  1.0000
  H   H147      1.0  0.7030634982090873  0.5473086381405056  0.6927591897007838  1.0000
  H   H148      1.0  0.6469945448004027  0.4911708141379026  0.751422604626043  1.0000
  H   H149      1.0  0.6889748102443986  0.49463566212886567  0.73697117610805  1.0000
  H   H150      1.0  0.6767918352064995  0.4936774191822074  0.7935536556195214  1.0000
  H   H151      1.0  0.6441651973061431  0.5422844005667822  0.7846304614578764  1.0000
  H   H152      1.0  0.6841816213698884  0.582851514132465  0.7949990031268257  1.0000
  H   H153      1.0  0.6738189628426757  0.5444575167544382  0.826993793611248  1.0000
  H   H154      1.0  0.7442480283228662  0.5501169918744159  0.7510964482793163  1.0000
  H   H155      1.0  0.7322056986694317  0.5491175818673565  0.8074022749960434  1.0000
  H   H156      1.0  0.742692632465666  0.5875258235502299  0.7754045120967837  1.0000
  N   N6        1.0  0.3322290265819571  0.7153688350968234  0.6683591015854128  1.0000
  C   C165      1.0  0.3523081324468118  0.7122429372116643  0.6307200208793655  1.0000
  C   C166      1.0  0.35643945666295224  0.7311886009022496  0.706051264272426  1.0000
  C   C167      1.0  0.30347097487264646  0.679974629376267  0.6800119519560207  1.0000
  C   C168      1.0  0.3166715489907529  0.7380748674130739  0.6566701092809418  1.0000
  H   H157      1.0  0.33482648145737837  0.7001256044742664  0.6017051760682774  1.0000
  H   H158      1.0  0.36516583256928487  0.6959902592633965  0.6386019450299206  1.0000
  H   H159      1.0  0.373686307277587  0.738627871186259  0.6204162499600627  1.0000
  H   H160      1.0  0.36824143894900513  0.7144056250855311  0.7161295182040428  1.0000
  H   H161      1.0  0.3787504262279924  0.7577167377766904  0.6980067673199084  1.0000
  H   H162      1.0  0.3423553597516548  0.7344228637122493  0.7349274056519856  1.0000
  H   H163      1.0  0.2876640384025874  0.6814358568732076  0.7081871989616533  1.0000
  H   H164      1.0  0.31419682629729956  0.6621344081292717  0.6891226262629586  1.0000
  H   H165      1.0  0.2845615372135227  0.6674234390602385  0.6523102481002692  1.0000
  H   H166      1.0  0.3374787203654561  0.7647749220472987  0.6464773209870314  1.0000
  H   H167      1.0  0.3017763886649398  0.7415039393679773  0.6844623510371897  1.0000
  H   H168      1.0  0.29780989686825843  0.7265565828672609  0.6287277883667355  1.0000
  N   N7        1.0  0.4483854956854941  0.7425733078423767  0.27867444542506187  1.0000
  C   C169      1.0  0.46980833793832105  0.7545780766888744  0.31918207210021715  1.0000
  C   C170      1.0  0.4472519454993255  0.7096886567877461  0.2621410824218314  1.0000
  C   C171      1.0  0.46452570038659613  0.7702563028797382  0.24529383253027204  1.0000
  C   C172      1.0  0.4119317276601198  0.7358122247450998  0.2880791736315385  1.0000
  H   H169      1.0  0.4584536311511673  0.7343191741547151  0.34512036070280533  1.0000
  H   H170      1.0  0.47101012395721337  0.7792873904367298  0.33266821010286934  1.0000
  H   H171      1.0  0.49755524780459254  0.7601330480183146  0.3132243480304093  1.0000
  H   H172      1.0  0.4311113072653642  0.6998328176848242  0.23173024571759357  1.0000
  H   H173      1.0  0.4742846443187945  0.7137458366235994  0.25436269852609733  1.0000
  H   H174      1.0  0.43523123776941086  0.6881304245274357  0.28644045870006796  1.0000
  H   H175      1.0  0.46719546490052305  0.7958503121850693  0.2572354124861401  1.0000
  H   H176      1.0  0.4481953971947875  0.7628404831774912  0.2150134115184368  1.0000
  H   H177      1.0  0.4915008659309743  0.7749641476036362  0.2359522162150382  1.0000
  H   H178      1.0  0.39877113571425626  0.7144995450652796  0.3125031468405695  1.0000
  H   H179      1.0  0.39523168618758725  0.7274589903965488  0.25802362627762576  1.0000
  H   H180      1.0  0.4118974748764075  0.7599120112009685  0.30144816551075687  1.0000
  N   N8        1.0  0.23016481680035916  0.5399081798687055  0.686598108274873  1.0000
  C   C173      1.0  0.20063772147306047  0.5350962546192328  0.7155832650368734  1.0000
  C   C174      1.0  0.2196748464770244  0.5390249830191731  0.6404491684790556  1.0000
  C   C175      1.0  0.23885277416894737  0.5112113387898031  0.6938727412369197  1.0000
  C   C176      1.0  0.26147758036198887  0.5743913055408341  0.6966436527213303  1.0000
  H   H181      1.0  0.20730518449124227  0.5346641360294406  0.7505938866756686  1.0000
  H   H182      1.0  0.17604899438427493  0.509935215267726  0.7082759748333932  1.0000
  H   H183      1.0  0.19434669154075437  0.5570296129797682  0.7121224142775342  1.0000
  H   H184      1.0  0.24084019581413477  0.5412961454740234  0.6175911314230601  1.0000
  H   H185      1.0  0.19505471590238357  0.5141229467838703  0.6321607665400538  1.0000
  H   H186      1.0  0.21436111605138855  0.5611895252975941  0.6333730793686061  1.0000
  H   H187      1.0  0.2615247932999585  0.514279185920928  0.6732539607373594  1.0000
  H   H188      1.0  0.21580586075310698  0.48485849025313266  0.6863846110440746  1.0000
  H   H189      1.0  0.24640372850144968  0.510890692730439  0.7284691602651877  1.0000
  H   H190      1.0  0.25551381649050514  0.5965010882461778  0.6917081204009569  1.0000
  H   H191      1.0  0.28441247317323365  0.5790261778069854  0.6755407281887862  1.0000
  H   H192      1.0  0.26997446944413833  0.5759668369848845  0.7312743792052118  1.0000
  N   N9        1.0  0.705732682188668  0.33824865744177907  0.8262617632240108  1.0000
  C   C177      1.0  0.738818575221496  0.35014743171735  0.8009818275372057  1.0000
  C   C178      1.0  0.6813025638126463  0.3469230415648156  0.8022449964087381  1.0000
  C   C179      1.0  0.7140291928332151  0.3563762420109507  0.8694186277055383  1.0000
  C   C180      1.0  0.6888608495498214  0.2996325241407426  0.8323311034584663  1.0000
  H   H193      1.0  0.7577953875432676  0.3437949145526382  0.8180273962203889  1.0000
  H   H194      1.0  0.7525249459121589  0.3792338329747796  0.7963748683128492  1.0000
  H   H195      1.0  0.733577376489259  0.33738636754609835  0.7680507676484392  1.0000
  H   H196      1.0  0.6746081098480651  0.3339176465718452  0.769386557919504  1.0000
  H   H197      1.0  0.6560968263999826  0.3384985843930868  0.8204214918160587  1.0000
  H   H198      1.0  0.6934167705543263  0.3758435738968232  0.7970908887532381  1.0000
  H   H199      1.0  0.6897350949306054  0.3483078496971677  0.8893855779428449  1.0000
  H   H200      1.0  0.7273270738408222  0.3856077024678552  0.8661131258075678  1.0000
  H   H201      1.0  0.7321838555739698  0.3502239722491079  0.8886115175317008  1.0000
  H   H202      1.0  0.6814544610899799  0.28497338091899177  0.8005116974673765  1.0000
  H   H203      1.0  0.6644542401758882  0.28978330724099277  0.8525933438792518  1.0000
  H   H204      1.0  0.7071132528445445  0.2922504844318964  0.8492376281912956  1.0000
  N   N10       1.0  0.5206077206077476  0.19163581002537214  0.730122347908434  1.0000
  C   C181      1.0  0.5247554378840857  0.19973341380978196  0.777545720320777  1.0000
  C   C182      1.0  0.49785619845103507  0.20480849109972862  0.7108200574584426  1.0000
  C   C183      1.0  0.5039833989722544  0.15300434354357487  0.7228584352884203  1.0000
  C   C184      1.0  0.5558120075165534  0.2089760041821244  0.7090177179359499  1.0000
  H   H205      1.0  0.5426423568344798  0.19108368606109477  0.7928928639011684  1.0000
  H   H206      1.0  0.4988900983308214  0.18606293776096197  0.7948955746345436  1.0000
  H   H207      1.0  0.5362998457992059  0.22858809881433867  0.7840916767489147  1.0000
  H   H208      1.0  0.510454029115505  0.23416758174842944  0.7130035558434128  1.0000
  H   H209      1.0  0.49262816420022987  0.1972507856999348  0.6756165121694899  1.0000
  H   H210      1.0  0.47168487999941544  0.1937068102016146  0.7274322892348586  1.0000
  H   H211      1.0  0.47724182468653287  0.139012902977016  0.7380507937305801  1.0000
  H   H212      1.0  0.5202225877342017  0.14201146285311275  0.737109499010293  1.0000
  H   H213      1.0  0.5009138327759933  0.14609345466402462  0.6872975510477709  1.0000
  H   H214      1.0  0.5688598234612479  0.23821608079017484  0.7128514616835576  1.0000
  H   H215      1.0  0.5536670432364527  0.2027749712478085  0.6734162292893087  1.0000
  H   H216      1.0  0.573897440329944  0.20007791285279586  0.7231151915015681  1.0000
  N   N11       1.0  0.5950334190806482  0.5461332203449313  0.25577483900580633  1.0000
  C   C185      1.0  0.59245120545612  0.519463050114396  0.2230864373679829  1.0000
  C   C186      1.0  0.6318289804667606  0.5755814449285145  0.25703723719704735  1.0000
  C   C187      1.0  0.5854026717136499  0.5298175814609497  0.29933399664603155  1.0000
  C   C188      1.0  0.5705005635088005  0.5595319346586456  0.24364796797817065  1.0000
  H   H217      1.0  0.598483326152919  0.5304363190780598  0.18956885788145897  1.0000
  H   H218      1.0  0.5653965991682112  0.49634027216813176  0.22230548344566517  1.0000
  H   H219      1.0  0.61121762037289  0.5094057627555747  0.23058558228682846  1.0000
  H   H220      1.0  0.650866249622147  0.5661287922705462  0.26624213736327496  1.0000
  H   H221      1.0  0.6401353743440641  0.5883476813516737  0.2246190196247937  1.0000
  H   H222      1.0  0.634834073546588  0.5962585063732313  0.28137022383953114  1.0000
  H   H223      1.0  0.5871342975583412  0.5491738959234569  0.32490650641045654  1.0000
  H   H224      1.0  0.6034086967276671  0.5193484773887033  0.30938914725971284  1.0000
  H   H225      1.0  0.557774225243214  0.5074247915422759  0.2996002451448346  1.0000
  H   H226      1.0  0.5425774480269452  0.5377968106614271  0.24187602484156845  1.0000
  H   H227      1.0  0.5770713044003445  0.5722165982102501  0.2110530983519378  1.0000
  H   H228      1.0  0.5712920800631069  0.5793789218375816  0.2678779289677494  1.0000
  N   N12       1.0  0.5874486310062013  0.3085442089852434  0.4938714049720466  1.0000
  C   C189      1.0  0.5569026401712429  0.31013562383478627  0.5138827546125405  1.0000
  C   C190      1.0  0.5976121728712743  0.32903198124202415  0.45307216943912476  1.0000
  C   C191      1.0  0.5775021179525421  0.2713006266487797  0.48395892450534495  1.0000
  C   C192      1.0  0.6177158777820199  0.32371645926487547  0.5246890701678856  1.0000
  H   H229      1.0  0.5472403436168064  0.2933530007493397  0.5432449799946172  1.0000
  H   H230      1.0  0.5341851407845447  0.3008258145997988  0.490716650584219  1.0000
  H   H231      1.0  0.5639766647632428  0.3374443326403817  0.5245984107762625  1.0000
  H   H232      1.0  0.6201178253158104  0.32780961547838794  0.4365417388417466  1.0000
  H   H233      1.0  0.5750900013215414  0.3189636755115231  0.42940966501365846  1.0000
  H   H234      1.0  0.6057320813851782  0.35732857587002914  0.45962152291774633  1.0000
  H   H235      1.0  0.5998198984774435  0.2689184462804157  0.46876889338834005  1.0000
  H   H236      1.0  0.5545163266419498  0.2589504321597704  0.46111130459062544  1.0000
  H   H237      1.0  0.5698092039815715  0.25511852895390014  0.5141219785447283  1.0000
  H   H238      1.0  0.6412763576798669  0.32293716593316907  0.5107651824631871  1.0000
  H   H239      1.0  0.6109523960214661  0.30887749099361217  0.5557872680885244  1.0000
  H   H240      1.0  0.6256952664608328  0.35172024222268883  0.5331763695955671  1.0000
  N   N13       1.0  0.5019427173240465  0.3481610008856155  0.10216554714833284  1.0000
  C   C193      1.0  0.5010397265961686  0.31937001140922505  0.07449943541148557  1.0000
  C   C194      1.0  0.48828172308452156  0.36812800260055795  0.07723904905013881  1.0000
  C   C195      1.0  0.5388498436365646  0.37226298584124573  0.11582624900594547  1.0000
  C   C196      1.0  0.47969800194426737  0.33305372167658437  0.1413081185929345  1.0000
  H   H241      1.0  0.5117342938555632  0.3042005947244013  0.09227256165340705  1.0000
  H   H242      1.0  0.5173749799526789  0.3298139577406809  0.04451748658658472  1.0000
  H   H243      1.0  0.4735289514934146  0.30030174112008784  0.06405724391206256  1.0000
  H   H244      1.0  0.48851511642374373  0.38991913853983834  0.09756906396153928  1.0000
  H   H245      1.0  0.5046906070724968  0.38032263124010524  0.04775908975168659  1.0000
  H   H246      1.0  0.46047881999121987  0.3508117628574898  0.06625437564825876  1.0000
  H   H247      1.0  0.5405780455482525  0.39483340861899374  0.1356405455541272  1.0000
  H   H248      1.0  0.5567589371635566  0.38339709958571927  0.08725753726998257  1.0000
  H   H249      1.0  0.5496459878266724  0.3584487999229086  0.13602761036605862  1.0000
  H   H250      1.0  0.4801775863340542  0.3542023454305329  0.16313755986645037  1.0000
  H   H251      1.0  0.48910708596479535  0.3176199488844193  0.16080910251895944  1.0000
  H   H252      1.0  0.4515441991358942  0.31502594149236973  0.1323364500039053  1.0000
  N   N14       1.0  0.28699524628833656  0.6932497232766347  0.2742945358041197  1.0000
  C   C197      1.0  0.3051770919785187  0.6998371147498468  0.2315815759455516  1.0000
  C   C198      1.0  0.2578739159289997  0.6563493521650149  0.27543244541043865  1.0000
  C   C199      1.0  0.27244326071536407  0.7177894098594375  0.28057838535198293  1.0000
  C   C200      1.0  0.312599889556514  0.6990994751647868  0.30964099098568765  1.0000
  H   H253      1.0  0.28669717072111417  0.6960395870508473  0.20418505877860146  1.0000
  H   H254      1.0  0.31629851600252656  0.6816167100723408  0.22561889671398808  1.0000
  H   H255      1.0  0.32739896323179524  0.727411477904584  0.22971382549487715  1.0000
  H   H256      1.0  0.24385784564741914  0.6502885917356269  0.30744840524401645  1.0000
  H   H257      1.0  0.23767618948395436  0.6510550008892974  0.2497235023502437  1.0000
  H   H258      1.0  0.26787865809595707  0.6371192364433379  0.27049025158337275  1.0000
  H   H259      1.0  0.2589693741659923  0.7138813839039754  0.31278955508933665  1.0000
  H   H260      1.0  0.25264472684631095  0.7138811743875167  0.25489782340700406  1.0000
  H   H261      1.0  0.29372957944527134  0.7458830738554869  0.27944446652708527  1.0000
  H   H262      1.0  0.3252572367903029  0.6821495654658799  0.3048684304745284  1.0000
  H   H263      1.0  0.29928104149394535  0.692678740391036  0.3421468692002081  1.0000
  H   H264      1.0  0.33392209673608186  0.7271430758262247  0.311160614576538  1.0000
  N   N15       1.0  0.6847184843989287  0.2891764665076938  0.17069389065666063  1.0000
  C   C201      1.0  0.6875050923284871  0.2938642744100291  0.21874818971246102  1.0000
  C   C202      1.0  0.7121446576341223  0.2804914377448175  0.1547611840917539  1.0000
  C   C203      1.0  0.6901237935180317  0.32222301968225053  0.15039424880806795  1.0000
  C   C204      1.0  0.6491412962364059  0.26020568569588665  0.1588427539959197  1.0000
  H   H265      1.0  0.6674897240086234  0.3008584775443345  0.23191109576313942  1.0000
  H   H266      1.0  0.7141776591597604  0.31535627818095063  0.2287996323673257  1.0000
  H   H267      1.0  0.6834433642569332  0.2693620715283243  0.23509478720677499  1.0000
  H   H268      1.0  0.7112026011673824  0.2772767005297545  0.11857232104500574  1.0000
  H   H269      1.0  0.7393211220253699  0.3016029096967493  0.16365840018344802  1.0000
  H   H270      1.0  0.7085652715231654  0.2553578321198925  0.16869577043692863  1.0000
  H   H271      1.0  0.6699088903654967  0.32962194961929175  0.1617607585171009  1.0000
  H   H272      1.0  0.6882226916241491  0.31947522061146383  0.11408363915981873  1.0000
  H   H273      1.0  0.7167571289255421  0.344564483572321  0.1585725248865677  1.0000
  H   H274      1.0  0.6277695721217752  0.2653424836698219  0.17163974342756252  1.0000
  H   H275      1.0  0.6446463427508851  0.2344708062672611  0.17184706133484617  1.0000
  H   H276      1.0  0.6456838239006117  0.25689073812439916  0.1227263885849187  1.0000
  N   N16       1.0  0.7190962116482295  0.4462497073033936  0.450688477223912  1.0000
  C   C205      1.0  0.6897628800401892  0.41902314410041613  0.42418831197380275  1.0000
  C   C206      1.0  0.7127403324615188  0.43687080196208455  0.49738489043998796  1.0000
  C   C207      1.0  0.7209569308333353  0.48094857161318894  0.4442866375803556  1.0000
  C   C208      1.0  0.7529044592849586  0.4480751519008349  0.43692533825701285  1.0000
  H   H277      1.0  0.6882214931340357  0.3926797003434277  0.4274930145316681  1.0000
  H   H278      1.0  0.6933825456880364  0.425527696013863  0.38884745552659933  1.0000
  H   H279      1.0  0.663791928972533  0.4165741670514972  0.4341507885961053  1.0000
  H   H280      1.0  0.7343083689619404  0.4569229611349809  0.5183876222934025  1.0000
  H   H281      1.0  0.687401623627753  0.43531303979965924  0.5088843851202306  1.0000
  H   H282      1.0  0.7113578169245202  0.41088040395630204  0.5033828939490569  1.0000
  H   H283      1.0  0.7246521776479157  0.48840753036681395  0.4091914667674365  1.0000
  H   H284      1.0  0.7435075199831173  0.5022694190158679  0.4627598720933552  1.0000
  H   H285      1.0  0.6963344563270155  0.4808585976920647  0.4558522831371197  1.0000
  H   H286      1.0  0.7757831632440487  0.4684681791591855  0.45593230506795235  1.0000
  H   H287      1.0  0.7584801737972323  0.4549160316306775  0.4018073640959722  1.0000
  H   H288      1.0  0.7524680966625263  0.42233158139275895  0.44141402177165384  1.0000
  N   N17       1.0  0.4552794549562623  0.08506248047802883  0.13485555330557583  1.0000
  C   C209      1.0  0.4451054380182732  0.10922919909951916  0.11320520670988192  1.0000
  C   C210      1.0  0.4350491745976502  0.0722504413457298  0.17586401806996446  1.0000
  C   C211      1.0  0.4936168740656849  0.10413018453123672  0.1449043930854595  1.0000
  C   C212      1.0  0.44745365681935695  0.05466876934088767  0.10549273658300802  1.0000
  H   H289      1.0  0.4598962312460994  0.11938208807130299  0.0821189028935738  1.0000
  H   H290      1.0  0.4512443694805828  0.13282319979193694  0.1341300758144711  1.0000
  H   H291      1.0  0.41633237077135204  0.09589938153733031  0.10520910789152037  1.0000
  H   H292      1.0  0.44036593464865637  0.09456681199315277  0.19872576108149442  1.0000
  H   H293      1.0  0.4059861539022254  0.057564127666718874  0.16946377206947336  1.0000
  H   H294      1.0  0.4422883423075923  0.05405428075089159  0.19301211970599075  1.0000
  H   H295      1.0  0.5095359388283398  0.11368190576810268  0.11460154242173236  1.0000
  H   H296      1.0  0.502436265604065  0.08677340199917913  0.16113445587144717  1.0000
  H   H297      1.0  0.5008135350712277  0.12769012677883157  0.16630258240199844  1.0000
  H   H298      1.0  0.4544723153000204  0.035716974316604304  0.12103683119870107  1.0000
  H   H299      1.0  0.46296206630525294  0.06333307512852496  0.07462798590124477  1.0000
  H   H300      1.0  0.41889125404111033  0.03988530887729616  0.09644035512460034  1.0000
  N   N18       1.0  0.15670759290164715  0.6819941396474349  0.9418047316973525  1.0000
  C   C213      1.0  0.18568099332070007  0.7145787305370751  0.9614109132566121  1.0000
  C   C214      1.0  0.12239540600466779  0.6746130457118042  0.9613848848389767  1.0000
  C   C215      1.0  0.16327622276859552  0.6520476114435606  0.9500660825336168  1.0000
  C   C216      1.0  0.15542682501821603  0.6865461924377622  0.8941873530192689  1.0000
  H   H301      1.0  0.21186331300298003  0.7206242431595732  0.9470380811559166  1.0000
  H   H302      1.0  0.18767307619335397  0.7120443380506423  0.9972931387492312  1.0000
  H   H303      1.0  0.18177297884220806  0.7378306943540556  0.9556924234528426  1.0000
  H   H304      1.0  0.10019781824149097  0.6501161192402992  0.9468385917532027  1.0000
  H   H305      1.0  0.12225606492537074  0.6707826509968637  0.9972866322270613  1.0000
  H   H306      1.0  0.11647161209875549  0.6966189496435772  0.9557594799732284  1.0000
  H   H307      1.0  0.1421036406173725  0.6270577869185239  0.9352915357643091  1.0000
  H   H308      1.0  0.16430345473649  0.6476947657085699  0.9856372937718015  1.0000
  H   H309      1.0  0.18903638780539078  0.6567924100788952  0.9359087215635195  1.0000
  H   H310      1.0  0.13446551762324246  0.6620841295980556  0.8780976655524334  1.0000
  H   H311      1.0  0.18112858461038991  0.6928411638537503  0.8784343268320254  1.0000
  H   H312      1.0  0.1498216840479982  0.708459433830586  0.8866342816457576  1.0000
  N   N19       1.0  0.031600945024489624  0.5233785767240197  0.4949086934846788  1.0000
  C   C217      1.0  0.05871569615854266  0.5592033847756075  0.5089253723006988  1.0000
  C   C218      1.0  0.01573398596889386  0.5013505720126271  0.5337392184934354  1.0000
  C   C219      1.0  0.048386179659305695  0.5072213862010191  0.4674284399799501  1.0000
  C   C220      1.0  0.0037491371360089953  0.5256947706837249  0.4693340680131066  1.0000
  H   H313      1.0  0.047335714198639245  0.5718571282402094  0.5309436410083904  1.0000
  H   H314      1.0  0.07036466981658807  0.5767262407235675  0.48032320612018187  1.0000
  H   H315      1.0  0.08097446317475399  0.5585797937567535  0.526661665930037  1.0000
  H   H316      1.0  0.002798132779863627  0.5127029113590017  0.5553626155286605  1.0000
  H   H317      1.0  0.9952889697148354  0.4740956865527547  0.5241419253996553  1.0000
  H   H318      1.0  0.03629700813500247  0.49917514573290084  0.5534587439773113  1.0000
  H   H319      1.0  0.028676878584507293  0.48039250647501225  0.4555874653587732  1.0000
  H   H320      1.0  0.06910066961960748  0.5043848900766341  0.4856474775263882  1.0000
  H   H321      1.0  0.06133992368292063  0.5236327985513523  0.43837452444862046  1.0000
  H   H322      1.0  0.015201037542800222  0.54276720132498  0.4402648987238739  1.0000
  H   H323      1.0  0.9898755921945912  0.5370611112783198  0.48916066512993417  1.0000
  H   H324      1.0  0.9834464495424616  0.4992479075193381  0.4568300214479832  1.0000
  N   N20       1.0  0.4901188194657989  0.9524896004968213  0.44331509096842087  1.0000
  C   C221      1.0  0.4914273470157239  0.9814918058165323  0.4709383984810979  1.0000
  C   C222      1.0  0.5043412389389115  0.9330714786410277  0.4681772850028961  1.0000
  C   C223      1.0  0.5117458094577308  0.9671045320905073  0.40364715666929396  1.0000
  C   C224      1.0  0.4529827858166888  0.9280503718650109  0.4306825194109301  1.0000
  H   H325      1.0  0.5189062140706774  0.9997688456928222  0.48251276198623694  1.0000
  H   H326      1.0  0.4746944725176181  0.9710510566827678  0.5006917990024004  1.0000
  H   H327      1.0  0.48166090508020576  0.9973355154708673  0.4530779119697247  1.0000
  H   H328      1.0  0.5040204273507859  0.9110935827799376  0.44841322385713567  1.0000
  H   H329      1.0  0.5322102143867504  0.9506422764333278  0.4787246586937761  1.0000
  H   H330      1.0  0.48836387342863213  0.9213906533575519  0.49805203992054503  1.0000
  H   H331      1.0  0.5399483391332665  0.9855215071637274  0.4121943187700156  1.0000
  H   H332      1.0  0.5018047911365972  0.9819350492385188  0.383916160692108  1.0000
  H   H333      1.0  0.5112373166390027  0.94564930486906  0.3824142576907428  1.0000
  H   H334      1.0  0.4416303391442674  0.9413946104172427  0.4105633333185984  1.0000
  H   H335      1.0  0.4358257006661133  0.9174857249011603  0.46003812968450686  1.0000
  H   H336      1.0  0.45083934091110683  0.9049492477151947  0.41145522084759134  1.0000
  N   N21       1.0  0.3537024952328559  0.4866474473170146  0.8982628657465339  1.0000
  C   C225      1.0  0.33058094414569567  0.4609917518133548  0.9310395594752875  1.0000
  C   C226      1.0  0.3411379966546827  0.512429455822742  0.8902813861455386  1.0000
  C   C227      1.0  0.35237811436810584  0.46784455962820404  0.8569541088044301  1.0000
  C   C228      1.0  0.3905914977691483  0.5053011033303191  0.9147625001426051  1.0000
  H   H337      1.0  0.33937811653041866  0.4412386883879867  0.938181547198479  1.0000
  H   H338      1.0  0.3025799990877371  0.4463816685467254  0.9194527422231371  1.0000
  H   H339      1.0  0.3307793978965055  0.4744850556425256  0.9624812197117659  1.0000
  H   H340      1.0  0.3133982367627331  0.4992210953788733  0.8778051874233825  1.0000
  H   H341      1.0  0.3416124416877019  0.5270551022132076  0.9206601902181151  1.0000
  H   H342      1.0  0.35779237425907967  0.5321270235622129  0.865491860103013  1.0000
  H   H343      1.0  0.37031233423061977  0.4863920600087005  0.831960258513072  1.0000
  H   H344      1.0  0.3252309784049023  0.45473684947884413  0.8424935402889507  1.0000
  H   H345      1.0  0.36060093592905035  0.4473694082245045  0.8617510461326156  1.0000
  H   H346      1.0  0.4084554364108619  0.5264223285682803  0.8920649438702742  1.0000
  H   H347      1.0  0.4016492505642667  0.48696812895304126  0.918786712418204  1.0000
  H   H348      1.0  0.39231076171724544  0.5181266006231819  0.9471544932336277  1.0000
  N   N22       1.0  0.7667560851856402  0.4630915974239785  0.18829449516373195  1.0000
  C   C229      1.0  0.7971979833895841  0.4698599105038145  0.21651196618104293  1.0000
  C   C230      1.0  0.7595631482259508  0.4932002492510899  0.19197124058449805  1.0000
  C   C231      1.0  0.7351840410764502  0.4304429078828802  0.20241362137414798  1.0000
  C   C232      1.0  0.775175249897473  0.4588376559230368  0.1424115277551483  1.0000
  H   H349      1.0  0.7920485347918462  0.4737794453308209  0.2512206401447349  1.0000
  H   H350      1.0  0.8218065925610902  0.49387557713523106  0.20652869963770032  1.0000
  H   H351      1.0  0.8028063859800484  0.4473171225038931  0.2153925266215005  1.0000
  H   H352      1.0  0.736512753637341  0.488908906641205  0.17146185405739273  1.0000
  H   H353      1.0  0.7533995303405833  0.497263441740287  0.2262738476740267  1.0000
  H   H354      1.0  0.782903833084353  0.5182527282148284  0.18166381479791874  1.0000
  H   H355      1.0  0.7116392056445556  0.424228564792187  0.18170665331167946  1.0000
  H   H356      1.0  0.7280533742758699  0.4328480714241365  0.23684309805746118  1.0000
  H   H357      1.0  0.7400231889712465  0.4073464682592325  0.2006745333604184  1.0000
  H   H358      1.0  0.7530633771096975  0.4542313068519838  0.11995713530483051  1.0000
  H   H359      1.0  0.780179350460475  0.43600016966905586  0.13847400557462705  1.0000
  H   H360      1.0  0.799477844788394  0.48257464208282747  0.13100496810424264  1.0000
  N   N23       1.0  0.7488372756760903  0.2430354329880276  0.6815111328914449  1.0000
  C   C233      1.0  0.7311787161123631  0.21391895341723516  0.7128665121615801  1.0000
  C   C234      1.0  0.7568037077361346  0.22944489901282  0.6407075623410393  1.0000
  C   C235      1.0  0.7821837994656281  0.2709603879635632  0.7008838457573977  1.0000
  C   C236      1.0  0.7251720643115989  0.257903182134336  0.6715482857781936  1.0000
  H   H361      1.0  0.7244162098769269  0.22314823242744342  0.743883481992866  1.0000
  H   H362      1.0  0.748177216525032  0.20196905826367986  0.7211938082864271  1.0000
  H   H363      1.0  0.7058047650316395  0.19243673638844563  0.6994215515074285  1.0000
  H   H364      1.0  0.7695453698842161  0.2506108286967198  0.6159825076195478  1.0000
  H   H365      1.0  0.7747412217406732  0.21813641962782448  0.6466965561997491  1.0000
  H   H366      1.0  0.7322152921079862  0.20833890290433038  0.625144049145852  1.0000
  H   H367      1.0  0.7960865441347446  0.29338833943991555  0.6780854800237678  1.0000
  H   H368      1.0  0.8007474795125896  0.26068823825653753  0.7086741887919731  1.0000
  H   H369      1.0  0.7771274159909095  0.28170935068696  0.731819040387699  1.0000
  H   H370      1.0  0.737428838403426  0.27974256028235894  0.6476281372951366  1.0000
  H   H371      1.0  0.7180774106792599  0.2679652890252741  0.701544039348095  1.0000
  H   H372      1.0  0.6999585798030135  0.23754032684646728  0.6566648826230385  1.0000
  N   N24       1.0  0.5408262025682633  0.6808466863953444  0.6612089024558939  1.0000
  C   C237      1.0  0.5071099323410129  0.6522390690890093  0.643539178860107  1.0000
  C   C238      1.0  0.5648734850700936  0.6995497769510831  0.6246411524508092  1.0000
  C   C239      1.0  0.5574960491206071  0.6654703065937302  0.6894522371208112  1.0000
  C   C240      1.0  0.5338384934335064  0.706063136256021  0.6870365104528436  1.0000
  H   H373      1.0  0.4879760119316374  0.6380514175806072  0.6701814572866946  1.0000
  H   H374      1.0  0.5112495192881239  0.632054196739795  0.6251949670018428  1.0000
  H   H375      1.0  0.4942447796005851  0.6625564495777277  0.6209697071366957  1.0000
  H   H376      1.0  0.5905795549098748  0.7213817603401058  0.6367454797613994  1.0000
  H   H377      1.0  0.5706430052495354  0.6812677599882991  0.6044483158252042  1.0000
  H   H378      1.0  0.5529806321903848  0.7114005945208233  0.6026519987103702  1.0000
  H   H379      1.0  0.5831449557547763  0.6860867866760817  0.703253459456123  1.0000
  H   H380      1.0  0.5625189964421287  0.6458108625861345  0.671169070107686  1.0000
  H   H381      1.0  0.5399991640457229  0.6511076498198707  0.7173150146133805  1.0000
  H   H382      1.0  0.5583584184298849  0.726834980177599  0.703006275075017  1.0000
  H   H383      1.0  0.5139141353271571  0.6925535787864785  0.7131914533776327  1.0000
  H   H384      1.0  0.5233152370432483  0.7197952663409709  0.6661599863657417  1.0000
