data_image0
_chemical_formula_structural       FeS2FeS2FeSFeS3FeS2FeS2FeSFeS3FeS2FeS2FeSFeS3FeS2FeS2FeSFeS3FeS2FeS2FeSFeS3FeS2FeS2FeSFeS3FeS2FeS2FeSFeS3FeS2FeS2FeSFeS3FeS2FeS2FeSFeS3FeS2FeS2FeSFeS3FeS2FeS2FeSFeS3FeS2FeS2FeSFeS3FeS2FeS2FeSFeS3FeS2FeS2FeSFeS3FeS2FeS2FeSFeS3FeS2FeS2FeSFeS3FeS2FeS2FeSFeS3FeS2FeS2FeSFeS3FeS2FeS2FeSFeS3FeS2FeS2FeSFeS3FeS2FeS2FeSFeS3FeS2FeS2FeSFeS3FeS2FeS2FeSFeS3FeS2FeS2FeSFeS3FeS2FeS2FeSFeS3FeS2FeS2FeSFeS3FeS2FeS2FeSFeS3FeS2FeS2FeSFeS3FeS2FeS2FeSFeS3FeS2FeS2FeSFeS3FeS2FeS2FeSFeS3FeS2FeS2FeSFeS3C6H4C6H4C6H4C6H4C6H4C6H4C6H4C6H4C6H4C6H4C6H4C6H4C6H4C6H4C6H4C6H4C6H4C6H4C6H4C6H4C6H4C6H4C6H4C6H4C6H4C6H4C6H4C6H4C6H4C6H4C6H4C6H4C6H4C6H4C6H4C6H4C6H4C6H4C6H4C6H4C6H4C6H4C6H4C6H4C6H4C6H4C6H4C6H4C6H4C6H4C6H4C6H4C6H4C6H4C6H4C6H4C6H4C6H4C6H4C6H4C6H4C6H4C6H4C6H4NC4H12NC4H12NC4H12NC4H12NC4H12NC4H12NC4H12NC4H12NC4H12NC4H12NC4H12NC4H12NC4H12NC4H12NC4H12NC4H12NC4H12NC4H12NC4H12NC4H12NC4H12NC4H12NC4H12NC4H12NC4H12NC4H12NC4H12NC4H12NC4H12NC4H12NC4H12NC4H12NC4H12NC4H12NC4H12NC4H12NC4H12NC4H12NC4H12NC4H12NC4H12NC4H12NC4H12NC4H12NC4H12NC4H12NC4H12NC4H12NC4H12NC4H12NC4H12NC4H12NC4H12NC4H12NC4H12NC4H12NC4H12NC4H12NC4H12NC4H12NC4H12NC4H12NC4H12NC4H12
_chemical_formula_sum              "Fe128 S256 C640 H1024 N64"
_cell_length_a       51.46634445965316
_cell_length_b       50.41566621123436
_cell_length_c       30.73055858648938
_cell_angle_alpha    89.51477943864536
_cell_angle_beta     89.45940447727426
_cell_angle_gamma    87.8081946319157

_space_group_name_H-M_alt    "P 1"
_space_group_IT_number       1

loop_
  _space_group_symop_operation_xyz
  'x, y, z'

loop_
  _atom_site_type_symbol
  _atom_site_label
  _atom_site_symmetry_multiplicity
  _atom_site_fract_x
  _atom_site_fract_y
  _atom_site_fract_z
  _atom_site_occupancy
  Fe  Fe1       1.0  0.5123417681462572  0.9031563674149407  0.32304267234564576  1.0000
  S   S1        1.0  0.48831302054854786  0.8669604703625853  0.32437042741291267  1.0000
  S   S2        1.0  0.5503449129291106  0.9052332458450769  0.28632843636237637  1.0000
  Fe  Fe2       1.0  0.4707500874541801  0.9370233731092436  0.36886991219108467  1.0000
  S   S3        1.0  0.44265418669443896  0.9042245091628489  0.37274260482116844  1.0000
  S   S4        1.0  0.4634034148205778  0.9776328636703702  0.3971442348066314  1.0000
  Fe  Fe3       1.0  0.47739795882421854  0.8790754458259642  0.39233191563295366  1.0000
  S   S5        1.0  0.4749595642800051  0.8481931301055093  0.4453971654981925  1.0000
  Fe  Fe4       1.0  0.4555639349269372  0.8949536833476107  0.3045889013791287  1.0000
  S   S6        1.0  0.4247854735670664  0.8851010873671786  0.2565254953445078  1.0000
  S   S7        1.0  0.5049638620291139  0.9125476776297781  0.3934703448573074  1.0000
  S   S8        1.0  0.4801706983612355  0.9304759696407091  0.29841738044965427  1.0000
  Fe  Fe5       1.0  0.6898162453867194  0.8702320440654144  0.3402430581859064  1.0000
  S   S9        1.0  0.698327551446306  0.8407388913925224  0.28717325300965696  1.0000
  S   S10       1.0  0.653661112002254  0.8682128301573869  0.3814685197462303  1.0000
  Fe  Fe6       1.0  0.7420720084381254  0.8961141106596379  0.3297739354582209  1.0000
  S   S11       1.0  0.755048332137072  0.8686460229373768  0.2764796100613871  1.0000
  S   S12       1.0  0.7713367041515216  0.9244751092639609  0.35409144332208786  1.0000
  Fe  Fe7       1.0  0.7146888480758772  0.8754108900853074  0.251467724294382  1.0000
  S   S13       1.0  0.7088456991552193  0.8875038379513746  0.18180436588301147  1.0000
  Fe  Fe8       1.0  0.7378752405233401  0.8366029306420952  0.3174317086989834  1.0000
  S   S14       1.0  0.7600904031891189  0.797403678454529  0.3236588626191704  1.0000
  S   S15       1.0  0.7026383038057908  0.9054839246635255  0.3018778959682678  1.0000
  S   S16       1.0  0.7282184069262757  0.8635674877731472  0.3731299382356987  1.0000
  Fe  Fe9       1.0  0.8678296103277259  0.2889424955154812  0.5321587926095831  1.0000
  S   S17       1.0  0.8429188305906704  0.26107083757928146  0.49664915934649057  1.0000
  S   S18       1.0  0.8746362993654098  0.32739864200451163  0.49720535540442223  1.0000
  Fe  Fe10      1.0  0.8760974733483033  0.2510972203871881  0.6088422338417644  1.0000
  S   S19       1.0  0.852162272224072  0.2196894403613396  0.5793722121887617  1.0000
  S   S20       1.0  0.8932389735594528  0.2477460284883921  0.6761141684878105  1.0000
  Fe  Fe11      1.0  0.8726388264630333  0.22990185151794076  0.5171839779524326  1.0000
  S   S21       1.0  0.8893338113471163  0.19926374003308975  0.4710496030668899  1.0000
  Fe  Fe12      1.0  0.824603499063993  0.25352454074416325  0.5618269095501517  1.0000
  S   S22       1.0  0.7820440178687645  0.2516617007965599  0.5784264156202616  1.0000
  S   S23       1.0  0.8992239044878604  0.25834489846954267  0.5478949215811283  1.0000
  S   S24       1.0  0.8468971057500086  0.28437534231831973  0.5958631008461175  1.0000
  Fe  Fe13      1.0  0.7900465187774529  0.06518128240994736  0.30448660339743827  1.0000
  S   S25       1.0  0.8281247758221756  0.043584997758044475  0.29217254780283924  1.0000
  S   S26       1.0  0.7529345322851405  0.044047207759922546  0.2966475130647975  1.0000
  Fe  Fe14      1.0  0.8152414433619053  0.11746327435410064  0.32090165317708413  1.0000
  S   S27       1.0  0.8556442794955806  0.10058986219821708  0.30875860686020884  1.0000
  S   S28       1.0  0.804836960846806  0.15891682085973602  0.3429148690873164  1.0000
  Fe  Fe15      1.0  0.8374771569265175  0.0797666521622642  0.25305388210664215  1.0000
  S   S29       1.0  0.8552197412009385  0.07386183275798741  0.18674385410756386  1.0000
  Fe  Fe16      1.0  0.8422953397061843  0.06629628640838758  0.3487378866842125  1.0000
  S   S30       1.0  0.8657784728688674  0.04743989868801801  0.40231877544788736  1.0000
  S   S31       1.0  0.798214104673178  0.09987746050106372  0.2612879933830864  1.0000
  S   S32       1.0  0.8031470668599008  0.08458456260453207  0.3652616755994006  1.0000
  Fe  Fe17      1.0  0.6786020226001527  0.28027034028654796  0.4282136638285692  1.0000
  S   S33       1.0  0.6818220599281914  0.30530142892341533  0.48760596925275607  1.0000
  S   S34       1.0  0.7064210624063446  0.24523227644862677  0.4190080194541515  1.0000
  Fe  Fe18      1.0  0.6368766262185898  0.3168107601817395  0.3890630916266923  1.0000
  S   S35       1.0  0.6368430846471432  0.3449091386234469  0.4448537401825168  1.0000
  S   S36       1.0  0.6115755358272383  0.32710902523178204  0.33172555494496064  1.0000
  Fe  Fe19      1.0  0.6801624836349834  0.3397176314307192  0.4415461333417988  1.0000
  S   S37       1.0  0.7043507867371405  0.37464901633270953  0.45616287699337277  1.0000
  Fe  Fe20      1.0  0.6384694167170483  0.308032986159033  0.48587350951758246  1.0000
  S   S38       1.0  0.6166901493119132  0.3047968351206161  0.5489053175645207  1.0000
  S   S39       1.0  0.6803670408658673  0.3146485824009182  0.38169737429827916  1.0000
  S   S40       1.0  0.6349565819952624  0.2798726827689197  0.4301720191212339  1.0000
  Fe  Fe21      1.0  0.4620854570925039  0.38444632093271597  0.22911645495304594  1.0000
  S   S41       1.0  0.4808826121282164  0.35033342460305167  0.2656447320413869  1.0000
  S   S42       1.0  0.4833946819390259  0.39746192034078615  0.1695196083769167  1.0000
  Fe  Fe22      1.0  0.41919652968866544  0.3924363344053315  0.29492604786928067  1.0000
  S   S43       1.0  0.43468272415383874  0.3596589544839107  0.3379675645177632  1.0000
  S   S44       1.0  0.382427412601715  0.41275777651589174  0.31903709314040163  1.0000
  Fe  Fe23      1.0  0.47368607687952863  0.3758217105919431  0.32411320449150016  1.0000
  S   S45       1.0  0.5011389867198313  0.3783915317972625  0.3802196745346816  1.0000
  Fe  Fe24      1.0  0.4403511780068224  0.33703076396135817  0.27602817955247483  1.0000
  S   S46       1.0  0.43310381091731975  0.2935528726203183  0.26884622624769994  1.0000
  S   S47       1.0  0.457836351514982  0.411088090539947  0.2870071705612232  1.0000
  S   S48       1.0  0.42193021444742945  0.36862200869825873  0.23349318761680918  1.0000
  Fe  Fe25      1.0  0.3510657433634723  0.9698723948912069  0.5419999584738774  1.0000
  S   S49       1.0  0.3364040446276411  0.9290321341593214  0.5325399664361314  1.0000
  S   S50       1.0  0.3908055286487074  0.9799210880972962  0.5631563938097992  1.0000
  Fe  Fe26      1.0  0.29967278438868716  0.9975485508865813  0.5221064912456925  1.0000
  S   S51       1.0  0.27959387136243835  0.9596374347558211  0.5111767197451177  1.0000
  S   S52       1.0  0.28065537917335204  0.03798935347829602  0.5178531847143821  1.0000
  Fe  Fe27      1.0  0.3013584363674719  0.9444750973798789  0.5692312347712498  1.0000
  S   S53       1.0  0.28248220762850357  0.9208633418597283  0.6215424235537005  1.0000
  Fe  Fe28      1.0  0.31613761972991894  0.9476216278667253  0.47503618347899673  1.0000
  S   S54       1.0  0.31055726709417214  0.9259833240999232  0.4132596414890626  1.0000
  S   S55       1.0  0.3177837251972932  0.98372877908095  0.5841457379663646  1.0000
  S   S56       1.0  0.33433165516697566  0.9869998374106885  0.48037242680724973  1.0000
  Fe  Fe29      1.0  0.36343098197194357  0.147071148174461  0.4451913165838653  1.0000
  S   S57       1.0  0.3409736118099052  0.13921465500230149  0.3847315397693449  1.0000
  S   S58       1.0  0.37322822868187505  0.11509658089155764  0.4940605889184956  1.0000
  Fe  Fe30      1.0  0.3709058620999974  0.20456143932414517  0.42269458099088647  1.0000
  S   S59       1.0  0.3496946058544731  0.2020530604848573  0.36011588238734843  1.0000
  S   S60       1.0  0.3836548665788955  0.24514773527282666  0.4389877051340788  1.0000
  Fe  Fe31      1.0  0.3210596750561852  0.17880387506334885  0.39815957464876256  1.0000
  S   S61       1.0  0.27817537872195847  0.18871135368254602  0.39463720106152717  1.0000
  Fe  Fe32      1.0  0.3713982870432073  0.16323747549843232  0.3518076910799558  1.0000
  S   S62       1.0  0.3889489791239609  0.15454847724230827  0.2862943175674539  1.0000
  S   S63       1.0  0.3406275677288852  0.18432018546244114  0.46208337500144375  1.0000
  S   S64       1.0  0.3957597041163161  0.16785203308070556  0.41108728570841174  1.0000
  Fe  Fe33      1.0  0.4320347398143222  0.8742279326506236  0.6765042953302126  1.0000
  S   S65       1.0  0.4505739821835249  0.9044556760289979  0.7185520630662207  1.0000
  S   S66       1.0  0.4133944459887609  0.8868501531012449  0.6132440291438441  1.0000
  Fe  Fe34      1.0  0.4389563565545257  0.8300286020563428  0.7426388363645888  1.0000
  S   S67       1.0  0.45780546643773445  0.8558665372002896  0.7905344444442671  1.0000
  S   S68       1.0  0.43334080736537284  0.7872327491105006  0.758988085104278  1.0000
  Fe  Fe35      1.0  0.4272438807351166  0.8865120332973876  0.77243744979622  1.0000
  S   S69       1.0  0.40667117239874956  0.9074054363161317  0.8276544656147622  1.0000
  Fe  Fe36      1.0  0.4797583953539691  0.8715401145899385  0.7333302687164726  1.0000
  S   S70       1.0  0.5227956464585698  0.8767947359179552  0.7378114669380489  1.0000
  S   S71       1.0  0.4060635521969407  0.8590823093019342  0.7294030143730793  1.0000
  S   S72       1.0  0.4635660143169288  0.8428128114752746  0.6862975435665213  1.0000
  Fe  Fe37      1.0  0.6432965805689567  0.8800566378031874  0.9616746326259283  1.0000
  S   S73       1.0  0.6711745811176074  0.8453014607147783  0.9680555134578208  1.0000
  S   S74       1.0  0.6582937858923504  0.9204220770305263  0.9743726330153636  1.0000
  Fe  Fe38      1.0  0.5986917844376655  0.8452104382903993  0.9409099100763882  1.0000
  S   S75       1.0  0.6227225020945689  0.8071832808248582  0.9460952391712929  1.0000
  S   S76       1.0  0.5556602289295205  0.8474305576227528  0.9297521284346388  1.0000
  Fe  Fe39      1.0  0.6394072849567042  0.8261038012054116  0.0049869213742324  1.0000
  S   S77       1.0  0.6510818797384043  0.8056659679964916  0.06728396352339705  1.0000
  Fe  Fe40      1.0  0.6523567223892037  0.8299842937396653  0.9088370849349803  1.0000
  S   S78       1.0  0.6789439965126032  0.8140052044588655  0.8565176374704047  1.0000
  S   S79       1.0  0.6126358188243287  0.8621597652022315  0.0033963213015870686  1.0000
  S   S80       1.0  0.6270495533011945  0.8666473008059957  0.8986477079946088  1.0000
  Fe  Fe41      1.0  0.8231404160579913  0.1645202978418341  0.8334880155622234  1.0000
  S   S81       1.0  0.7842771055272401  0.14823636581871807  0.8501505011321225  1.0000
  S   S82       1.0  0.8443434571367768  0.15082640294704996  0.7730232306036362  1.0000
  Fe  Fe42      1.0  0.820769204418646  0.2035101314678453  0.9076709123130531  1.0000
  S   S83       1.0  0.7818367948453713  0.1906916235878537  0.9312437767215261  1.0000
  S   S84       1.0  0.8395792558977566  0.23788494211383018  0.9389950102915021  1.0000
  Fe  Fe43      1.0  0.7980811418227377  0.1494063436696421  0.9190828760845186  1.0000
  S   S85       1.0  0.7908162698404477  0.1168245976135276  0.9677416957323156  1.0000
  Fe  Fe44      1.0  0.7715232500674724  0.19071661428857692  0.860701604758478  1.0000
  S   S86       1.0  0.7332647673674627  0.20728080111247735  0.8355652217131105  1.0000
  S   S87       1.0  0.83824001321362  0.1621174860594921  0.9018166929838013  1.0000
  S   S88       1.0  0.8091945481994224  0.20692779480177356  0.8378826276690817  1.0000
  Fe  Fe45      1.0  0.8233224813535162  0.9552506086160615  0.05144907241671515  1.0000
  S   S89       1.0  0.8003542681918173  0.9675685263106316  0.9924037784157802  1.0000
  S   S90       1.0  0.8079034443736725  0.9688102512271327  0.11683116000862204  1.0000
  Fe  Fe46      1.0  0.862698962848071  0.9219813085357794  0.9998305308706826  1.0000
  S   S91       1.0  0.8435780246799468  0.9318418331407897  0.9364967246200286  1.0000
  S   S92       1.0  0.897125750426593  0.8932340461131434  0.001503923209022151  1.0000
  Fe  Fe47      1.0  0.8394325232760229  0.9733266684078651  0.9619270467960656  1.0000
  S   S93       1.0  0.8462621765062912  0.0074724033087603114  0.9163585637703054  1.0000
  Fe  Fe48      1.0  0.8063626927100705  0.9252783790448931  0.972242252689668  1.0000
  S   S94       1.0  0.7779191288873092  0.9014695692598514  0.9360111993893582  1.0000
  S   S95       1.0  0.8623116523788746  0.9641983771072448  0.022275582770322044  1.0000
  S   S96       1.0  0.8255726446531589  0.9119897670132098  0.034098443959961866  1.0000
  Fe  Fe49      1.0  0.6631802732551796  0.3772592936924151  0.7335077925644803  1.0000
  S   S97       1.0  0.6703028790212989  0.3332111530041136  0.7358547785940901  1.0000
  S   S98       1.0  0.649463300922804  0.3967352935220556  0.6721259952842149  1.0000
  Fe  Fe50      1.0  0.6812715824155972  0.38493592463943094  0.8251222336941805  1.0000
  S   S99       1.0  0.6898718060300241  0.341492972898025  0.8362705443808475  1.0000
  S   S100      1.0  0.6888431073363995  0.41518309347880805  0.8758183160435911  1.0000
  Fe  Fe51      1.0  0.7070579245983521  0.34284739623534033  0.7691340401569913  1.0000
  S   S101      1.0  0.7446467743379133  0.32129259961796286  0.7543242736192536  1.0000
  Fe  Fe52      1.0  0.6522565310120852  0.33618073044906627  0.8021814444600673  1.0000
  S   S102      1.0  0.6241613855577864  0.30561866827480993  0.8229714730306064  1.0000
  S   S103      1.0  0.7018806784030691  0.38674246941912344  0.7607626590628379  1.0000
  S   S104      1.0  0.6417163587684352  0.3796677265083616  0.7970081413295526  1.0000
  Fe  Fe53      1.0  0.44858213650107936  0.36595296044962605  0.9503311958420422  1.0000
  S   S105      1.0  0.4734114724504445  0.33197780353903733  0.9755003575537363  1.0000
  S   S106      1.0  0.42031632909504596  0.3848653502498506  0.9974617844653983  1.0000
  Fe  Fe54      1.0  0.4704262097883069  0.36142915709954543  0.8591215039944605  1.0000
  S   S107      1.0  0.4964365812723962  0.3262325987202245  0.8760098865561681  1.0000
  S   S108      1.0  0.4733653752309272  0.3776117015924604  0.7912346265635581  1.0000
  Fe  Fe55      1.0  0.4621297143194327  0.3122837386575354  0.913885804643031  1.0000
  S   S109      1.0  0.44941383177389993  0.27039088144449147  0.9189844993583624  1.0000
  Fe  Fe56      1.0  0.5050716075409438  0.34942448187903286  0.935650489570644  1.0000
  S   S110      1.0  0.5453170387709663  0.3546076690968158  0.9604840441630524  1.0000
  S   S111      1.0  0.43495607512689966  0.34519619093997517  0.8910764949566558  1.0000
  S   S112      1.0  0.4813662891832758  0.38577333849406215  0.9161657842464854  1.0000
  Fe  Fe57      1.0  0.2834629504037383  0.9920000919093727  0.8861186045555448  1.0000
  S   S113      1.0  0.30954636870329455  0.02636480217934789  0.8927613931872648  1.0000
  S   S114      1.0  0.28465311243279  0.9620673428671784  0.9405433030471892  1.0000
  Fe  Fe58      1.0  0.26009394563220856  0.012835990421573573  0.8017683666509471  1.0000
  S   S115      1.0  0.2840197094908104  0.04898898283809694  0.8016226520887086  1.0000
  S   S116      1.0  0.23402830718227807  0.009257377545089485  0.7441652728597855  1.0000
  Fe  Fe59      1.0  0.31660680244860195  0.020806013528706924  0.8211876689829383  1.0000
  S   S117      1.0  0.35521673728380737  0.02013019634851032  0.7863537563566196  1.0000
  Fe  Fe60      1.0  0.2743889967884326  0.050891574549291496  0.8726835640886976  1.0000
  S   S118      1.0  0.25924936005029253  0.08786861017916903  0.9060416560363568  1.0000
  S   S119      1.0  0.2934153570646342  0.9842987266204032  0.815966553587542  1.0000
  S   S120      1.0  0.2475498315163325  0.016900851720896615  0.8715173675601955  1.0000
  Fe  Fe61      1.0  0.32430909138666986  0.19971677693279202  0.0003206204381871469  1.0000
  S   S121      1.0  0.28604246580138465  0.19489877102758  0.0345205814137961  1.0000
  S   S122      1.0  0.33819123936844603  0.1770392896669488  0.9413435759435403  1.0000
  Fe  Fe62      1.0  0.34281176521260065  0.23873812016803286  0.06624010328261787  1.0000
  S   S123      1.0  0.3065900356780503  0.23724420319123096  0.10671458019502711  1.0000
  S   S124      1.0  0.374276319979117  0.26643680555108135  0.08157321022840813  1.0000
  Fe  Fe63      1.0  0.3098755900180845  0.19344777291495147  0.09503346388758094  1.0000
  S   S125      1.0  0.29999455149659493  0.16406300949681488  0.14703351770478412  1.0000
  Fe  Fe64      1.0  0.2861784269728355  0.23904333567854982  0.042659540918590366  1.0000
  S   S126      1.0  0.2520176555307892  0.2675849641833727  0.035604342347280715  1.0000
  S   S127      1.0  0.3483276165957163  0.19466305119576036  0.06050059520739581  1.0000
  S   S128      1.0  0.322288541416125  0.2441623311511175  0.002743875530762274  1.0000
  Fe  Fe65      1.0  0.799626644471317  0.7105216463857514  0.5073770272102688  1.0000
  S   S129      1.0  0.831149588482611  0.7125488096674343  0.457042018457543  1.0000
  S   S130      1.0  0.7687521843315724  0.7431215233459726  0.5091908841433808  1.0000
  Fe  Fe66      1.0  0.8246761492050692  0.6620467563589446  0.55063439584122  1.0000
  S   S131      1.0  0.8583946072354564  0.6604376126980412  0.5040730891735142  1.0000
  S   S132      1.0  0.8258580989420924  0.6311102509014354  0.6034563040077362  1.0000
  Fe  Fe67      1.0  0.8580340602078841  0.7044235447551856  0.5126148325540396  1.0000
  S   S133      1.0  0.8936168030974371  0.7280923336424974  0.5202936020842804  1.0000
  Fe  Fe68      1.0  0.8280913126978576  0.6685755214323574  0.45327479438430696  1.0000
  S   S134      1.0  0.8323726535617395  0.648582210514095  0.38835012602027896  1.0000
  S   S135      1.0  0.8268887318015169  0.7055752333314311  0.5636096520035484  1.0000
  S   S136      1.0  0.7940437440647897  0.666867597889491  0.49945619444136924  1.0000
  Fe  Fe69      1.0  0.7928713819971795  0.45431093991808624  0.3184987134023291  1.0000
  S   S137      1.0  0.8033329303934755  0.4617146087838934  0.3878324580928106  1.0000
  S   S138      1.0  0.76505265237397  0.42365168040659007  0.29720177168757994  1.0000
  Fe  Fe70      1.0  0.8348595628055488  0.4903181469341074  0.2835263197355831  1.0000
  S   S139      1.0  0.8482181614641271  0.5011250688955635  0.3499810473578434  1.0000
  S   S140      1.0  0.8587186560985977  0.5013979690527652  0.2251979617680565  1.0000
  Fe  Fe71      1.0  0.8446056269992204  0.45795305331974234  0.36468604914233327  1.0000
  S   S141      1.0  0.8754784379798397  0.433114079173072  0.3979778843577935  1.0000
  Fe  Fe72      1.0  0.8055560084212432  0.5041661787624495  0.3657626970532467  1.0000
  S   S142      1.0  0.7862050791182469  0.5356926165075361  0.40704369734246554  1.0000
  S   S143      1.0  0.8339663429538674  0.4467426765920276  0.2971571910564282  1.0000
  S   S144      1.0  0.7921989890753091  0.49711857831433226  0.2975837886610826  1.0000
  Fe  Fe73      1.0  0.9267059774548247  0.9025000827258305  0.48374127516901155  1.0000
  S   S145      1.0  0.9317450504561828  0.858431463817795  0.4761326703518169  1.0000
  S   S146      1.0  0.9256246334652444  0.9183631771428228  0.551783943721284  1.0000
  Fe  Fe74      1.0  0.925515134025548  0.9125313313688139  0.3867865998741019  1.0000
  S   S147      1.0  0.9310276665384284  0.8693584312185701  0.37060924818794183  1.0000
  S   S148      1.0  0.9221468722679617  0.9428299021365234  0.3329252130543433  1.0000
  Fe  Fe75      1.0  0.9019927093182839  0.8632366973681721  0.4240698321156635  1.0000
  S   S149      1.0  0.86882523547881  0.8357524085501173  0.4207047021448869  1.0000
  Fe  Fe76      1.0  0.9604747295809927  0.8685852166812003  0.42409814190253264  1.0000
  S   S150      1.0  0.9978611510955446  0.8444139441798173  0.41736451884682535  1.0000
  S   S151      1.0  0.8938735213838106  0.9065044615328259  0.436342432069609  1.0000
  S   S152      1.0  0.9577648943021994  0.9124755260186909  0.4352776776427559  1.0000
  Fe  Fe77      1.0  0.17022371258521085  0.9224588324589295  0.3815667825345918  1.0000
  S   S153      1.0  0.17113751821562947  0.8967968893886881  0.44123630375821393  1.0000
  S   S154      1.0  0.19336185962629823  0.9592041889594448  0.38297201562202443  1.0000
  Fe  Fe78      1.0  0.13532090221662157  0.8863994771236223  0.33287276998262505  1.0000
  S   S155      1.0  0.1338562411374109  0.8569559818592033  0.38787869373787465  1.0000
  S   S156      1.0  0.11382018066229917  0.8791417418329767  0.27106185314723014  1.0000
  Fe  Fe79      1.0  0.12854096409784038  0.8928657792965644  0.430054821795542  1.0000
  S   S157      1.0  0.09903630847720594  0.8968990197119411  0.4844183949213575  1.0000
  Fe  Fe80      1.0  0.17656185132272836  0.8634066946446725  0.39404512430010796  1.0000
  S   S158      1.0  0.2057153794872989  0.8305708864641955  0.4105979600829433  1.0000
  S   S159      1.0  0.1269214478041416  0.9220679682401889  0.3745225306937584  1.0000
  S   S160      1.0  0.17853525586400373  0.8893143231536473  0.33468086949977766  1.0000
  Fe  Fe81      1.0  0.24276992293362204  0.3468017514113168  0.4824763415007499  1.0000
  S   S161      1.0  0.20989681440160643  0.37682813650723307  0.4750084809642392  1.0000
  S   S162      1.0  0.25982745486372555  0.33951270458275234  0.5484662169084406  1.0000
  Fe  Fe82      1.0  0.24257668616060654  0.33123679222015734  0.38721464201382527  1.0000
  S   S163      1.0  0.2096876125403076  0.3597857473419681  0.3713021674985383  1.0000
  S   S164      1.0  0.2617522104840283  0.30745658058237374  0.3336141156044926  1.0000
  Fe  Fe83      1.0  0.23063119538377352  0.38789709611161427  0.4135016984898809  1.0000
  S   S165      1.0  0.23608617756705602  0.42979892572457756  0.39206692812373933  1.0000
  Fe  Fe84      1.0  0.19213657407797552  0.34587141761655393  0.43418609947327935  1.0000
  S   S166      1.0  0.15116640487548244  0.33349499004846  0.44498067531038143  1.0000
  S   S167      1.0  0.26529923059247007  0.3604653694023177  0.42425494027870514  1.0000
  S   S168      1.0  0.2234126239737462  0.3146890485349316  0.44662344654220054  1.0000
  Fe  Fe85      1.0  0.9954010609523236  0.32710693574179794  0.3548485823723604  1.0000
  S   S169      1.0  0.0061566305658489195  0.36845703130837437  0.33631218035195887  1.0000
  S   S170      1.0  0.9888922897009398  0.31383834837912145  0.42395531150475824  1.0000
  Fe  Fe86      1.0  0.0008867026505168241  0.30660657196405616  0.26300589152951676  1.0000
  S   S171      1.0  0.012417940574690478  0.3459432022841582  0.2363714603299021  1.0000
  S   S172      1.0  0.994693881103401  0.2714893518340407  0.22062588419085524  1.0000
  Fe  Fe87      1.0  0.037123460069206526  0.3479226959395395  0.295728605297611  1.0000
  S   S173      1.0  0.07708247154762793  0.36396120888784234  0.2890757754407584  1.0000
  Fe  Fe88      1.0  0.9805052212631196  0.36278352573761274  0.27866329808119844  1.0000
  S   S174      1.0  0.9530548519905065  0.3937614711670922  0.24968687546210197  1.0000
  S   S175      1.0  0.028507336185287224  0.30679479535112175  0.31864372583701256  1.0000
  S   S176      1.0  0.9667613504139387  0.3232030933066919  0.3009041297134082  1.0000
  Fe  Fe89      1.0  0.3738574710297169  0.5444898713511902  0.4138019749635823  1.0000
  S   S177      1.0  0.3306318204946005  0.5409458783200165  0.41577655918387724  1.0000
  S   S178      1.0  0.39645508728248463  0.5345231876900075  0.3530304164051354  1.0000
  Fe  Fe90      1.0  0.37654812515576214  0.5599352224837434  0.5089462841189436  1.0000
  S   S179      1.0  0.33355871984367436  0.5569316740948924  0.5189037961399832  1.0000
  S   S180      1.0  0.40239076894520825  0.5685368403668744  0.5653694207768323  1.0000
  Fe  Fe91      1.0  0.33774865863480535  0.5199021631646595  0.47948504953639376  1.0000
  S   S181      1.0  0.3223372999971384  0.48146496556977386  0.5048780299913939  1.0000
  Fe  Fe92      1.0  0.33098492191878626  0.5783101001237536  0.4548421929796695  1.0000
  S   S182      1.0  0.3020726658405955  0.6116060635459245  0.44105726716875915  1.0000
  S   S183      1.0  0.38116404237805984  0.5209663772766483  0.4747667556241326  1.0000
  S   S184      1.0  0.37384734393143754  0.5838296279957351  0.44713273037206486  1.0000
  Fe  Fe93      1.0  0.3312213044016374  0.7213107754828667  0.26392597021839853  1.0000
  S   S185      1.0  0.3100806455250863  0.7404613530210195  0.3201787392599717  1.0000
  S   S186      1.0  0.3139311009170197  0.690242731573472  0.22292152444744615  1.0000
  Fe  Fe94      1.0  0.3787408511047573  0.7535603149843432  0.2740254195111799  1.0000
  S   S187      1.0  0.36235168777611343  0.7757829509229395  0.33132474320095384  1.0000
  S   S188      1.0  0.41896041288473096  0.7612567917802845  0.2503843004131446  1.0000
  Fe  Fe95      1.0  0.34873129955731813  0.7361541402077678  0.3533852832390329  1.0000
  S   S189      1.0  0.35697573894471996  0.7209695620694345  0.42076871025360085  1.0000
  Fe  Fe96      1.0  0.32545614345325447  0.7784171051469251  0.2932801288004953  1.0000
  S   S190      1.0  0.30414596205112054  0.8180798857864505  0.2870136673557344  1.0000
  S   S191      1.0  0.3685365902601346  0.7136462085200462  0.2993263360802532  1.0000
  S   S192      1.0  0.3431307612852992  0.7595768025117438  0.2335578822918818  1.0000
  Fe  Fe97      1.0  0.7922032757066068  0.7209204328043133  0.8891633778956858  1.0000
  S   S193      1.0  0.8357431442524277  0.7174369099689863  0.8876050668760839  1.0000
  S   S194      1.0  0.7699047242287331  0.7442546575900548  0.940251850584517  1.0000
  Fe  Fe98      1.0  0.7867370736608743  0.685343489943855  0.8111644621783143  1.0000
  S   S195      1.0  0.8296578970880432  0.6785984173065438  0.8023648946131874  1.0000
  S   S196      1.0  0.7581591917860547  0.6705317444532913  0.7636688369299914  1.0000
  Fe  Fe99      1.0  0.8297532386658588  0.6742430023841794  0.8749585590118938  1.0000
  S   S197      1.0  0.8540202525177905  0.6424090223170904  0.9082533214384035  1.0000
  Fe  Fe100     1.0  0.8317142539670694  0.7221233325806471  0.8152417966829638  1.0000
  S   S198      1.0  0.8543037683884639  0.7486422760022201  0.7707568259379299  1.0000
  S   S199      1.0  0.7863985833375924  0.6772066211644716  0.8828785611193328  1.0000
  S   S200      1.0  0.7885707431927634  0.7292944654724556  0.8177942881333753  1.0000
  Fe  Fe101     1.0  0.8185503711133657  0.44564568725082454  0.9544720532252218  1.0000
  S   S201      1.0  0.8545542887889189  0.46010644668546696  0.9221110161138456  1.0000
  S   S202      1.0  0.8055902228450473  0.4054215821798223  0.9352265800513976  1.0000
  Fe  Fe102     1.0  0.8116278601771394  0.49498663354351397  0.010023721342059977  1.0000
  S   S203      1.0  0.8472429640259443  0.5133133695599262  0.9826737870263926  1.0000
  S   S204      1.0  0.7882485509874038  0.5165044939618174  0.06143395969416887  1.0000
  Fe  Fe103     1.0  0.8326898090587224  0.49944038678599556  0.91861362399155  1.0000
  S   S205      1.0  0.8264769808228943  0.5254117461245384  0.8595248575525967  1.0000
  Fe  Fe104     1.0  0.8652783085701948  0.47226258376557617  0.989609852514875  1.0000
  S   S206      1.0  0.9049042855774254  0.4633373354068548  0.017767970263866673  1.0000
  S   S207      1.0  0.7956322048521012  0.4839922310858185  0.945730961964932  1.0000
  S   S208      1.0  0.8306211325628078  0.45490569904388073  0.022140511334941104  1.0000
  Fe  Fe105     1.0  0.9945045152161923  0.835820016287862  0.7243367060167922  1.0000
  S   S209      1.0  0.015726954162476492  0.802596140220614  0.7592928828026941  1.0000
  S   S210      1.0  0.9930117268559163  0.83251573353777  0.6519012821895157  1.0000
  Fe  Fe106     1.0  0.9843007133297977  0.8673077326429118  0.8066596360610707  1.0000
  S   S211      1.0  0.004735650052737794  0.8368190965399115  0.8486160948869902  1.0000
  S   S212      1.0  0.9667905960634878  0.9054172409634347  0.8328746294219598  1.0000
  Fe  Fe107     1.0  0.03468754404795504  0.8349746634599527  0.7951630623528347  1.0000
  S   S213      1.0  0.07785512565312236  0.8373103181110753  0.8028311345874595  1.0000
  Fe  Fe108     1.0  0.983615709222856  0.8075704645506003  0.8086282198583351  1.0000
  S   S214      1.0  0.9649900885381858  0.7730497172129355  0.8414622577626525  1.0000
  S   S215      1.0  0.015942455583332293  0.8679976583235992  0.756117492554683  1.0000
  S   S216      1.0  0.9606086786748044  0.8384188112236981  0.7706465391329856  1.0000
  Fe  Fe109     1.0  0.20253814192576752  0.8487196571409706  0.9723318861421809  1.0000
  S   S217      1.0  0.18664106263885816  0.8082859267016084  0.981487597153448  1.0000
  S   S218      1.0  0.2226297792347221  0.8592908329238947  0.9096417344503155  1.0000
  Fe  Fe110     1.0  0.18456839221930568  0.8673661239171743  0.06174193808517581  1.0000
  S   S219      1.0  0.16753635042692128  0.8284597748385194  0.07907448392586436  1.0000
  S   S220      1.0  0.1858898254710931  0.9012722672876826  0.10851627504247197  1.0000
  Fe  Fe111     1.0  0.2035149105925014  0.8102702214154354  0.048436397343786686  1.0000
  S   S221      1.0  0.2288164449125512  0.7799273675705898  0.08341181117805929  1.0000
  Fe  Fe112     1.0  0.15214550620078562  0.8302786177494083  0.01088838679195292  1.0000
  S   S222      1.0  0.11080342473810452  0.8203384651671495  0.9981175001436999  1.0000
  S   S223      1.0  0.22207468657506865  0.8491133648482057  0.03699429619197403  1.0000
  S   S224      1.0  0.1664693403271212  0.870816811656051  0.995826187988855  1.0000
  Fe  Fe113     1.0  0.3081042810422114  0.4890603682385597  0.8227282570117281  1.0000
  S   S225      1.0  0.31665223602138154  0.4901898175301633  0.751229611180684  1.0000
  S   S226      1.0  0.26947619522579186  0.4756317411251602  0.846522268613268  1.0000
  Fe  Fe114     1.0  0.36036302475434306  0.5105841465813376  0.8457236758291062  1.0000
  S   S227      1.0  0.37398935407029843  0.5115191486036033  0.7763539766640399  1.0000
  S   S228      1.0  0.38340750352268715  0.530254706417777  0.8969431948402447  1.0000
  Fe  Fe115     1.0  0.3341972384664682  0.529388450774439  0.7639644934695974  1.0000
  S   S229      1.0  0.3265882312326735  0.5670871921988203  0.7257663140563214  1.0000
  Fe  Fe116     1.0  0.35535961492777296  0.4723499037887761  0.7711270071966227  1.0000
  S   S230      1.0  0.37197821543257586  0.44034875160824816  0.7278592528215773  1.0000
  S   S231      1.0  0.3213905885050397  0.5301054580959905  0.8335441280016418  1.0000
  S   S232      1.0  0.3459816140681405  0.46907942369140104  0.8424182871731255  1.0000
  Fe  Fe117     1.0  0.35951262050974664  0.7315947042103623  0.940706039753056  1.0000
  S   S233      1.0  0.334427832830518  0.7090703361184615  0.896336144974985  1.0000
  S   S234      1.0  0.3659623684558615  0.7747989549741452  0.930123754322433  1.0000
  Fe  Fe118     1.0  0.36835004643269403  0.6849723055044722  0.0014372222022651648  1.0000
  S   S235      1.0  0.3439382966162756  0.6579363670947559  0.9629278710156841  1.0000
  S   S236      1.0  0.3893754924051176  0.6733426063866377  0.06240774774514746  1.0000
  Fe  Fe119     1.0  0.36403789321906815  0.6758750605955623  0.9053947178751585  1.0000
  S   S237      1.0  0.37493343195245404  0.6518494894293055  0.8466596313952928  1.0000
  Fe  Fe120     1.0  0.3165432869709588  0.693338824017277  0.9573519474102388  1.0000
  S   S238      1.0  0.27324512737773576  0.6909021412150721  0.9574963696222388  1.0000
  S   S239      1.0  0.39112001687291176  0.6998546566419368  0.9443286746396982  1.0000
  S   S240      1.0  0.3390263884973638  0.7190007760367426  0.001279964338203321  1.0000
  Fe  Fe121     1.0  0.18645407580715168  0.29317338093744894  0.8285377579695079  1.0000
  S   S241      1.0  0.1956719566272231  0.33030519300870204  0.8635051582045832  1.0000
  S   S242      1.0  0.19030719663756862  0.2535372712596025  0.8617048571479365  1.0000
  Fe  Fe122     1.0  0.17531235654273267  0.3226047291602327  0.7438669467507231  1.0000
  S   S243      1.0  0.18318176347401516  0.36240274459439803  0.7717943209950582  1.0000
  S   S244      1.0  0.16446069479632697  0.32011867777237235  0.6735972631754712  1.0000
  Fe  Fe123     1.0  0.21725305073837903  0.3409341454911873  0.8027071567174321  1.0000
  S   S245      1.0  0.2580596900914277  0.3550250698842214  0.8005951870021775  1.0000
  Fe  Fe124     1.0  0.16056330093557877  0.3477483395626998  0.8294327048348332  1.0000
  S   S246      1.0  0.13184720309829542  0.3716300136681644  0.8697559978528767  1.0000
  S   S247      1.0  0.2111556626196524  0.30209434417231024  0.7704754655933893  1.0000
  S   S248      1.0  0.14961813744041183  0.309599477105336  0.798878395793995  1.0000
  Fe  Fe125     1.0  2.2342397989705276e-05  0.32252114818026767  0.899983549671424  1.0000
  S   S249      1.0  0.017364689357251883  0.2830531148726063  0.92043935440155  1.0000
  S   S250      1.0  0.016322752912094618  0.3388814254332076  0.8378798777992595  1.0000
  Fe  Fe126     1.0  0.9590898478837095  0.32297792294521865  0.9719872337362608  1.0000
  S   S251      1.0  0.9731364451514816  0.283512934124344  0.9983443720309815  1.0000
  S   S252      1.0  0.9225666321149404  0.339245971102607  0.004324108925147341  1.0000
  Fe  Fe127     1.0  0.012881006609045453  0.2990135139879205  0.9880295369858751  1.0000
  S   S253      1.0  0.04465724428141615  0.2954340091663907  0.03739223503802336  1.0000
  Fe  Fe128     1.0  0.9760219969475535  0.27158329402158876  0.9284450517048971  1.0000
  S   S254      1.0  0.9601998414263396  0.23487716247562593  0.9001115333367411  1.0000
  S   S255      1.0  0.9988026864960595  0.3398399430337854  0.9671961490996682  1.0000
  S   S256      1.0  0.9588163296825709  0.30980610188487445  0.9026170324971265  1.0000
  C   C1        1.0  0.099420367483631  0.36424383643942104  0.8593372419922329  1.0000
  C   C2        1.0  0.08055824146009072  0.36811477167184525  0.8920490496577688  1.0000
  C   C3        1.0  0.05495276360256107  0.36051946397050566  0.8854514098055775  1.0000
  C   C4        1.0  0.04796087905237867  0.34970391104800425  0.8456551182531691  1.0000
  C   C5        1.0  0.06662772958897278  0.34659544129595427  0.8124311710461027  1.0000
  C   C6        1.0  0.09240898707777188  0.3535747374833741  0.8194308752270911  1.0000
  H   H1        1.0  0.08586245436924078  0.3765322960389961  0.9228519822088108  1.0000
  H   H2        1.0  0.04058875949490548  0.3632328830226177  0.9110601256246023  1.0000
  H   H3        1.0  0.06126885563096329  0.338325149404114  0.781563223160128  1.0000
  H   H4        1.0  0.10677002979411729  0.3509784289552342  0.7937733624387278  1.0000
  C   C7        1.0  0.26616451560862453  0.4420304450405593  0.8344679808731853  1.0000
  C   C8        1.0  0.287117526606164  0.427230949745696  0.8165958674457532  1.0000
  C   C9        1.0  0.2845610057451246  0.40036449297637133  0.8070879318548807  1.0000
  C   C10       1.0  0.26084547674389824  0.3883718662710085  0.8143447841942643  1.0000
  C   C11       1.0  0.2397293866233451  0.40312524045017584  0.8318225027853913  1.0000
  C   C12       1.0  0.24246988819285964  0.42994309127955593  0.8421829474385556  1.0000
  H   H5        1.0  0.30535057276846383  0.43644837612331916  0.8100785219499802  1.0000
  H   H6        1.0  0.3009239418910848  0.3889941313701645  0.7935232065582407  1.0000
  H   H7        1.0  0.22131036935157222  0.39394445828571223  0.8374192946591527  1.0000
  H   H8        1.0  0.22619378334207754  0.44140019037548006  0.8558541239283591  1.0000
  C   C13       1.0  0.38320676713241936  0.5641789062913024  0.8831386364756411  1.0000
  C   C14       1.0  0.37535973308930864  0.5723230965684668  0.8415636941311457  1.0000
  C   C15       1.0  0.37392976916222936  0.5991528259678287  0.8302078340826163  1.0000
  C   C16       1.0  0.3797508307814743  0.6183108326611778  0.8607218500373754  1.0000
  C   C17       1.0  0.3877027460482598  0.610447659054182  0.9025298701911539  1.0000
  C   C18       1.0  0.3896493330680303  0.5832982325460019  0.9136360664269925  1.0000
  H   H9        1.0  0.3700479344066866  0.5580826558448863  0.8178946361251249  1.0000
  H   H10       1.0  0.36729262198066503  0.6048928301990033  0.7981490997715772  1.0000
  H   H11       1.0  0.39227591737222084  0.6252293367804188  0.9263264865556765  1.0000
  H   H12       1.0  0.3956159949268533  0.577209582498691  0.9459993860880197  1.0000
  C   C19       1.0  0.23958931983137255  0.7534040491687197  0.050478045906043656  1.0000
  C   C20       1.0  0.22607243463009222  0.7470242261684282  0.012953929092648808  1.0000
  C   C21       1.0  0.23585673004581745  0.7268859177899976  0.9854256850689719  1.0000
  C   C22       1.0  0.2593535109154651  0.7133511788854767  0.9951041449133826  1.0000
  C   C23       1.0  0.27245175754609124  0.7191364757918808  0.03335450030337861  1.0000
  C   C24       1.0  0.2624972877646875  0.7390428463251603  0.061150159260508374  1.0000
  H   H13       1.0  0.20792462811030404  0.7573688754031636  0.005342567160914857  1.0000
  H   H14       1.0  0.2254844166331732  0.7222089211241396  0.9561705925939697  1.0000
  H   H15       1.0  0.2900705141592176  0.7080362731133508  0.04186125655490902  1.0000
  H   H16       1.0  0.2727298940758355  0.7435333685273031  0.09063538597256016  1.0000
  C   C25       1.0  0.08842964816167975  0.829158482516605  0.8555284548214961  1.0000
  C   C26       1.0  0.11288995490429832  0.8369042945202181  0.8691248892412661  1.0000
  C   C27       1.0  0.12030097662760952  0.8333904877914419  0.9127010702396073  1.0000
  C   C28       1.0  0.10325202626909497  0.8220624996114958  0.9426443915559021  1.0000
  C   C29       1.0  0.07925260400520129  0.8133403598032544  0.9286188933828665  1.0000
  C   C30       1.0  0.07183635371957964  0.8168908421270057  0.8851142093997699  1.0000
  H   H17       1.0  0.12584317829630343  0.8462637943232427  0.846243113745588  1.0000
  H   H18       1.0  0.13899123364242702  0.8398940695552259  0.9232218497419363  1.0000
  H   H19       1.0  0.06626034726587471  0.8040914168943943  0.9515683191584526  1.0000
  H   H20       1.0  0.05327390917439501  0.8101603080413192  0.8745260285714758  1.0000
  C   C31       1.0  0.9108307461117072  0.4288803985821102  0.016019819916782918  1.0000
  C   C32       1.0  0.8912014515602708  0.4118942545240523  0.028400150307654748  1.0000
  C   C33       1.0  0.8952765113296949  0.3843989021741927  0.025282495082284973  1.0000
  C   C34       1.0  0.918857656963196  0.37373782572962655  0.009062923950965196  1.0000
  C   C35       1.0  0.9388100472133444  0.39058801910077534  0.9974885494475426  1.0000
  C   C36       1.0  0.9348855380694037  0.41821426712785537  0.0015057366125292848  1.0000
  H   H21       1.0  0.8728680896447314  0.41990790100108005  0.04060555766342522  1.0000
  H   H22       1.0  0.879938310705277  0.3713898826707157  0.034786594059342146  1.0000
  H   H23       1.0  0.9570889927524763  0.3824423608402965  0.9849436316890214  1.0000
  H   H24       1.0  0.9500997017857904  0.4313233773936702  0.9917329310562504  1.0000
  C   C37       1.0  0.8862786274982334  0.7527548503901093  0.7875439609584773  1.0000
  C   C38       1.0  0.9018605770737489  0.77030780068018  0.7645905174844125  1.0000
  C   C39       1.0  0.9267830679076617  0.775475651119391  0.7795756517514613  1.0000
  C   C40       1.0  0.9360228043480984  0.7633251075260922  0.817796419340829  1.0000
  C   C41       1.0  0.9209615776715928  0.7446740043135155  0.8393479717966785  1.0000
  C   C42       1.0  0.8960964384630496  0.7393437787699695  0.824184206983884  1.0000
  H   H25       1.0  0.8944262723568029  0.7803695381154717  0.7358361227580636  1.0000
  H   H26       1.0  0.9386945374902359  0.7890819100158667  0.7619065155111615  1.0000
  H   H27       1.0  0.9282146151001213  0.7349415355758231  0.8685945493517342  1.0000
  H   H28       1.0  0.8844337933854405  0.7252421190841047  0.8414166024617065  1.0000
  C   C43       1.0  0.8475838565967208  0.6101879216828462  0.8911972320596624  1.0000
  C   C44       1.0  0.8274134975643498  0.6056865126091585  0.8622455728069472  1.0000
  C   C45       1.0  0.8215384045618491  0.5795874115977325  0.8512862023736409  1.0000
  C   C46       1.0  0.8355946034977054  0.5579990645678963  0.869702853200004  1.0000
  C   C47       1.0  0.85612083975972  0.5625818395847222  0.8977973522572505  1.0000
  C   C48       1.0  0.8621078755461248  0.588623897892885  0.9085029892986122  1.0000
  H   H29       1.0  0.8161696508165887  0.6222687548336747  0.8486430214451135  1.0000
  H   H30       1.0  0.8057295075389604  0.5761517019322353  0.8293257914227786  1.0000
  H   H31       1.0  0.8675049036520215  0.54604594835337  0.9111710270438259  1.0000
  H   H32       1.0  0.8779045870589909  0.592050424963576  0.9305162147917506  1.0000
  C   C49       1.0  0.3347642561245282  0.6833674836934011  0.17881767103485396  1.0000
  C   C50       1.0  0.32454659054759943  0.6797534503715872  0.13734246028264543  1.0000
  C   C51       1.0  0.3412995091003657  0.6761826886377985  0.1014258653176281  1.0000
  C   C52       1.0  0.36824583232284325  0.675555419449528  0.1072453947769727  1.0000
  C   C53       1.0  0.37843569745091543  0.6782649754007133  0.14894098170701553  1.0000
  C   C54       1.0  0.3617107258879813  0.682561258188688  0.1846181919832788  1.0000
  H   H33       1.0  0.3036918231552089  0.6804428021056924  0.13279493527995978  1.0000
  H   H34       1.0  0.33333378701482325  0.6738777389466674  0.06929507201974872  1.0000
  H   H35       1.0  0.39927975969178786  0.6777653442687112  0.15346118468222802  1.0000
  H   H36       1.0  0.36970354021414625  0.6852511085692077  0.2165629545614334  1.0000
  C   C55       1.0  0.3832975067053732  0.573645974518266  0.612212910113927  1.0000
  C   C56       1.0  0.39227956124693386  0.5640719094211069  0.652402350831043  1.0000
  C   C57       1.0  0.3750986736522269  0.562734585894557  0.6880169110539954  1.0000
  C   C58       1.0  0.3491593670785921  0.5715596696530261  0.6836125979266091  1.0000
  C   C59       1.0  0.3409830214925099  0.5837078269500992  0.6447566206448851  1.0000
  C   C60       1.0  0.3580458005797654  0.5846829374161585  0.6090157889420728  1.0000
  H   H37       1.0  0.41203908939713857  0.5561412624857945  0.6552618241893835  1.0000
  H   H38       1.0  0.3818641233976543  0.5545343502932515  0.7185964770735175  1.0000
  H   H39       1.0  0.32109083540426314  0.591206569424505  0.6415234820077282  1.0000
  H   H40       1.0  0.3514595218674167  0.5934735087031813  0.5786749355959296  1.0000
  C   C61       1.0  0.31641478459065214  0.642615237391382  0.438892160586692  1.0000
  C   C62       1.0  0.3049705491964003  0.6629834469079541  0.41357831257047  1.0000
  C   C63       1.0  0.3172339568425453  0.6871860479544328  0.40854195348653816  1.0000
  C   C64       1.0  0.34073812303173795  0.691326946778426  0.42945068714570506  1.0000
  C   C65       1.0  0.3517201760425869  0.6713071144780056  0.4561269129573406  1.0000
  C   C66       1.0  0.3396571619265722  0.6468880953728167  0.46060496200323797  1.0000
  H   H41       1.0  0.28684612394542475  0.6598757908981059  0.3971297989803978  1.0000
  H   H42       1.0  0.3083153195889738  0.7026881607943375  0.3887338375691363  1.0000
  H   H43       1.0  0.369792936078982  0.6744779413118189  0.4726436639720631  1.0000
  H   H44       1.0  0.348199944551794  0.6315030236085657  0.4812123558643554  1.0000
  C   C67       1.0  0.010913858385978914  0.27528136171310025  0.17063659514627935  1.0000
  C   C68       1.0  0.031672937426654446  0.29229746118243927  0.1669537368621846  1.0000
  C   C69       1.0  0.04270425325193483  0.2975901555754683  0.12605472468809475  1.0000
  C   C70       1.0  0.03283891711420628  0.2860578650426775  0.08871799985496875  1.0000
  C   C71       1.0  0.012738076245026653  0.26824370668205516  0.09257797355252495  1.0000
  C   C72       1.0  0.0017961513468562895  0.26283247679682625  0.13354255352760802  1.0000
  H   H45       1.0  0.039285496719455804  0.3013773511056834  0.19564523826540886  1.0000
  H   H46       1.0  0.05844927481105722  0.3111481399203374  0.12325783752002217  1.0000
  H   H47       1.0  0.005599321344408104  0.2586348438559909  0.06402296352841486  1.0000
  H   H48       1.0  0.9858721620032784  0.24949511696810475  0.13631585713750893  1.0000
  C   C73       1.0  0.23405661019769486  0.33206364972504554  0.5836605351383711  1.0000
  C   C74       1.0  0.23753897760554257  0.33190383703151594  0.6287455764468033  1.0000
  C   C75       1.0  0.2162465591450032  0.32821907386111976  0.6567718117754945  1.0000
  C   C76       1.0  0.19173327706963308  0.3235225633686022  0.6396607555950451  1.0000
  C   C77       1.0  0.18869070476315833  0.32230669255086425  0.594663592071712  1.0000
  C   C78       1.0  0.20960981560095876  0.32714791102731  0.5667176635284057  1.0000
  H   H49       1.0  0.25654370415973354  0.33504154770027783  0.6419597334516466  1.0000
  H   H50       1.0  0.2188171443879885  0.329224651885032  0.6914717827944018  1.0000
  H   H51       1.0  0.1701617872514484  0.3175208681626128  0.5813839232306817  1.0000
  H   H52       1.0  0.20670607812516648  0.32686276233215433  0.5320736416371262  1.0000
  C   C79       1.0  0.25909412891089817  0.4447610262369  0.4245643783420953  1.0000
  C   C80       1.0  0.2680759896869796  0.46972790466747033  0.4129890595612927  1.0000
  C   C81       1.0  0.28747336474238533  0.4812129069430564  0.43756394161005513  1.0000
  C   C82       1.0  0.2978842371960823  0.46775278281419314  0.4737506998563008  1.0000
  C   C83       1.0  0.288740906430351  0.4428596678786357  0.485488875175866  1.0000
  C   C84       1.0  0.2693621356847879  0.4313717495134638  0.4609455851335105  1.0000
  H   H53       1.0  0.26003287140615283  0.4802291341189373  0.3850526500335554  1.0000
  H   H54       1.0  0.294123391386109  0.5005624066226565  0.42869915959684013  1.0000
  H   H55       1.0  0.2966684900476636  0.43242321744053547  0.5135587721246053  1.0000
  H   H56       1.0  0.2623145612520468  0.41222703682222384  0.47036715795786604  1.0000
  C   C85       1.0  0.12975367588229786  0.3439265329351959  0.40380445228659195  1.0000
  C   C86       1.0  0.13692484519397344  0.3629023147731998  0.3730164600084646  1.0000
  C   C87       1.0  0.12036025827316421  0.3694587887133644  0.33826514330426194  1.0000
  C   C88       1.0  0.09645985018465231  0.3573337458698657  0.3346847216475887  1.0000
  C   C89       1.0  0.08888930806392326  0.33911975983343284  0.3664802008886324  1.0000
  C   C90       1.0  0.10559551067528017  0.3322948194692504  0.4008717323115915  1.0000
  H   H57       1.0  0.15516697866997528  0.3725758323907357  0.3758501858895099  1.0000
  H   H58       1.0  0.1260821964378056  0.3838470075525513  0.31400137962021585  1.0000
  H   H59       1.0  0.0703502435980472  0.3299477117755643  0.3642116234403091  1.0000
  H   H60       1.0  0.09991625123237804  0.31763926334762227  0.4246900966831687  1.0000
  C   C91       1.0  0.13233361940323857  0.8874675011836975  0.2249814358411277  1.0000
  C   C92       1.0  0.15316611346819387  0.9043266152367178  0.2284687135707865  1.0000
  C   C93       1.0  0.1690778814605775  0.9092198113274365  0.19218762267179867  1.0000
  C   C94       1.0  0.1642599290425046  0.8971729078787292  0.15236022690953943  1.0000
  C   C95       1.0  0.1427973981560602  0.881183480939967  0.1483946767942692  1.0000
  C   C96       1.0  0.1268134289838452  0.8763801993378699  0.1846554848725438  1.0000
  H   H61       1.0  0.1569247675638712  0.9138192484013412  0.25901074957676984  1.0000
  H   H62       1.0  0.18541166132335732  0.9219473487730871  0.1952585780418008  1.0000
  H   H63       1.0  0.13846726392920766  0.8724760939650378  0.11741301612484012  1.0000
  H   H64       1.0  0.11053997312675042  0.8635660263360637  0.18163604853983703  1.0000
  C   C97       1.0  0.2332172509689644  0.8276020158300041  0.37651025727787935  1.0000
  C   C98       1.0  0.23891732356951703  0.8473899130417747  0.3461263211312159  1.0000
  C   C99       1.0  0.2608389689838773  0.8444692196363938  0.318939735412918  1.0000
  C   C100      1.0  0.27731750027285856  0.8218214390109408  0.3223478074972868  1.0000
  C   C101      1.0  0.27207591299924405  0.8024295552190963  0.35363710615829147  1.0000
  C   C102      1.0  0.2499883112515874  0.8052379922231393  0.38049126779054626  1.0000
  H   H65       1.0  0.2265865467696718  0.8649833403163744  0.3435326252020612  1.0000
  H   H66       1.0  0.2648365865746314  0.8596616878215869  0.295003915169352  1.0000
  H   H67       1.0  0.28494965380976567  0.7852002136870337  0.3572216917371675  1.0000
  H   H68       1.0  0.24582274094903547  0.7899268806753221  0.4041902188104467  1.0000
  C   C103      1.0  0.948251023853157  0.8989716540657336  0.5815318315180203  1.0000
  C   C104      1.0  0.966273023078957  0.882639147959242  0.5591635761887739  1.0000
  C   C105      1.0  0.9805882901613395  0.8628093009749748  0.581322094084997  1.0000
  C   C106      1.0  0.9776334216247565  0.8598447437766642  0.6262982784288277  1.0000
  C   C107      1.0  0.9613656422809282  0.8776677273495848  0.6495351163233598  1.0000
  C   C108      1.0  0.9464643746943683  0.8972053723452995  0.6270008166183622  1.0000
  H   H69       1.0  0.9686138166683345  0.884726331369608  0.5243995582796619  1.0000
  H   H70       1.0  0.9932969460993899  0.8492576571433096  0.5631822725414711  1.0000
  H   H71       1.0  0.9592974314123527  0.8756397775108505  0.684464234316998  1.0000
  H   H72       1.0  0.9327085795589081  0.9100347928250211  0.6444685106371785  1.0000
  C   C109      1.0  0.025286756644999686  0.8576113058782946  0.44150860543498993  1.0000
  C   C110      1.0  0.02355643336196378  0.8814327021009432  0.4646073570331132  1.0000
  C   C111      1.0  0.0462232258795201  0.8930546090389822  0.4792466339929524  1.0000
  C   C112      1.0  0.07063377367214828  0.8809138925290717  0.47057838826483417  1.0000
  C   C113      1.0  0.07223572518946474  0.8565343842643226  0.449251335659317  1.0000
  C   C114      1.0  0.04961462219698132  0.8448626889557012  0.43490533556661926  1.0000
  H   H73       1.0  0.004870028653396252  0.8911792094594742  0.4705542010450635  1.0000
  H   H74       1.0  0.044856235530282396  0.9118753157950461  0.49594604286898614  1.0000
  H   H75       1.0  0.09091957395395645  0.8466156065255215  0.4437165847414139  1.0000
  H   H76       1.0  0.05105250677372264  0.8262330347062616  0.4176216681668582  1.0000
  C   C115      1.0  0.8399474101588572  0.5102107889987361  0.18000795963930247  1.0000
  C   C116      1.0  0.8499210606584252  0.5041456065405256  0.13881483713729525  1.0000
  C   C117      1.0  0.834240880543121  0.5073739813506436  0.10233034939970276  1.0000
  C   C118      1.0  0.8084976666908573  0.5167743510085676  0.10671573529144984  1.0000
  C   C119      1.0  0.7988210318091341  0.5244046391689908  0.14761353714743186  1.0000
  C   C120      1.0  0.8146160028136332  0.5210759368920321  0.18446019711966313  1.0000
  H   H77       1.0  0.8693944853572114  0.49578388170893756  0.1351193711595433  1.0000
  H   H78       1.0  0.8420463938638778  0.5017157999816836  0.0710491956530972  1.0000
  H   H79       1.0  0.7789476592268366  0.5319534231570014  0.15107495078801936  1.0000
  H   H80       1.0  0.8070344227912709  0.5263029949247291  0.21631689365083073  1.0000
  C   C121      1.0  0.8985972054168767  0.4234514616429775  0.3582875199462089  1.0000
  C   C122      1.0  0.8987769447366966  0.43640209074290937  0.3178485353222502  1.0000
  C   C123      1.0  0.9152792350704507  0.4270833871658705  0.28440620345592715  1.0000
  C   C124      1.0  0.9324550209981586  0.405409725971861  0.29177615856494027  1.0000
  C   C125      1.0  0.93307953639038  0.39310047231308637  0.3327821881935723  1.0000
  C   C126      1.0  0.9160288408245287  0.40199361417087914  0.3659721837299192  1.0000
  H   H81       1.0  0.8863773732991306  0.453827297471163  0.3123688471946442  1.0000
  H   H82       1.0  0.9147210749995387  0.4368007083981353  0.2530761989155999  1.0000
  H   H83       1.0  0.9465791398249227  0.3766200316079435  0.3388944844015009  1.0000
  H   H84       1.0  0.9162781805159353  0.3921750944500171  0.3974224515122478  1.0000
  C   C127      1.0  0.8055162068315811  0.6406531269850028  0.6469700853453811  1.0000
  C   C128      1.0  0.809173413984023  0.6287109722538176  0.6878565581860827  1.0000
  C   C129      1.0  0.7944852477919334  0.6377811527272933  0.7237944563432034  1.0000
  C   C130      1.0  0.7755725081667667  0.6582031642464912  0.7185191485899138  1.0000
  C   C131      1.0  0.7714399324976832  0.6696509212186432  0.6773957240354322  1.0000
  C   C132      1.0  0.7866408626057598  0.6611000322974747  0.6416967119116959  1.0000
  H   H85       1.0  0.8238245471596887  0.6129509948173358  0.6920521030494307  1.0000
  H   H86       1.0  0.7977475059812628  0.6289480900076901  0.7556078891544149  1.0000
  H   H87       1.0  0.7569082382542732  0.6855273752324972  0.6732795343744641  1.0000
  H   H88       1.0  0.7837082356752173  0.6703355045119579  0.6101149456533203  1.0000
  C   C133      1.0  0.8871617118678624  0.7582714160551913  0.49333727030436453  1.0000
  C   C134      1.0  0.9074509143826963  0.7727897765039453  0.4758315536371796  1.0000
  C   C135      1.0  0.9019556474302352  0.7968241543008564  0.4537769186663157  1.0000
  C   C136      1.0  0.8761737940839378  0.8061901914184675  0.44905616698853057  1.0000
  C   C137      1.0  0.8559567694873835  0.7916174592713132  0.4666126149821197  1.0000
  C   C138      1.0  0.8614731417549182  0.7679448765170804  0.4892860970781485  1.0000
  H   H89       1.0  0.9273545844849078  0.7652724886319376  0.47871280597758586  1.0000
  H   H90       1.0  0.9176412125560189  0.8076575638711722  0.4393272938673122  1.0000
  H   H91       1.0  0.8359581162172923  0.7985284851973878  0.46290247710613935  1.0000
  H   H92       1.0  0.8457620460845704  0.757356336731616  0.5041261575829985  1.0000
  C   C139      1.0  0.8164516860108967  0.6184138851144115  0.38717017658184105  1.0000
  C   C140      1.0  0.795261895057954  0.6142743031428785  0.4148035886645921  1.0000
  C   C141      1.0  0.7847072438091076  0.5891478393206903  0.41805934284279483  1.0000
  C   C142      1.0  0.7956248679892858  0.567907164194462  0.3943340631941001  1.0000
  C   C143      1.0  0.8156876977135222  0.5723541736744008  0.364370108243212  1.0000
  C   C144      1.0  0.826064538099313  0.5976831242502861  0.36072053948694993  1.0000
  H   H93       1.0  0.7869920210271621  0.6303929191715054  0.4338000204805366  1.0000
  H   H94       1.0  0.7686925145180582  0.5859356933646349  0.44032628564290194  1.0000
  H   H95       1.0  0.8239346077264612  0.556120265941949  0.3453739343847077  1.0000
  H   H96       1.0  0.8422838434783227  0.6008728638274948  0.33888228118991115  1.0000
  C   C145      1.0  0.233964395294188  0.2622602112892223  0.9886811602198594  1.0000
  C   C146      1.0  0.21288283731223917  0.2795750771070038  0.9788214837007418  1.0000
  C   C147      1.0  0.1993305632487493  0.27677322452379594  0.9398972197740988  1.0000
  C   C148      1.0  0.20646489909175392  0.2563120034348292  0.9112368031856412  1.0000
  C   C149      1.0  0.22708542740062923  0.23854923801316893  0.9216463637460394  1.0000
  C   C150      1.0  0.2410793936860755  0.24173867204083985  0.9601009709539162  1.0000
  H   H97       1.0  0.20731305129184188  0.29541468325815107  0.0009630215031990463  1.0000
  H   H98       1.0  0.18338495340684827  0.29042850206579374  0.9320234913008127  1.0000
  H   H99       1.0  0.23259108091175093  0.2226713784555813  0.8995073912419819  1.0000
  H   H100      1.0  0.25737245962680894  0.2283563982559174  0.9674770339591523  1.0000
  C   C151      1.0  0.271376256879746  0.9316838675025805  0.9279797750998166  1.0000
  C   C152      1.0  0.2591163617013601  0.9278415415918594  0.8881867715631436  1.0000
  C   C153      1.0  0.24503952612764415  0.9048805855070158  0.8817959273041295  1.0000
  C   C154      1.0  0.24291297842562398  0.8861297006908158  0.9154300133006655  1.0000
  C   C155      1.0  0.2562280295359842  0.8894735239217328  0.9542618020907746  1.0000
  C   C156      1.0  0.27073607220898743  0.9120168632577569  0.9602726358848411  1.0000
  H   H101      1.0  0.2596047626912066  0.9429732095562445  0.8630636378432921  1.0000
  H   H102      1.0  0.2349037800735799  0.9022295786078118  0.851529432280304  1.0000
  H   H103      1.0  0.2553965032217505  0.8747456472132502  0.9797540162259573  1.0000
  H   H104      1.0  0.28066950255996365  0.9147338788112258  0.9907090768717662  1.0000
  C   C157      1.0  0.28077687717725225  0.113854315563791  0.908615913621095  1.0000
  C   C158      1.0  0.3070839108231909  0.1099388907638379  0.8976009854761295  1.0000
  C   C159      1.0  0.32461121349818756  0.1299482063607597  0.9058963318699605  1.0000
  C   C160      1.0  0.3158072823940544  0.15372933253116527  0.9253104581703552  1.0000
  C   C161      1.0  0.28935181390236636  0.15802185488567477  0.9343801470073433  1.0000
  C   C162      1.0  0.2718797040930784  0.1380986120802238  0.9261227344149499  1.0000
  H   H105      1.0  0.3140376383103884  0.0911808267357912  0.8841566526900786  1.0000
  H   H106      1.0  0.3450901820494763  0.12656706417405603  0.8987607080422242  1.0000
  H   H107      1.0  0.2822672397117065  0.17668715213888647  0.9477702298368473  1.0000
  H   H108      1.0  0.25147497020564813  0.14126971672507188  0.9341642303372019  1.0000
  C   C163      1.0  0.4002748002663535  0.4237720334210863  0.7469033164952963  1.0000
  C   C164      1.0  0.4057431502400809  0.4218127478278547  0.7914416602428144  1.0000
  C   C165      1.0  0.42809246381881444  0.40734970412433796  0.8055294263963438  1.0000
  C   C166      1.0  0.44522982499184915  0.39560121096095774  0.7749561918789359  1.0000
  C   C167      1.0  0.4399833411508231  0.39817440506546964  0.7305533727337892  1.0000
  C   C168      1.0  0.41736326695278486  0.4118609558733132  0.716604705656423  1.0000
  H   H109      1.0  0.3924442576686386  0.4308223945060095  0.8148913579054442  1.0000
  H   H110      1.0  0.4321808716139167  0.40532070023673  0.8398417892529061  1.0000
  H   H111      1.0  0.45315579234453063  0.38906225724420007  0.7069201641794162  1.0000
  H   H112      1.0  0.41315081279639987  0.41325685836299836  0.6822278125476885  1.0000
  C   C169      1.0  0.42746206583283336  0.2691056786432568  0.9627390910423905  1.0000
  C   C170      1.0  0.4205689382952246  0.24463261668460656  0.980268194960726  1.0000
  C   C171      1.0  0.4036331807820275  0.24375704740445597  0.016245971089488664  1.0000
  C   C172      1.0  0.3940197275447187  0.26736964754899967  0.03508264751408552  1.0000
  C   C173      1.0  0.40043349845302734  0.291781510799796  0.01696065950918113  1.0000
  C   C174      1.0  0.41701413470340176  0.2926371264214946  0.9806839423262287  1.0000
  H   H113      1.0  0.4286692414800902  0.2263905139049798  0.9665745181847848  1.0000
  H   H114      1.0  0.3986012997359898  0.22482280021666728  0.030151559818456297  1.0000
  H   H115      1.0  0.3923699689923623  0.31005870408496206  0.03059149449777676  1.0000
  H   H116      1.0  0.42163822148966357  0.3116004872095723  0.9666930246961589  1.0000
  C   C175      1.0  0.7207533764140015  0.41118109216334897  0.8946149737753541  1.0000
  C   C176      1.0  0.7298827338447638  0.42868283648423483  0.9255422042073319  1.0000
  C   C177      1.0  0.7558232758666351  0.4265049068889413  0.9390302268349275  1.0000
  C   C178      1.0  0.7726176548167656  0.40677724151444977  0.9216797875407907  1.0000
  C   C179      1.0  0.7634039501387359  0.3889856744114263  0.8913107696968698  1.0000
  C   C180      1.0  0.7375263943178862  0.3912908722698294  0.8775723762601222  1.0000
  H   H117      1.0  0.7169041554257257  0.4440106494340112  0.9388643209962741  1.0000
  H   H118      1.0  0.7627108402499913  0.4399339741803764  0.9631768524788418  1.0000
  H   H119      1.0  0.7763925851621186  0.37386800174541107  0.8774694939642841  1.0000
  H   H120      1.0  0.7307509094763196  0.37797546395057957  0.8531865027796878  1.0000
  C   C181      1.0  0.603568200020774  0.31783620826821934  0.8643255729352037  1.0000
  C   C182      1.0  0.6093521765643025  0.34104477584638987  0.8862285313442777  1.0000
  C   C183      1.0  0.5918798354321667  0.35167334191635014  0.9173304014568043  1.0000
  C   C184      1.0  0.5685171671371995  0.3392666627946654  0.926105042389018  1.0000
  C   C185      1.0  0.5632834304246191  0.31544262002900425  0.9055094538156968  1.0000
  C   C186      1.0  0.5808843960269033  0.30465466804348657  0.8747345408784848  1.0000
  H   H121      1.0  0.6271400953351342  0.35100452540300775  0.8789970653261546  1.0000
  H   H122      1.0  0.5960657816514471  0.369971509042955  0.9335932467575582  1.0000
  H   H123      1.0  0.5455587401372596  0.3054477004129782  0.9130526197450366  1.0000
  H   H124      1.0  0.5765197705747147  0.28652790434897996  0.8581392050690061  1.0000
  C   C187      1.0  0.9179158710538177  0.8977518120589457  0.9567109525962773  1.0000
  C   C188      1.0  0.9149095324173627  0.920192848685256  0.9299438569205746  1.0000
  C   C189      1.0  0.9303485559366661  0.922614446730033  0.8923699561556659  1.0000
  C   C190      1.0  0.9484972058465653  0.9024095526245569  0.8810368809530498  1.0000
  C   C191      1.0  0.9518405315420265  0.8801782412477932  0.9082579681963668  1.0000
  C   C192      1.0  0.9367937744021806  0.8780166700344088  0.9463385776775192  1.0000
  H   H125      1.0  0.9007642771931662  0.9357860512487046  0.9382060665122705  1.0000
  H   H126      1.0  0.9278972799542958  0.9399985496202474  0.8716719831728067  1.0000
  H   H127      1.0  0.9658928908677981  0.8645809276347421  0.8999880645881837  1.0000
  H   H128      1.0  0.9393108562272284  0.8607382883986486  0.9672260784689422  1.0000
  C   C193      1.0  0.8730812054815992  0.23653722668711905  0.928218812748711  1.0000
  C   C194      1.0  0.883941420148821  0.21846467727334998  0.8982255126823978  1.0000
  C   C195      1.0  0.9108152041928509  0.2176539758901754  0.8899034092788343  1.0000
  C   C196      1.0  0.9267421584219604  0.23520016639924937  0.911176000072267  1.0000
  C   C197      1.0  0.9157474512072067  0.2536041678597223  0.940460229069839  1.0000
  C   C198      1.0  0.8890451244579767  0.25400816139547155  0.949429139993336  1.0000
  H   H129      1.0  0.871691891661175  0.20508722490146974  0.8814575648419182  1.0000
  H   H130      1.0  0.9191880333193287  0.20349651634917446  0.866967081666119  1.0000
  H   H131      1.0  0.9278195457075333  0.267269109930757  0.95689790401171  1.0000
  H   H132      1.0  0.8808802580252989  0.26762643808692105  0.9732517691330854  1.0000
  C   C199      1.0  0.7363426824867048  0.23917920679282018  0.8137257416284677  1.0000
  C   C200      1.0  0.7175383874998745  0.24954319767257202  0.7850445808046108  1.0000
  C   C201      1.0  0.7198366665569199  0.27506943457455885  0.7674263302013906  1.0000
  C   C202      1.0  0.7414551015863956  0.28982115225840793  0.7772687622223962  1.0000
  C   C203      1.0  0.7600917856404389  0.27963508090180617  0.8063145958964563  1.0000
  C   C204      1.0  0.7572677779166591  0.25449724104102456  0.825158847043825  1.0000
  H   H133      1.0  0.701294097786043  0.2377651287607798  0.7761345761930635  1.0000
  H   H134      1.0  0.705264161971906  0.2830047289464486  0.7452327507587652  1.0000
  H   H135      1.0  0.7764417959600405  0.2913647224808855  0.8148509466279705  1.0000
  H   H136      1.0  0.7711087784411788  0.24719145270297307  0.8489941191771442  1.0000
  C   C205      1.0  0.8053596744208658  0.08625279464907211  0.9524306027918482  1.0000
  C   C206      1.0  0.8028226819301091  0.06398289532171964  0.9795428671476234  1.0000
  C   C207      1.0  0.8158776996515259  0.039872458343992445  0.9692758626993366  1.0000
  C   C208      1.0  0.8309849866597679  0.03779892628931347  0.9312911527186242  1.0000
  C   C209      1.0  0.8332446528799686  0.05996697281145624  0.9039396348900235  1.0000
  C   C210      1.0  0.8205489542435446  0.08420565131485613  0.9145696517218501  1.0000
  H   H137      1.0  0.7910803696844776  0.06548716760785855  0.008875540530879356  1.0000
  H   H138      1.0  0.814307839319291  0.022983713516067095  0.9908593507830047  1.0000
  H   H139      1.0  0.8449389784165744  0.05845562421345929  0.8745279626011323  1.0000
  H   H140      1.0  0.8226653724991582  0.10132883554099975  0.893541266479787  1.0000
  C   C211      1.0  0.7045887171973728  0.7957020860736808  0.8807527982410774  1.0000
  C   C212      1.0  0.7012228139727079  0.7838684302346433  0.9216423641153223  1.0000
  C   C213      1.0  0.7214262957692025  0.768150167968582  0.9399170109329451  1.0000
  C   C214      1.0  0.7450380533268587  0.7643741332459086  0.9174484492557134  1.0000
  C   C215      1.0  0.7486604336902647  0.77689387253508  0.8771752788018754  1.0000
  C   C216      1.0  0.7283792863084153  0.7923986727316459  0.8586863120024966  1.0000
  H   H141      1.0  0.682818776010851  0.7862549254358008  0.9387429323761662  1.0000
  H   H142      1.0  0.7185417573016738  0.7584451149961439  0.9710449078444332  1.0000
  H   H143      1.0  0.7672101906184168  0.7749781385127814  0.8605788661667306  1.0000
  H   H144      1.0  0.7311774483068084  0.8020119564935964  0.827464729050034  1.0000
  C   C217      1.0  0.6915205592085854  0.9177207565018907  0.9615107811875143  1.0000
  C   C218      1.0  0.700068386858351  0.9000401014423282  0.9291834151868007  1.0000
  C   C219      1.0  0.7266514544640726  0.8956556552622819  0.9211759248462027  1.0000
  C   C220      1.0  0.7448609553650583  0.9089261113777115  0.9454345889022927  1.0000
  C   C221      1.0  0.736443082636072  0.9271569606036326  0.9772008704825714  1.0000
  C   C222      1.0  0.7096839107229951  0.9316630940957523  0.9850902003714994  1.0000
  H   H145      1.0  0.6861422598919575  0.8895347017454118  0.9103568995836994  1.0000
  H   H146      1.0  0.7330668376436383  0.8816358934360834  0.8964432578412156  1.0000
  H   H147      1.0  0.750476329022048  0.9372957607252121  0.9962839610900532  1.0000
  H   H148      1.0  0.7030761691865645  0.9452251166296517  0.010307368967798158  1.0000
  C   C223      1.0  0.41319794248965364  0.7841612930823127  0.8049624730674857  1.0000
  C   C224      1.0  0.4072496593177236  0.7588773890966679  0.8202267477112062  1.0000
  C   C225      1.0  0.3923801248296276  0.7560440489233543  0.8582990288522265  1.0000
  C   C226      1.0  0.3836997888624896  0.7784772328426786  0.8815535886336135  1.0000
  C   C227      1.0  0.38945071116314317  0.8038007416483884  0.8661109676882758  1.0000
  C   C228      1.0  0.404043960825035  0.8066558301605976  0.8276530838213979  1.0000
  H   H149      1.0  0.4142146839920198  0.7414534731817248  0.8027035531095909  1.0000
  H   H150      1.0  0.3877856801628512  0.7364451788277526  0.8696891823850518  1.0000
  H   H151      1.0  0.38268159359118953  0.821225059962046  0.8838605208835089  1.0000
  H   H152      1.0  0.4084634526029313  0.8262819897043404  0.8159996338171855  1.0000
  C   C229      1.0  0.3951280101938038  0.9401685132714098  0.8188324899958915  1.0000
  C   C230      1.0  0.3745795504283994  0.9501804331496514  0.8447264104237938  1.0000
  C   C231      1.0  0.3628457982458916  0.975077237824401  0.835438020281834  1.0000
  C   C232      1.0  0.3718558016098787  0.9903038560915441  0.8006105110505262  1.0000
  C   C233      1.0  0.3932325835343206  0.9808925344450062  0.7758726733818445  1.0000
  C   C234      1.0  0.40480019079214213  0.9557232697649161  0.7848425883721271  1.0000
  H   H153      1.0  0.3670966211895883  0.9382802600611346  0.8711809933749493  1.0000
  H   H154      1.0  0.3466530152835212  0.9823246236992154  0.8551996896669298  1.0000
  H   H155      1.0  0.40042953679382537  0.9927476772768046  0.7491822937265487  1.0000
  H   H156      1.0  0.42093699055276595  0.9482425976859038  0.765201903790838  1.0000
  C   C235      1.0  0.5329768056692851  0.8706557774002872  0.7913395453709376  1.0000
  C   C236      1.0  0.5575820728267055  0.8588903618310941  0.7992857484285054  1.0000
  C   C237      1.0  0.5648184606217657  0.8517909862764567  0.8418806599760998  1.0000
  C   C238      1.0  0.54740019620146  0.8564638804470196  0.8764307375430056  1.0000
  C   C239      1.0  0.5230732032059164  0.8687618309439693  0.8686077667302919  1.0000
  C   C240      1.0  0.5160631146712625  0.8762415301745242  0.8262217356719682  1.0000
  H   H157      1.0  0.5707567508287856  0.8546244816744142  0.7723616687834503  1.0000
  H   H158      1.0  0.583620099054446  0.8421711885289007  0.8477659433932578  1.0000
  H   H159      1.0  0.5096959558933647  0.8727576264191014  0.8953545727012675  1.0000
  H   H160      1.0  0.4975891699616056  0.8865201606738924  0.8205476728423843  1.0000
  C   C241      1.0  0.27127963761909485  0.22032749728391235  0.37239359323364096  1.0000
  C   C242      1.0  0.28750927474296173  0.2310312594292353  0.34058334968704124  1.0000
  C   C243      1.0  0.2837390667066885  0.257530393774639  0.3271314524906774  1.0000
  C   C244      1.0  0.2637560994962422  0.2733917218388287  0.34565278316478004  1.0000
  C   C245      1.0  0.24640901804607243  0.2621647273738363  0.37517891356798333  1.0000
  C   C246      1.0  0.25004980850643643  0.23558886419788813  0.38829671506350283  1.0000
  H   H161      1.0  0.30276569911371065  0.2187769736413644  0.3260990042450631  1.0000
  H   H162      1.0  0.29672979408247235  0.26594358600793633  0.30338408256200655  1.0000
  H   H163      1.0  0.2302264576018624  0.2738750111165111  0.3880191854524713  1.0000
  H   H164      1.0  0.23700915439068204  0.22712891126981277  0.4120369491309374  1.0000
  C   C247      1.0  0.3643406935632512  0.15509040179168787  0.24727739184313258  1.0000
  C   C248      1.0  0.3382307382254441  0.15515197040463774  0.260288023028721  1.0000
  C   C249      1.0  0.318538133836444  0.15686858180361868  0.22913002075886157  1.0000
  C   C250      1.0  0.3248968011473143  0.15941010832700453  0.18499789381966214  1.0000
  C   C251      1.0  0.3510066967164971  0.15929067039269248  0.1718643433851148  1.0000
  C   C252      1.0  0.3707341281671414  0.1567145896979618  0.20298379585481524  1.0000
  H   H165      1.0  0.3330985263478557  0.15398192204484087  0.29436357327160406  1.0000
  H   H166      1.0  0.29834858682877047  0.1570536317090995  0.23940401806618805  1.0000
  H   H167      1.0  0.35603227840005397  0.1609138006974153  0.13778170485593155  1.0000
  H   H168      1.0  0.39093299528671266  0.15655493801948048  0.192841889117664  1.0000
  C   C253      1.0  0.27919208390343214  0.9359510629961402  0.39712655604084257  1.0000
  C   C254      1.0  0.2706981726626612  0.9625053786037704  0.4013697241261108  1.0000
  C   C255      1.0  0.24453401167210634  0.9699166586124021  0.39437757095019715  1.0000
  C   C256      1.0  0.22667613640407744  0.9505973648318207  0.3848293021334001  1.0000
  C   C257      1.0  0.23535069366121483  0.9241478495844491  0.38001384260428395  1.0000
  C   C258      1.0  0.26169329468517677  0.9169057641042024  0.38508646067870844  1.0000
  H   H169      1.0  0.28423778242932135  0.977316185848596  0.41065962411909795  1.0000
  H   H170      1.0  0.23803154981942065  0.9904494961748793  0.3978395595978585  1.0000
  H   H171      1.0  0.22170719195753896  0.9091393909374716  0.37330420649285956  1.0000
  H   H172      1.0  0.26816774819307204  0.8963557092373664  0.3817920420156382  1.0000
  C   C259      1.0  0.2660189463728313  0.9439767610300461  0.6550740215094253  1.0000
  C   C260      1.0  0.26330831585244396  0.9389161342840967  0.6997010099024903  1.0000
  C   C261      1.0  0.2533884420005618  0.958943791555105  0.72734080342479  1.0000
  C   C262      1.0  0.2451334074049998  0.9835661414307051  0.7100409714550724  1.0000
  C   C263      1.0  0.24668269086507116  0.9881497181421557  0.6651362604649854  1.0000
  C   C264      1.0  0.25757624115215194  0.9685478068595182  0.6377749201481532  1.0000
  H   H173      1.0  0.2698272385752088  0.9199410848871991  0.7131931082648445  1.0000
  H   H174      1.0  0.2519562320564682  0.9552923979852949  0.7620303846511237  1.0000
  H   H175      1.0  0.24031817437751757  0.007216684215777036  0.6517933015862547  1.0000
  H   H176      1.0  0.2596124220133344  0.9725375393323205  0.6033607629231095  1.0000
  C   C265      1.0  0.3056691130289701  0.06056014732473125  0.5143286337753539  1.0000
  C   C266      1.0  0.3304331050091639  0.053251263564452644  0.529793430524058  1.0000
  C   C267      1.0  0.35075018090334664  0.07079883067115045  0.5258047517641614  1.0000
  C   C268      1.0  0.3466373397371712  0.0953259355219307  0.5048604537514887  1.0000
  C   C269      1.0  0.3218301700074799  0.1028135711838567  0.48979287961043566  1.0000
  C   C270      1.0  0.30124491005730814  0.08554992832505849  0.4950700444781775  1.0000
  H   H177      1.0  0.3340507633946951  0.03404545523337488  0.5447913568518321  1.0000
  H   H178      1.0  0.36984815114868763  0.06499604680827664  0.5378031977504267  1.0000
  H   H179      1.0  0.31851594357466256  0.12179642480862574  0.47371473583986695  1.0000
  H   H180      1.0  0.2821304954216312  0.09126239905148559  0.4830070362032626  1.0000
  C   C271      1.0  0.385232990332848  0.44702570912678974  0.325421860817116  1.0000
  C   C272      1.0  0.37029513433513755  0.4600760318569205  0.35747510041446356  1.0000
  C   C273      1.0  0.37341427885177025  0.4870506365478947  0.36520622145028875  1.0000
  C   C274      1.0  0.3912721468862824  0.5012588396231915  0.34063644965728745  1.0000
  C   C275      1.0  0.40600529690387793  0.4883175472353939  0.30806481420423854  1.0000
  C   C276      1.0  0.4030815193401591  0.4611362482939255  0.3005966183869478  1.0000
  H   H181      1.0  0.3568294007674828  0.4492637243447544  0.3774266094641944  1.0000
  H   H182      1.0  0.36223867149859795  0.4966319696586582  0.390828475979673  1.0000
  H   H183      1.0  0.41985839545807946  0.4992281020155392  0.28898165828138606  1.0000
  H   H184      1.0  0.4144534547318332  0.4512150232497589  0.2753833052402782  1.0000
  C   C277      1.0  0.46530531186511476  0.39732028236334993  0.12167396424144084  1.0000
  C   C278      1.0  0.43809952431187343  0.3983184062200642  0.12284934181716411  1.0000
  C   C279      1.0  0.4241074639621192  0.39562168061135133  0.08423908322507256  1.0000
  C   C280      1.0  0.4374051562174296  0.39138422016731356  0.04482548708614731  1.0000
  C   C281      1.0  0.4645493795174898  0.3911371824171695  0.04360528257412799  1.0000
  C   C282      1.0  0.47847059668928554  0.39439015730924976  0.08191795995019291  1.0000
  H   H185      1.0  0.4278776386584865  0.4010892493090368  0.15343886798794282  1.0000
  H   H186      1.0  0.4030758969442177  0.39597965414836606  0.0851532158807613  1.0000
  H   H187      1.0  0.47496528942013605  0.3881762652332133  0.01324379604907655  1.0000
  H   H188      1.0  0.49952758852872065  0.3937071364230887  0.08092069697649684  1.0000
  C   C283      1.0  0.4188525194814092  0.2801276899074981  0.315756799761832  1.0000
  C   C284      1.0  0.4058858671381575  0.2965969303764849  0.34592875655472793  1.0000
  C   C285      1.0  0.3956263423387491  0.28588962554627306  0.3843239573419659  1.0000
  C   C286      1.0  0.3973838928324548  0.25850952829781804  0.39178192256144967  1.0000
  C   C287      1.0  0.4094656093946411  0.2418470053791684  0.36083511055577505  1.0000
  C   C288      1.0  0.4204831303609313  0.2526897736789524  0.32309250215082297  1.0000
  H   H189      1.0  0.40314547749118723  0.3175131939981822  0.3393526960415209  1.0000
  H   H190      1.0  0.3857791515615215  0.2987574909938886  0.4077387150108291  1.0000
  H   H191      1.0  0.41071992243144073  0.22061203051741343  0.36634812001956335  1.0000
  H   H192      1.0  0.4303869009630922  0.23977809159030583  0.29981275114463607  1.0000
  C   C289      1.0  0.721343880054353  0.38782992175878445  0.411838628594457  1.0000
  C   C290      1.0  0.731829114232191  0.4128976792483207  0.4155186535809649  1.0000
  C   C291      1.0  0.7449253904538786  0.4241623340609227  0.3801405441667992  1.0000
  C   C292      1.0  0.7478731088057885  0.41024833065470717  0.341159694181196  1.0000
  C   C293      1.0  0.7372311634323385  0.38524922493148045  0.33733414170431797  1.0000
  C   C294      1.0  0.7240604176171307  0.3740111308106114  0.3727121418668527  1.0000
  H   H193      1.0  0.7294980814807397  0.4238219402793058  0.4455755269069442  1.0000
  H   H194      1.0  0.7522187562092516  0.4438670532452215  0.382840591468015  1.0000
  H   H195      1.0  0.7395063156746609  0.37438289443004935  0.3072350415832571  1.0000
  H   H196      1.0  0.716367120017356  0.35453713098013706  0.36979818135264886  1.0000
  C   C295      1.0  0.6243180060571244  0.33111796230647145  0.5828166572317375  1.0000
  C   C296      1.0  0.63735750080601  0.3528488315071976  0.5659829959461719  1.0000
  C   C297      1.0  0.6440260661573125  0.3735708141172755  0.5932398400747604  1.0000
  C   C298      1.0  0.6384458771510932  0.3722019836889979  0.6377343671549899  1.0000
  C   C299      1.0  0.6256153397848707  0.35040618592093836  0.6548341364587735  1.0000
  C   C300      1.0  0.6182640175353213  0.33001342789043403  0.6272707471648761  1.0000
  H   H197      1.0  0.6425228240873776  0.35372095380360324  0.5320548915877839  1.0000
  H   H198      1.0  0.6541702689813871  0.3902876674943402  0.5800228994273067  1.0000
  H   H199      1.0  0.6213017750173481  0.3492646418914261  0.689261834884836  1.0000
  H   H200      1.0  0.6083718366976172  0.3131391522563917  0.6404833024802661  1.0000
  C   C301      1.0  0.5808482695408584  0.34097450432759957  0.34582012290229386  1.0000
  C   C302      1.0  0.5644311340327036  0.3508551372809998  0.312939177653617  1.0000
  C   C303      1.0  0.5401179434531351  0.36271662946400973  0.32346342309361176  1.0000
  C   C304      1.0  0.5320813301671538  0.3647283588886479  0.3669304530171484  1.0000
  C   C305      1.0  0.5485583670830996  0.35504034148507696  0.399917756984026  1.0000
  C   C306      1.0  0.5728275879240131  0.34296725259905014  0.38936249768871484  1.0000
  H   H201      1.0  0.570613427157755  0.3495529806768151  0.27922651077166344  1.0000
  H   H202      1.0  0.5278800825637725  0.37082434205593284  0.29786661977797235  1.0000
  H   H203      1.0  0.5424238667401121  0.356477746379415  0.43363171318643323  1.0000
  H   H204      1.0  0.5851740833447237  0.335033810361136  0.4149562025765469  1.0000
  C   C307      1.0  0.8835001241051114  0.019452266552450137  0.3833434658243009  1.0000
  C   C308      1.0  0.8911715404665386  0.9993033392303485  0.41259990560941573  1.0000
  C   C309      1.0  0.9039164364440627  0.9760724724748053  0.3973871605349396  1.0000
  C   C310      1.0  0.9092973703841297  0.9731080453406191  0.35297243600681016  1.0000
  C   C311      1.0  0.9027688196023921  0.9938353356225034  0.3239993945931342  1.0000
  C   C312      1.0  0.8895549821621365  0.016861910922010948  0.339066765139117  1.0000
  H   H205      1.0  0.8867494372572935  0.0013553250182447574  0.446924907862279  1.0000
  H   H206      1.0  0.9094543155429248  0.9604518584455479  0.42010377128839677  1.0000
  H   H207      1.0  0.9076778422919354  0.9919808995616133  0.2898701374488292  1.0000
  H   H208      1.0  0.8843083779706661  0.032709371131318  0.3165073762931939  1.0000
  C   C313      1.0  0.8415354353370167  0.045567881636468854  0.16526231354874718  1.0000
  C   C314      1.0  0.854298503535752  0.031322764921239754  0.13201765964421464  1.0000
  C   C315      1.0  0.8437811549065738  0.008026901584095025  0.11633359249790831  1.0000
  C   C316      1.0  0.8206333990135305  0.9988011404768211  0.13403671302816744  1.0000
  C   C317      1.0  0.8078317077160239  0.013248333641201704  0.16705487052673673  1.0000
  C   C318      1.0  0.8180558389260119  0.03674059469271884  0.18216382658433777  1.0000
  H   H209      1.0  0.872615143477451  0.03788326138042719  0.11913151885826401  1.0000
  H   H210      1.0  0.8540929653174155  0.9968850612338335  0.09155698417647962  1.0000
  H   H211      1.0  0.7900291340761108  0.006399465829376005  0.18125887999846246  1.0000
  H   H212      1.0  0.8076019804867947  0.048099693583280034  0.20680008907833702  1.0000
  C   C319      1.0  0.9069539685965617  0.3271692596508  0.47863344477940123  1.0000
  C   C320      1.0  0.9267779299740473  0.31619951849544564  0.5046975952303236  1.0000
  C   C321      1.0  0.9521947517482907  0.3133229205942191  0.4882338220301164  1.0000
  C   C322      1.0  0.9578291111320413  0.3212010321355423  0.44551777785494445  1.0000
  C   C323      1.0  0.9382013457283663  0.3330046021368678  0.419862290156631  1.0000
  C   C324      1.0  0.9127691324355413  0.3361392368878218  0.43650819607394653  1.0000
  H   H213      1.0  0.9225151779209829  0.30986923132243455  0.5376035903950829  1.0000
  H   H214      1.0  0.9673776250205374  0.3043739825122259  0.5082773930731482  1.0000
  H   H215      1.0  0.9425133408451386  0.339279720571475  0.38700630134609  1.0000
  H   H216      1.0  0.8975551903848837  0.34479151206745856  0.4162729474509015  1.0000
  C   C325      1.0  0.8615220038987541  0.176232904930485  0.7478499423286572  1.0000
  C   C326      1.0  0.8675096668761771  0.19899954870734501  0.7708319348161878  1.0000
  C   C327      1.0  0.8783899815681925  0.220544270477658  0.7490138542265252  1.0000
  C   C328      1.0  0.883019158253219  0.2194347897314217  0.7040738730568703  1.0000
  C   C329      1.0  0.8784115201215477  0.19610217687973788  0.6816019864782916  1.0000
  C   C330      1.0  0.8678246001988666  0.1744472479001108  0.7035394256320925  1.0000
  H   H217      1.0  0.8632890852485573  0.20019454260104264  0.8052535024384028  1.0000
  H   H218      1.0  0.8821436648686082  0.2384183275286167  0.7666992871345364  1.0000
  H   H219      1.0  0.8829376308253143  0.19474483012285473  0.647286407641046  1.0000
  H   H220      1.0  0.8636813184156492  0.15665020219004896  0.6858661538636297  1.0000
  C   C331      1.0  0.7614391222128271  0.24752932233646832  0.5340662478226307  1.0000
  C   C332      1.0  0.7713664204589024  0.24226058693880603  0.49233223310892693  1.0000
  C   C333      1.0  0.7543889842865469  0.24055227401555898  0.4570287262173205  1.0000
  C   C334      1.0  0.7275316806655422  0.24435203949159057  0.4634997261578445  1.0000
  C   C335      1.0  0.7176231274098283  0.24854618759731947  0.5054947854095743  1.0000
  C   C336      1.0  0.7345396230883623  0.25007494089695753  0.5407306609073173  1.0000
  H   H221      1.0  0.792069168261779  0.23977102616170146  0.4871053746191581  1.0000
  H   H222      1.0  0.7621401976035536  0.23721751382935594  0.42460209268939636  1.0000
  H   H223      1.0  0.6968406676931093  0.2506306300614502  0.510817736178753  1.0000
  H   H224      1.0  0.7267523949730762  0.2535487916954921  0.5730739531321033  1.0000
  C   C337      1.0  0.865985085631777  0.18955388891608163  0.43397946776771185  1.0000
  C   C338      1.0  0.8735206095626626  0.1731035754075075  0.39934321776837833  1.0000
  C   C339      1.0  0.8547914347803895  0.16384265600435333  0.37101242274782614  1.0000
  C   C340      1.0  0.8285582467363248  0.17129808823630976  0.3769197321301078  1.0000
  C   C341      1.0  0.8211004951157722  0.18827627213791365  0.4109865483156921  1.0000
  C   C342      1.0  0.8397661127601401  0.19708822443917612  0.4398671123272583  1.0000
  H   H225      1.0  0.8938053169511783  0.1673389164362716  0.39453871233002846  1.0000
  H   H226      1.0  0.8607482368673344  0.1513933160899119  0.3440690144701774  1.0000
  H   H227      1.0  0.800851737998616  0.1941876886791825  0.4157018994016637  1.0000
  H   H228      1.0  0.8337116636534233  0.20920462809253884  0.46717612834942057  1.0000
  C   C343      1.0  0.7595094506330405  0.7816226190802759  0.37495803328812477  1.0000
  C   C344      1.0  0.7502527664076818  0.7949208697602723  0.4120975959958503  1.0000
  C   C345      1.0  0.7525644499751477  0.7827986743905645  0.4532481872842198  1.0000
  C   C346      1.0  0.7640065907915328  0.7572659711768358  0.4573370035362998  1.0000
  C   C347      1.0  0.7722106437480832  0.7435154174776546  0.4200229533488323  1.0000
  C   C348      1.0  0.7699214741338067  0.7556635264321147  0.3789537833313846  1.0000
  H   H229      1.0  0.7414436978045277  0.8145358462126546  0.40935301239581967  1.0000
  H   H230      1.0  0.745690793301796  0.7932648345198609  0.48197154763333294  1.0000
  H   H231      1.0  0.7799567626809554  0.7233547813265186  0.42272996222260134  1.0000
  H   H232      1.0  0.7762230953836106  0.7449165318132578  0.35022220520199215  1.0000
  C   C349      1.0  0.694253210099903  0.8640343741981952  0.14953350431342374  1.0000
  C   C350      1.0  0.6940300720611294  0.8372774358621051  0.1619251326851862  1.0000
  C   C351      1.0  0.6810174283287448  0.8191674804003343  0.13630382217543313  1.0000
  C   C352      1.0  0.6682820961004543  0.827872702650245  0.09843576658040987  1.0000
  C   C353      1.0  0.6690531186379032  0.8545237668913827  0.08577134765528016  1.0000
  C   C354      1.0  0.682116797278203  0.872539881389731  0.11113386340710751  1.0000
  H   H233      1.0  0.7038118847683502  0.8305465553717966  0.19122339866413618  1.0000
  H   H234      1.0  0.6807241589756733  0.798470402978033  0.14589532844428232  1.0000
  H   H235      1.0  0.6591927539843554  0.8615094459766512  0.05682358844671853  1.0000
  H   H236      1.0  0.6822767484286388  0.8932190085106791  0.10137956674934911  1.0000
  C   C355      1.0  0.7649138005691047  0.957931569007184  0.3404377560388295  1.0000
  C   C356      1.0  0.7440383750069074  0.9654868158942574  0.31369835036414945  1.0000
  C   C357      1.0  0.7400210126689608  0.9921309802244869  0.30123394842188195  1.0000
  C   C358      1.0  0.7571525636249374  0.011190173239491674  0.3148468727754238  1.0000
  C   C359      1.0  0.777944288026011  0.0037162813331019784  0.341856807640108  1.0000
  C   C360      1.0  0.7817026082709873  0.9771393728561499  0.3548861417937944  1.0000
  H   H237      1.0  0.731051301690875  0.950876041258538  0.3023945991709831  1.0000
  H   H238      1.0  0.7237742214433054  0.9980064940501531  0.2808119985838381  1.0000
  H   H239      1.0  0.7909375446373934  0.018469156114128804  0.35322351304226607  1.0000
  H   H240      1.0  0.7976780991116885  0.9715117117203915  0.3760964053154955  1.0000
  C   C361      1.0  0.42425076642858917  0.8508703461067513  0.24731400943422913  1.0000
  C   C362      1.0  0.4005278767042847  0.8392891143969466  0.2392799882326813  1.0000
  C   C363      1.0  0.3989224170872122  0.8116600934637564  0.2397440549308678  1.0000
  C   C364      1.0  0.4213654260240926  0.7955716546914274  0.24545611304338688  1.0000
  C   C365      1.0  0.44547454492403915  0.8070785200846752  0.24961656544567093  1.0000
  C   C366      1.0  0.4468574498049578  0.8347659616972487  0.2510295857801992  1.0000
  H   H241      1.0  0.38318174409665673  0.8516250944927746  0.23448439942936541  1.0000
  H   H242      1.0  0.38026463441219105  0.8028761564505805  0.23607039071482364  1.0000
  H   H243      1.0  0.46295163673701184  0.7946411254590936  0.25305658751459903  1.0000
  H   H244      1.0  0.46544374515903925  0.8436317239874271  0.25444506353022306  1.0000
  C   C367      1.0  0.4555790696928989  0.8572184857877448  0.4907393008451693  1.0000
  C   C368      1.0  0.4370827259048704  0.8782390603507524  0.48844503931376076  1.0000
  C   C369      1.0  0.4233225661900253  0.8864462824239501  0.5259099332322571  1.0000
  C   C370      1.0  0.42808830292151917  0.8737454740418475  0.5658754728324524  1.0000
  C   C371      1.0  0.44572004646010976  0.8519764273597368  0.5677906073621162  1.0000
  C   C372      1.0  0.459349673616783  0.8436467233700699  0.5302367995494471  1.0000
  H   H245      1.0  0.43370222467531117  0.8886435062851371  0.4581840450746739  1.0000
  H   H246      1.0  0.4096201108436593  0.9032647482802683  0.5242199178852541  1.0000
  H   H247      1.0  0.44907420658972763  0.8416728887055792  0.5982178009242  1.0000
  H   H248      1.0  0.47342452249989364  0.8271806762537611  0.5321910818971654  1.0000
  C   C373      1.0  0.44343234194228337  0.9773707821876192  0.44345105585186456  1.0000
  C   C374      1.0  0.4490751157236109  0.9936648222906966  0.47847010473619406  1.0000
  C   C375      1.0  0.4332694905754869  0.9938220944047077  0.515822603651236  1.0000
  C   C376      1.0  0.4113948526513965  0.9782374203337062  0.5176673945266195  1.0000
  C   C377      1.0  0.40555188101997924  0.9621534035379741  0.48245494845556486  1.0000
  C   C378      1.0  0.42178239866107003  0.9614549941515108  0.4455380808143625  1.0000
  H   H249      1.0  0.4657663676588608  0.006069519286334701  0.47676390952601294  1.0000
  H   H250      1.0  0.4376101525102047  0.006486732957286634  0.5428654631585255  1.0000
  H   H251      1.0  0.3886269943237124  0.9500776155839161  0.48381878703278924  1.0000
  H   H252      1.0  0.4171523041738286  0.9491285465587728  0.4183095358442143  1.0000
  C   C379      1.0  0.6249786955086615  0.8805830124023437  0.35701690381089546  1.0000
  C   C380      1.0  0.6008389665515119  0.8747586146078269  0.3755600645335391  1.0000
  C   C381      1.0  0.5776639763290151  0.8830135817402867  0.3548409193634578  1.0000
  C   C382      1.0  0.5786666135905034  0.8972087162137493  0.31563651747097093  1.0000
  C   C383      1.0  0.60278156237199  0.9037256328583103  0.2978189982331899  1.0000
  C   C384      1.0  0.6259291424865849  0.8953613760983073  0.318394911576  1.0000
  H   H253      1.0  0.6000861655744144  0.8633605338143929  0.4055154333006983  1.0000
  H   H254      1.0  0.5590907856588071  0.877887885077297  0.36866799948867396  1.0000
  H   H255      1.0  0.603527316517781  0.9150347079183478  0.26778627314844594  1.0000
  H   H256      1.0  0.6444784722261755  0.9001730916373248  0.30426708206717396  1.0000
  N   N1        1.0  0.19975077108552922  0.9936078470070344  0.5091873765617208  1.0000
  C   C385      1.0  0.1855704012170711  0.004149569615016002  0.4707443113078347  1.0000
  C   C386      1.0  0.18324752513291132  0.9970164746898925  0.548524444142219  1.0000
  C   C387      1.0  0.22386403273971747  0.00820486952397026  0.5144112258844511  1.0000
  C   C388      1.0  0.20639575473680336  0.9650854953870553  0.503041889367922  1.0000
  H   H257      1.0  0.19792479686227932  0.002892102338019731  0.44084239495091304  1.0000
  H   H258      1.0  0.17939440247206107  0.025375814286850984  0.4748677941600412  1.0000
  H   H259      1.0  0.1679240968559868  0.9927404400077092  0.4642105363610447  1.0000
  H   H260      1.0  0.193435989372113  0.9892974168417329  0.5781557450739805  1.0000
  H   H261      1.0  0.1779589786498803  0.01833518118496369  0.5542642453877362  1.0000
  H   H262      1.0  0.16484462589060783  0.986269174002684  0.545570306113975  1.0000
  H   H263      1.0  0.2350751140870458  0.0010974222538548961  0.5433135577114818  1.0000
  H   H264      1.0  0.21976228904087985  0.0298909115750281  0.518541217227054  1.0000
  H   H265      1.0  0.23693849000447095  0.00587389785813075  0.4854520809776508  1.0000
  H   H266      1.0  0.21668907292967365  0.9563798765165582  0.5318081583109091  1.0000
  H   H267      1.0  0.21931042246480106  0.9619127494669857  0.47421411755938125  1.0000
  H   H268      1.0  0.188700866321165  0.9535667225682954  0.49744556261492767  1.0000
  N   N2        1.0  0.8492494638900242  0.7568639301355627  0.3426936670233543  1.0000
  C   C389      1.0  0.871990098663512  0.7503493582546635  0.3703927097476821  1.0000
  C   C390      1.0  0.8581701550923299  0.7684808016189291  0.30109937559985595  1.0000
  C   C391      1.0  0.8317030300038346  0.7762977595292898  0.36515933904350767  1.0000
  C   C392      1.0  0.8351258854891181  0.7324805209012603  0.33397766668188594  1.0000
  H   H269      1.0  0.885426287627315  0.7353195124244446  0.3549206864077625  1.0000
  H   H270      1.0  0.8660039494520944  0.7421259756864459  0.40246657139988706  1.0000
  H   H271      1.0  0.8832843563171631  0.7682619960753045  0.37698403454502266  1.0000
  H   H272      1.0  0.8414477181549684  0.7737959023354638  0.27953360313239833  1.0000
  H   H273      1.0  0.8688808611329113  0.7869401146531867  0.30660710379854517  1.0000
  H   H274      1.0  0.8714195263762524  0.7543494284438438  0.28314817229136674  1.0000
  H   H275      1.0  0.8145263185641978  0.7819480185830745  0.34487869424321604  1.0000
  H   H276      1.0  0.8417490511000939  0.7948650295861818  0.37249635370344564  1.0000
  H   H277      1.0  0.8242861208347376  0.7681414815149206  0.3965087370778401  1.0000
  H   H278      1.0  0.8273869421157837  0.7235904828111445  0.3644905649160474  1.0000
  H   H279      1.0  0.8479235425891547  0.7169835458539696  0.3182288386904496  1.0000
  H   H280      1.0  0.8182169593999019  0.7366347729977548  0.3122918364384729  1.0000
  N   N3        1.0  0.16931929265270584  0.2915448363314765  0.30878091866021934  1.0000
  C   C393      1.0  0.16930612078262586  0.29110902242708747  0.3568787103948002  1.0000
  C   C394      1.0  0.15450371159816245  0.31541965445016423  0.2932043902714844  1.0000
  C   C395      1.0  0.15701845170479167  0.2675312330452581  0.29271190786554124  1.0000
  C   C396      1.0  0.19640823043229894  0.2921408962466275  0.2924173729404885  1.0000
  H   H281      1.0  0.17850740002606824  0.3089106775708771  0.3700915929426337  1.0000
  H   H282      1.0  0.18017382612480093  0.2733159151043228  0.36993714769870323  1.0000
  H   H283      1.0  0.14916226763152873  0.2910213799974218  0.3704874192713375  1.0000
  H   H284      1.0  0.13399921084825483  0.3157476617551024  0.305283892076834  1.0000
  H   H285      1.0  0.16328236343271718  0.3339452977563951  0.3045822125514077  1.0000
  H   H286      1.0  0.15383925020987044  0.3163867132097079  0.25703530221844617  1.0000
  H   H287      1.0  0.16767332403921165  0.24911214637075593  0.30390763205234544  1.0000
  H   H288      1.0  0.1566501358807426  0.2672246691361005  0.2564876219048838  1.0000
  H   H289      1.0  0.13652514713636332  0.26657218125169524  0.30450714600489537  1.0000
  H   H290      1.0  0.197237054478  0.29253417249538033  0.2562165695961022  1.0000
  H   H291      1.0  0.20822470625064105  0.2744579039623915  0.303637686892407  1.0000
  H   H292      1.0  0.20627311263710335  0.31000271140942376  0.30408922095450963  1.0000
  N   N4        1.0  0.03764191130761341  0.8947863574897981  0.32005585603324915  1.0000
  C   C397      1.0  0.011341067496458024  0.9020531822430881  0.33698336847821564  1.0000
  C   C398      1.0  0.04155469541251433  0.9076261883267915  0.2771954806493822  1.0000
  C   C399      1.0  0.040430662878278456  0.8656515282470852  0.3153228457939932  1.0000
  C   C400      1.0  0.05737693051257775  0.9037708785222558  0.3506999834718076  1.0000
  H   H293      1.0  0.9958882557360665  0.8950862230438311  0.3152027177362404  1.0000
  H   H294      1.0  0.008407403183464224  0.9239213991738008  0.34051187392553184  1.0000
  H   H295      1.0  0.00795396768459633  0.8930008966059467  0.3696033589148803  1.0000
  H   H296      1.0  0.03981964253959447  0.9296367569656  0.2795731148007097  1.0000
  H   H297      1.0  0.06123835252345433  0.9024364296008397  0.2635741454195463  1.0000
  H   H298      1.0  0.027004374799058706  0.9012883897660858  0.2532256365287573  1.0000
  H   H299      1.0  0.03730097142873534  0.855293874209004  0.3469340807370487  1.0000
  H   H300      1.0  0.06024192290428032  0.8594895391842836  0.30326518351097254  1.0000
  H   H301      1.0  0.02602804341086995  0.8581178289977208  0.2921486605455709  1.0000
  H   H302      1.0  0.07741302195903343  0.8981911511257707  0.33924252738906135  1.0000
  H   H303      1.0  0.05488556770283659  0.894629219025064  0.38340133273267163  1.0000
  H   H304      1.0  0.05616582448281093  0.9256801625152005  0.3548317416974613  1.0000
  N   N5        1.0  0.35789594120920765  0.2419766910180934  0.2330983585306652  1.0000
  C   C401      1.0  0.3587619900862091  0.25550647897316725  0.19029200888381678  1.0000
  C   C402      1.0  0.3348233877517566  0.2254267601819794  0.2353198759438494  1.0000
  C   C403      1.0  0.3563490781546113  0.26195285582054895  0.26804381864466553  1.0000
  C   C404      1.0  0.3817086882064465  0.2249797987162396  0.23851544249536488  1.0000
  H   H305      1.0  0.3758852471496369  0.2682564341733273  0.18719287603161094  1.0000
  H   H306      1.0  0.34099161511142145  0.2683028693756465  0.18463367201089684  1.0000
  H   H307      1.0  0.36014876168521787  0.2409022717906512  0.16327999390300796  1.0000
  H   H308      1.0  0.33430107266724557  0.21360997674299526  0.2660158165566302  1.0000
  H   H309      1.0  0.3163906121842274  0.23764331722147616  0.23337665276935393  1.0000
  H   H310      1.0  0.33478274279500725  0.21112686429494099  0.2079792301023042  1.0000
  H   H311      1.0  0.35612451254652666  0.25235725516628965  0.3008338282082634  1.0000
  H   H312      1.0  0.3384926306240049  0.27497456560025874  0.2652588354752423  1.0000
  H   H313      1.0  0.37331284945796606  0.2749949386754401  0.266724218211084  1.0000
  H   H314      1.0  0.39948027059096736  0.23685658253524716  0.23693409000478377  1.0000
  H   H315      1.0  0.3835293879797002  0.20969321879062142  0.21266607613213837  1.0000
  H   H316      1.0  0.38172422389839195  0.21423374399783507  0.2703717466424474  1.0000
  N   N6        1.0  0.9332954456829764  0.46771616232921276  0.15335194183239428  1.0000
  C   C405      1.0  0.909708886397767  0.4520667032173166  0.1581476427359432  1.0000
  C   C406      1.0  0.9461169397823663  0.4696089696703026  0.1960358459748312  1.0000
  C   C407      1.0  0.9259279616954414  0.4946580547060982  0.13724820138141225  1.0000
  C   C408      1.0  0.9513660903357357  0.45453650866816486  0.12191813800167184  1.0000
  H   H317      1.0  0.9145396424800907  0.43167785301709755  0.1705948670072501  1.0000
  H   H318      1.0  0.899606149834495  0.4502613607376419  0.12642302661984273  1.0000
  H   H319      1.0  0.8956079052352017  0.46155983837115155  0.18159256839632987  1.0000
  H   H320      1.0  0.9328128347411667  0.4790964509297376  0.22072071644608734  1.0000
  H   H321      1.0  0.9522912717699389  0.449636046688768  0.20897458151680287  1.0000
  H   H322      1.0  0.9637881396163328  0.4816139091063368  0.19383202830692037  1.0000
  H   H323      1.0  0.9432492309241731  0.5069862557804795  0.1328208779512512  1.0000
  H   H324      1.0  0.9124393348570775  0.5052497574390796  0.16045676311289075  1.0000
  H   H325      1.0  0.9160265992685656  0.49391844146075276  0.10514914070495585  1.0000
  H   H326      1.0  0.9422623409464925  0.45286073035590985  0.08932039451879038  1.0000
  H   H327      1.0  0.9573286169702416  0.4341696325964921  0.1331002108183488  1.0000
  H   H328      1.0  0.969341933652802  0.4658781533423831  0.11733701257771313  1.0000
  N   N7        1.0  0.2985104908004709  0.4062588334540252  0.31177677437348567  1.0000
  C   C409      1.0  0.3104096239895037  0.40374867233241923  0.35528162204190933  1.0000
  C   C410      1.0  0.31800901705726703  0.3986440007107393  0.2780752945269809  1.0000
  C   C411      1.0  0.28942174527751596  0.43410336520394605  0.30439864364907143  1.0000
  C   C412      1.0  0.27628121683009016  0.38860099649616703  0.3093629206462183  1.0000
  H   H329      1.0  0.3275832020970985  0.41635416143192405  0.3578727789483433  1.0000
  H   H330      1.0  0.31712786339302707  0.3829460574495535  0.3624122228752689  1.0000
  H   H331      1.0  0.29636876547342156  0.4099880847148802  0.3813774441549756  1.0000
  H   H332      1.0  0.30935665079097147  0.39898598818359793  0.2450350966026928  1.0000
  H   H333      1.0  0.3343064088791663  0.4125393402607629  0.2773850391742199  1.0000
  H   H334      1.0  0.32661779579318223  0.37837880313750455  0.28419293716337035  1.0000
  H   H335      1.0  0.2744023306188374  0.4404513598789302  0.328808706036605  1.0000
  H   H336      1.0  0.2806220381376622  0.4369191219176413  0.2716916667884935  1.0000
  H   H337      1.0  0.30567377701061754  0.4479703787415187  0.3070852355729576  1.0000
  H   H338      1.0  0.261281048344406  0.39374525563683244  0.3344987388837471  1.0000
  H   H339      1.0  0.2824747450558168  0.3674087073817067  0.3147063314839363  1.0000
  H   H340      1.0  0.2665775684837681  0.39019888793058316  0.2772123711665339  1.0000
  N   N8        1.0  0.5564790532277478  0.3775975064737056  0.7858127895094033  1.0000
  C   C413      1.0  0.5710973376803544  0.3950763000797196  0.8143076798545625  1.0000
  C   C414      1.0  0.5396248415869349  0.39391848429493426  0.7565576184442221  1.0000
  C   C415      1.0  0.5401573638664072  0.36041308069148487  0.8128990691679142  1.0000
  C   C416      1.0  0.5749423682410432  0.36094028526526656  0.7597050426627486  1.0000
  H   H341      1.0  0.5838731979653616  0.3832963567101778  0.8369173082013257  1.0000
  H   H342      1.0  0.557762709194635  0.40777496395165497  0.8347359510130395  1.0000
  H   H343      1.0  0.583724713371519  0.4083420766727334  0.795039578002262  1.0000
  H   H344      1.0  0.5512142237363444  0.4071324396232295  0.7353917688536264  1.0000
  H   H345      1.0  0.5280301814427164  0.3812570101657125  0.7351066453082334  1.0000
  H   H346      1.0  0.5253549716850693  0.406561908295635  0.7753768437879063  1.0000
  H   H347      1.0  0.5264216299929301  0.3723458825379903  0.8338240406717072  1.0000
  H   H348      1.0  0.552182879928183  0.3474349600544286  0.8347259188576193  1.0000
  H   H349      1.0  0.5282615944832261  0.3473775384592421  0.7926078769742307  1.0000
  H   H350      1.0  0.5877023814594122  0.3732933437243212  0.7389806576190358  1.0000
  H   H351      1.0  0.5645787659773492  0.3474541519227998  0.7378703236803502  1.0000
  H   H352      1.0  0.5878228754646804  0.3482300810169706  0.7809083006771567  1.0000
  N   N9        1.0  0.2959295879501195  0.6080064308410509  0.8789195696655268  1.0000
  C   C417      1.0  0.3165979504569849  0.5972898868948574  0.907952372646816  1.0000
  C   C418      1.0  0.2865214308470907  0.634321348005186  0.894728026894483  1.0000
  C   C419      1.0  0.2741512567368489  0.5897207606619563  0.8788291968174785  1.0000
  C   C420      1.0  0.30649297325560315  0.6107494442180776  0.8342545152512026  1.0000
  H   H353      1.0  0.32447075931892416  0.5775782927742767  0.8968575297002773  1.0000
  H   H354      1.0  0.3093830192135137  0.594914297278834  0.9419662430019708  1.0000
  H   H355      1.0  0.3331951895273104  0.6107134091478892  0.9089555763854602  1.0000
  H   H356      1.0  0.27054379646040577  0.6429360457603656  0.8742615389814458  1.0000
  H   H357      1.0  0.27895522107249615  0.6332384679374268  0.9287766637491002  1.0000
  H   H358      1.0  0.30232698755341086  0.6488041520424354  0.8945161189960648  1.0000
  H   H359      1.0  0.258199351689396  0.5971684233942632  0.8571981296582447  1.0000
  H   H360      1.0  0.2657397604606886  0.5872476554741186  0.9120736863257201  1.0000
  H   H361      1.0  0.2805775000283174  0.569658514694175  0.8671250906840786  1.0000
  H   H362      1.0  0.3226075335446457  0.6248673819449178  0.8331871632724881  1.0000
  H   H363      1.0  0.29131029214367704  0.6182315583874345  0.8112095032284339  1.0000
  H   H364      1.0  0.31438544351463815  0.5913899462887092  0.8215646953099541  1.0000
  N   N10       1.0  0.4930580589676349  0.7896770159523371  0.8549020910673936  1.0000
  C   C421      1.0  0.5019837571734072  0.7993826342054982  0.8119442846599287  1.0000
  C   C422      1.0  0.48227522905429715  0.7631070988917915  0.8500858320587015  1.0000
  C   C423      1.0  0.4726968789502624  0.808220680636838  0.8724002897131917  1.0000
  C   C424      1.0  0.5152153050336209  0.7880365815780406  0.8851813981648105  1.0000
  H   H365      1.0  0.4857485800079942  0.8006912649496444  0.7881902492580355  1.0000
  H   H366      1.0  0.5174912296314832  0.786026337638063  0.7978106920189905  1.0000
  H   H367      1.0  0.5099706584208524  0.8195267060779061  0.814208289058811  1.0000
  H   H368      1.0  0.4971401937828801  0.7485062390552718  0.8373273197945579  1.0000
  H   H369      1.0  0.47479841582003984  0.7553892281872053  0.8816637641950135  1.0000
  H   H370      1.0  0.4657341048163928  0.7636716338383095  0.8269466291989075  1.0000
  H   H371      1.0  0.4654453383792123  0.8015962053571525  0.9047812513486736  1.0000
  H   H372      1.0  0.45565803648442266  0.8097580486731047  0.8504313611292356  1.0000
  H   H373      1.0  0.4800368427308057  0.8285740319381094  0.8760704571938913  1.0000
  H   H374      1.0  0.5092281458473579  0.7807199186030405  0.9178993747637181  1.0000
  H   H375      1.0  0.5235668517326824  0.8078290099580883  0.8898126636330645  1.0000
  H   H376      1.0  0.53116208684643  0.7745168436889807  0.8728417612388956  1.0000
  N   N11       1.0  0.315827415600405  0.04622472697418556  0.674110533220739  1.0000
  C   C425      1.0  0.3164121049536718  0.06861761200404803  0.7047829584447998  1.0000
  C   C426      1.0  0.30126191330901836  0.05470347777671858  0.6348126850542617  1.0000
  C   C427      1.0  0.3028292383819175  0.023749926295267176  0.6951583150159998  1.0000
  C   C428      1.0  0.34277918871104124  0.03794631856673836  0.6618902919061013  1.0000
  H   H377      1.0  0.3272569464439366  0.06287060920243004  0.7348850745451797  1.0000
  H   H378      1.0  0.29642362073221773  0.07537942861066482  0.7149180023788875  1.0000
  H   H379      1.0  0.32607937639915674  0.08593259395001684  0.69001182102875  1.0000
  H   H380      1.0  0.3000816406580676  0.03824554828914439  0.6111448953969617  1.0000
  H   H381      1.0  0.28092444136007116  0.06130431749718457  0.6430413851863637  1.0000
  H   H382      1.0  0.3106144773015478  0.07144205301209228  0.6176550018601824  1.0000
  H   H383      1.0  0.30178441697219005  0.006531916990547781  0.6729788644542454  1.0000
  H   H384      1.0  0.2825342861396003  0.02945008191863896  0.7051910197124218  1.0000
  H   H385      1.0  0.31325394105047116  0.016770914278331217  0.7249363270935453  1.0000
  H   H386      1.0  0.3433024507138276  0.02101587928374249  0.6389682924487705  1.0000
  H   H387      1.0  0.35426698216974756  0.03161448121758759  0.6910246707253677  1.0000
  H   H388      1.0  0.3530853670359959  0.0544144561360862  0.6457137940242818  1.0000
  N   N12       1.0  0.4970007050008359  0.2848571644494016  0.3728685189786757  1.0000
  C   C429      1.0  0.48162903648442545  0.3101859117114937  0.37355484062700417  1.0000
  C   C430      1.0  0.4971548625002565  0.2739939238013578  0.32832390178835363  1.0000
  C   C431      1.0  0.48513523669393466  0.2658206081723219  0.4032875760477543  1.0000
  C   C432      1.0  0.5239836127316109  0.2895677319357873  0.3861180885088227  1.0000
  H   H389      1.0  0.4811348949082154  0.3191839680718079  0.4065384326803955  1.0000
  H   H390      1.0  0.46119841098399117  0.30740496396537975  0.36350415272726627  1.0000
  H   H391      1.0  0.49008044548449853  0.3249862696502101  0.35105185660515414  1.0000
  H   H392      1.0  0.508971330838309  0.2550879484527432  0.326307137794863  1.0000
  H   H393      1.0  0.47713019694018094  0.2698627240926576  0.31752165179316166  1.0000
  H   H394      1.0  0.5053488058357841  0.2882104872543574  0.30436883662908754  1.0000
  H   H395      1.0  0.484769278859887  0.27340429518387827  0.4372291155267252  1.0000
  H   H396      1.0  0.49606725266068397  0.24633928948976158  0.40342410733842726  1.0000
  H   H397      1.0  0.46464881803831987  0.26209244177338376  0.39426476860398263  1.0000
  H   H398      1.0  0.5361142985001914  0.27081914475135965  0.3869770054521213  1.0000
  H   H399      1.0  0.5246059108551062  0.29861135553645063  0.41902703095251964  1.0000
  H   H400      1.0  0.5335889998333293  0.30340431484092034  0.36310687916996864  1.0000
  N   N13       1.0  0.7916170668359163  0.22411418933872862  0.7046709236491852  1.0000
  C   C433      1.0  0.7827066558836638  0.20047914849730872  0.7284997255707912  1.0000
  C   C434      1.0  0.7689252252867913  0.24051991654158786  0.6899784163536863  1.0000
  C   C435      1.0  0.8073468791104039  0.21560648582459266  0.6665380819908264  1.0000
  C   C436      1.0  0.8076604948095012  0.239954494779436  0.7335112435069467  1.0000
  H   H401      1.0  0.7994512369825494  0.18768074568684148  0.740061393162708  1.0000
  H   H402      1.0  0.7705873361468686  0.18807266682374432  0.7076084144237733  1.0000
  H   H403      1.0  0.7708088009841871  0.20615748502145698  0.757641439813847  1.0000
  H   H404      1.0  0.775078740955882  0.25889205082947936  0.6730517882677489  1.0000
  H   H405      1.0  0.7568755959091266  0.22957090056782986  0.6667690123113735  1.0000
  H   H406      1.0  0.7562986544604314  0.24664563968746248  0.7178383372115813  1.0000
  H   H407      1.0  0.8154488856050922  0.23298331868620284  0.6493288375311335  1.0000
  H   H408      1.0  0.7956119938189811  0.20485129179366815  0.6426358227458775  1.0000
  H   H409      1.0  0.8239691425106221  0.20224415329927167  0.6762264874147502  1.0000
  H   H410      1.0  0.7964438662650739  0.2469753660015047  0.7624609762969674  1.0000
  H   H411      1.0  0.8151267428133432  0.25769537832800016  0.7163550354831341  1.0000
  H   H412      1.0  0.824728653314308  0.22805292620584847  0.7454914025247391  1.0000
  N   N14       1.0  0.04156336318858922  0.8908508673757721  0.9337558166284501  1.0000
  C   C437      1.0  0.060389575942389584  0.8864759796351733  0.8976698363908892  1.0000
  C   C438      1.0  0.052167779862112296  0.90953695656266  0.9651901114760721  1.0000
  C   C439      1.0  0.03696254131808918  0.8653042259118569  0.9559884221599699  1.0000
  C   C440      1.0  0.01681134538311513  0.9020454501171553  0.9161848117391249  1.0000
  H   H413      1.0  0.0528502749304991  0.8727304187315545  0.8729952476495106  1.0000
  H   H414      1.0  0.07915752478331317  0.8775388421299545  0.9095831464179385  1.0000
  H   H415      1.0  0.06463503154450367  0.9053003849947091  0.8803525133628065  1.0000
  H   H416      1.0  0.07090847510167397  0.901587586417285  0.9788977126291345  1.0000
  H   H417      1.0  0.05587534155702101  0.9290430557968135  0.9495558262810189  1.0000
  H   H418      1.0  0.03845336129532839  0.9131779308615708  0.992928390197083  1.0000
  H   H419      1.0  0.022141903949159714  0.8676153477331389  0.9824126964383445  1.0000
  H   H420      1.0  0.05513449098437673  0.8567693338763207  0.9709090663781523  1.0000
  H   H421      1.0  0.02999320184049692  0.8502967211366282  0.9329146641813673  1.0000
  H   H422      1.0  0.0018505964121600105  0.9052971779314295  0.9421988119308345  1.0000
  H   H423      1.0  0.008565935604809116  0.888566766432209  0.8919186805392587  1.0000
  H   H424      1.0  0.019432848908926825  0.9213744141092424  0.8992347353341368  1.0000
  N   N15       1.0  0.7042883592599398  0.731223940080685  0.778671247557112  1.0000
  C   C441      1.0  0.7113328689778511  0.7207011291157018  0.8222435653962519  1.0000
  C   C442      1.0  0.684406031917248  0.7529969984176468  0.7832019729085616  1.0000
  C   C443      1.0  0.6937489744746895  0.7097935592616453  0.7523028505697494  1.0000
  C   C444      1.0  0.7276582814459327  0.741444581752542  0.756893075240495  1.0000
  H   H425      1.0  0.726597779057966  0.7044886534966815  0.8200705801828712  1.0000
  H   H426      1.0  0.6942695412933316  0.7125654001672037  0.839532675133887  1.0000
  H   H427      1.0  0.7190706392232432  0.7363871833460198  0.8431931910602027  1.0000
  H   H428      1.0  0.6668749882834037  0.7464043618396443  0.8011275362074453  1.0000
  H   H429      1.0  0.6920277829380954  0.7698842139734012  0.8015318446895549  1.0000
  H   H430      1.0  0.6780577600472641  0.7609485399972483  0.7509649592300067  1.0000
  H   H431      1.0  0.6885905723970966  0.7169241962684586  0.7189985256323611  1.0000
  H   H432      1.0  0.6760229259484527  0.7017248882854302  0.7676647290883636  1.0000
  H   H433      1.0  0.7081780906756202  0.6929273194519737  0.7485051941482934  1.0000
  H   H434      1.0  0.7364354473507121  0.7572446415808497  0.7764472404342112  1.0000
  H   H435      1.0  0.7230216780537476  0.7499496177852261  0.7242247127366612  1.0000
  H   H436      1.0  0.7428781843026442  0.7254064034021588  0.752148261803455  1.0000
  N   N16       1.0  0.9649136304560866  0.3481855484182208  0.12580849767771585  1.0000
  C   C445      1.0  0.9681629263970493  0.3306236452736499  0.0877576843353367  1.0000
  C   C446      1.0  0.959163357226691  0.3321003717660376  0.1649064973281864  1.0000
  C   C447      1.0  0.9432070035959982  0.36764791471911684  0.11816387629957581  1.0000
  C   C448      1.0  0.9891800820250936  0.36233164700187936  0.1323947446057372  1.0000
  H   H437      1.0  0.9505607653344577  0.3189557013961231  0.08235828091251873  1.0000
  H   H438      1.0  0.9848388705536391  0.3162104409214284  0.09201492750889373  1.0000
  H   H439      1.0  0.9718318585719177  0.34214994857989245  0.057436678787965656  1.0000
  H   H440      1.0  0.9564844985181326  0.34468972871518316  0.1943394491580921  1.0000
  H   H441      1.0  0.9412372217692513  0.3207666750312718  0.16084434187987773  1.0000
  H   H442      1.0  0.9752661570444637  0.317419170652042  0.17182079142278806  1.0000
  H   H443      1.0  0.9473293681770518  0.38072782857619647  0.0897861189781286  1.0000
  H   H444      1.0  0.9396266870095844  0.3804724712461236  0.14711962458149785  1.0000
  H   H445      1.0  0.9248845267079202  0.35751587087011716  0.11102912334866444  1.0000
  H   H446      1.0  0.9874718532121194  0.37580913944789357  0.1609227482309188  1.0000
  H   H447      1.0  0.9942567378550827  0.374425219757495  0.10328987009857449  1.0000
  H   H448      1.0  0.005931768098064172  0.3481066056913564  0.13832349148001688  1.0000
  N   N17       1.0  0.2441122561461475  0.4086489346342683  0.6808744634416171  1.0000
  C   C449      1.0  0.23257840925985085  0.4200493874368922  0.7211416847357026  1.0000
  C   C450      1.0  0.22323461155274504  0.39906502357907225  0.6529779696492245  1.0000
  C   C451      1.0  0.2621942739069527  0.3862190342084147  0.692193842298928  1.0000
  C   C452      1.0  0.25848813149976646  0.4292150456145572  0.6572299911179239  1.0000
  H   H449      1.0  0.247730222362041  0.42813043233375675  0.742437197394692  1.0000
  H   H450      1.0  0.2223494060691218  0.40479667865878194  0.7405350045637743  1.0000
  H   H451      1.0  0.21825229873818164  0.4365606076596398  0.713982407640591  1.0000
  H   H452      1.0  0.23130746926976342  0.38973351223766056  0.6227202794635504  1.0000
  H   H453      1.0  0.21169075659509895  0.383886371885285  0.6702450740271848  1.0000
  H   H454      1.0  0.20948599566914128  0.4155311278667066  0.6430606964463984  1.0000
  H   H455      1.0  0.27190698978583416  0.37766105132347555  0.6627070633903043  1.0000
  H   H456      1.0  0.2518470997819384  0.3699481108156637  0.7089281107117139  1.0000
  H   H457      1.0  0.2776824880354627  0.3924634484627652  0.7145328216915726  1.0000
  H   H458      1.0  0.24549962553402027  0.44659958611601297  0.648589003292643  1.0000
  H   H459      1.0  0.2672051623007681  0.4213238980795562  0.6263930373517543  1.0000
  H   H460      1.0  0.2745669752059321  0.43662544755423116  0.677302272140391  1.0000
  N   N18       1.0  0.6756470748930246  0.263267645373725  0.9032903654391888  1.0000
  C   C453      1.0  0.6679239731337487  0.25510702130347135  0.8593259965891283  1.0000
  C   C454      1.0  0.659705597048284  0.2868794925847074  0.9166486537481389  1.0000
  C   C455      1.0  0.7034374220284076  0.2697140169161758  0.902739493455373  1.0000
  C   C456      1.0  0.671523153486645  0.24126148889959423  0.9343729899007687  1.0000
  H   H461      1.0  0.6467980914596502  0.25119079458171345  0.8579723294063946  1.0000
  H   H462      1.0  0.6789004012527509  0.23674215901083814  0.8489150926813614  1.0000
  H   H463      1.0  0.6715874807277545  0.27089153907923536  0.8346671178928083  1.0000
  H   H464      1.0  0.6385712011915357  0.28284414844292527  0.9167184108131716  1.0000
  H   H465      1.0  0.6647851049425051  0.2935764807326125  0.9497816526359902  1.0000
  H   H466      1.0  0.6624294133928954  0.3038308316619471  0.8938686093544838  1.0000
  H   H467      1.0  0.7075948344190456  0.2850921410728406  0.8776162819988766  1.0000
  H   H468      1.0  0.7160544644660597  0.2518809096854178  0.8952242866594987  1.0000
  H   H469      1.0  0.7096510568408363  0.27729599332051696  0.9347335347229068  1.0000
  H   H470      1.0  0.6772509975121498  0.24664141928660552  0.9678968953000251  1.0000
  H   H471      1.0  0.683274633895999  0.22311120790644734  0.9250017317171657  1.0000
  H   H472      1.0  0.6507394452938219  0.23588682678615228  0.9354771612530268  1.0000
  N   N19       1.0  0.37597802990476786  0.7607828805526967  0.10304349898630649  1.0000
  C   C457      1.0  0.3871556003471033  0.7748717128528125  0.14004903706268415  1.0000
  C   C458      1.0  0.3689091953848284  0.7799947536130212  0.06809493566890912  1.0000
  C   C459      1.0  0.3525124268724836  0.7471777273916732  0.11796769455158329  1.0000
  C   C460      1.0  0.3953888929729132  0.7410047550787857  0.08617032899577226  1.0000
  H   H473      1.0  0.39283875134324203  0.7607881478913401  0.16676319511528345  1.0000
  H   H474      1.0  0.3730042438187982  0.789798786089712  0.15399827538812694  1.0000
  H   H475      1.0  0.4049294447366175  0.7854129720066759  0.13027838233796873  1.0000
  H   H476      1.0  0.35422900260476653  0.7951933895313568  0.07960978803932961  1.0000
  H   H477      1.0  0.38618538996604007  0.790583419713997  0.0560318796797179  1.0000
  H   H478      1.0  0.36057125197154755  0.7699173709872471  0.039570331172881  1.0000
  H   H479      1.0  0.3440261125997966  0.7354284778134672  0.09155254169757066  1.0000
  H   H480      1.0  0.3371133108036056  0.7614736192172508  0.1299417410901582  1.0000
  H   H481      1.0  0.35708064868082134  0.7330795182617248  0.14509318583338235  1.0000
  H   H482      1.0  0.41355957151621964  0.7504318563819574  0.07535133183526455  1.0000
  H   H483      1.0  0.3877819998700863  0.7302255877309527  0.05781544894537749  1.0000
  H   H484      1.0  0.40077714103543643  0.7257946912288469  0.11134346197513767  1.0000
  N   N20       1.0  0.8885051489559256  0.8257033959602773  0.8846278752788365  1.0000
  C   C461      1.0  0.886243145969184  0.7994973297881278  0.9059760728798778  1.0000
  C   C462      1.0  0.8798417561726389  0.8468103742674563  0.9152000222366122  1.0000
  C   C463      1.0  0.8720943498382322  0.8270113719262399  0.845394143333968  1.0000
  C   C464      1.0  0.9158971073726497  0.8294410305058006  0.8718848820448386  1.0000
  H   H485      1.0  0.8925480223061337  0.7831695333540859  0.8837263483605929  1.0000
  H   H486      1.0  0.8658436519489365  0.7959567842552333  0.9161356350652542  1.0000
  H   H487      1.0  0.8986666708153971  0.7976638438802657  0.9354069065268273  1.0000
  H   H488      1.0  0.8822396938404556  0.8669703134302298  0.9009042554436923  1.0000
  H   H489      1.0  0.8590212406315445  0.8452143580000036  0.9245410499966826  1.0000
  H   H490      1.0  0.8912941441381819  0.8457990083701213  0.9457778665893571  1.0000
  H   H491      1.0  0.8735217843517765  0.8464834807744512  0.8283453309846834  1.0000
  H   H492      1.0  0.851264201949737  0.8242756627367643  0.853730087694821  1.0000
  H   H493      1.0  0.8780747123021048  0.8111794371834212  0.8218435882690591  1.0000
  H   H494      1.0  0.9185325654766388  0.8493078355610517  0.8566987548417055  1.0000
  H   H495      1.0  0.9228647639283118  0.8143312421623881  0.8479587726163144  1.0000
  H   H496      1.0  0.9290465843361493  0.8275612470050002  0.9003760927815899  1.0000
  N   N21       1.0  0.8639525621602863  0.10862148136023642  0.4899044398056005  1.0000
  C   C465      1.0  0.8818023190072702  0.10718264196459204  0.5273405736808684  1.0000
  C   C466      1.0  0.8476062288809912  0.08514051745896656  0.49036924866561243  1.0000
  C   C467      1.0  0.8792983940951365  0.10918924881522218  0.4490059475027791  1.0000
  C   C468      1.0  0.8471608954911325  0.13299493022399966  0.4928940463860829  1.0000
  H   H497      1.0  0.8709119365803227  0.10675987319814051  0.5587947530234778  1.0000
  H   H498      1.0  0.8944508480555698  0.12463900118945714  0.5278665236511255  1.0000
  H   H499      1.0  0.8947842341932427  0.089000498844092  0.5259915368298812  1.0000
  H   H500      1.0  0.8345657768277776  0.0851154216109018  0.46161657733559797  1.0000
  H   H501      1.0  0.8597328526604525  0.06636380491203897  0.4891637612818858  1.0000
  H   H502      1.0  0.8352610622225075  0.08433132701669899  0.5202013723721017  1.0000
  H   H503      1.0  0.8921010622373705  0.09098458438595158  0.4455329498262474  1.0000
  H   H504      1.0  0.8918517352523652  0.12666836726468955  0.447555769167622  1.0000
  H   H505      1.0  0.8664777452110557  0.11013604609360983  0.41995707517160713  1.0000
  H   H506      1.0  0.8343357287339903  0.13270983378200563  0.5222122505671465  1.0000
  H   H507      1.0  0.8345429002479114  0.13557601199215297  0.4637633586910955  1.0000
  H   H508      1.0  0.8589777324548227  0.15094143883290156  0.49521703712901805  1.0000
  N   N22       1.0  0.7755651873054918  0.9849818691053169  0.8601913310779375  1.0000
  C   C469      1.0  0.7766719635299901  0.009657921432929095  0.8856750488458655  1.0000
  C   C470      1.0  0.7584253380146128  0.9662586670873086  0.8826688171364843  1.0000
  C   C471      1.0  0.8019900290966809  0.9726953766480634  0.8560638236800984  1.0000
  C   C472      1.0  0.765312262759167  0.991295868740868  0.8164173743618637  1.0000
  H   H509      1.0  0.7898760256722261  0.024043785006213403  0.8700848173529078  1.0000
  H   H510      1.0  0.7843011037302088  0.005569420624966792  0.9189160483311649  1.0000
  H   H511      1.0  0.7571712590190695  0.01971495242097343  0.8893501902421792  1.0000
  H   H512      1.0  0.7574796460099522  0.9471758108958608  0.8648243069018873  1.0000
  H   H513      1.0  0.7656707075136876  0.9611802006931806  0.9158102202768524  1.0000
  H   H514      1.0  0.7382396017203477  0.9746893584117656  0.8863969290043098  1.0000
  H   H515      1.0  0.8020750704407007  0.9539352759140229  0.837245137015447  1.0000
  H   H516      1.0  0.810211227871074  0.9678098754337471  0.8885500838183246  1.0000
  H   H517      1.0  0.815688556882787  0.9863522245548892  0.8398908105042973  1.0000
  H   H518      1.0  0.7642809442421875  0.9730925318194176  0.7963323410148916  1.0000
  H   H519      1.0  0.7779302700754277  0.005351583022745521  0.7987068426122119  1.0000
  H   H520      1.0  0.7454013179047949  0.0006722707651056758  0.8183299437106448  1.0000
  N   N23       1.0  0.7180125619389446  0.33125634927963854  0.6105986521396192  1.0000
  C   C473      1.0  0.7175517184612943  0.3432762881650879  0.5665275609611368  1.0000
  C   C474      1.0  0.7143858402265126  0.35236796041025636  0.6434354960180755  1.0000
  C   C475      1.0  0.7432788536019226  0.3169523931174079  0.6175806009596809  1.0000
  C   C476      1.0  0.696804704986115  0.31241022934530677  0.6149543118423044  1.0000
  H   H521      1.0  0.7215376468749111  0.32810394451333164  0.5409979816778137  1.0000
  H   H522      1.0  0.7324390734581233  0.35855751821972853  0.562598934515681  1.0000
  H   H523      1.0  0.6982823476197777  0.35312274633890733  0.5593284774367726  1.0000
  H   H524      1.0  0.7151254784686054  0.34404725784485995  0.6770641791577251  1.0000
  H   H525      1.0  0.7297899829339961  0.3671885913950848  0.6407794243978696  1.0000
  H   H526      1.0  0.6952900137255522  0.3632697831753274  0.6396754159764841  1.0000
  H   H527      1.0  0.7465642819128814  0.30064068205610467  0.5936608023422736  1.0000
  H   H528      1.0  0.7443672429348543  0.30794779099417524  0.6508021238579451  1.0000
  H   H529      1.0  0.759768246195092  0.3304778207277271  0.6141294163471253  1.0000
  H   H530      1.0  0.6967804733804602  0.302696247356439  0.6476208956199742  1.0000
  H   H531      1.0  0.6985138358637515  0.2965620558469272  0.5899530783208379  1.0000
  H   H532      1.0  0.6774223138160432  0.32261093616492953  0.6108150414949055  1.0000
  N   N24       1.0  0.10960803417803501  0.28724235350811056  0.9221423764281329  1.0000
  C   C477      1.0  0.1258689822226743  0.31054216339315943  0.9270760137434765  1.0000
  C   C478      1.0  0.1261598745694014  0.2640266963924382  0.908966293055996  1.0000
  C   C479      1.0  0.08976911491546871  0.29294423925828517  0.8885272150349461  1.0000
  C   C480      1.0  0.0965647621112843  0.28160359776064375  0.9640575204176778  1.0000
  H   H533      1.0  0.11388841410892653  0.32864928525732523  0.9356095771926897  1.0000
  H   H534      1.0  0.136532777279167  0.3150674468475661  0.8964157195955114  1.0000
  H   H535      1.0  0.14047391368493092  0.30732352545817204  0.9531966816070084  1.0000
  H   H536      1.0  0.11467645793884514  0.24588366094955696  0.9061014210768727  1.0000
  H   H537      1.0  0.13569879719643463  0.26746037674771006  0.876825930000045  1.0000
  H   H538      1.0  0.1419483726032212  0.25961575122160135  0.9327919336295434  1.0000
  H   H539      1.0  0.07626541451080637  0.3096029614298376  0.8984126472363838  1.0000
  H   H540      1.0  0.07772439685093889  0.27547920785006397  0.8827597848150387  1.0000
  H   H541      1.0  0.0988231074352722  0.29864425699698444  0.8569238208028914  1.0000
  H   H542      1.0  0.0847334781773842  0.2992082549426552  0.9754085773880158  1.0000
  H   H543      1.0  0.11081677579394798  0.27640488137473973  0.9900599408137839  1.0000
  H   H544      1.0  0.08314299638056127  0.2648973375496034  0.961447829006703  1.0000
  N   N25       1.0  0.4544784789554987  0.44894176029829674  0.41367295451353514  1.0000
  C   C481      1.0  0.4369613801632081  0.4711171340665554  0.42824394754246486  1.0000
  C   C482      1.0  0.4390845710283663  0.42539169080214184  0.4052480027926877  1.0000
  C   C483      1.0  0.47379786504210625  0.44241396776474706  0.44779256327221983  1.0000
  C   C484      1.0  0.46810518125251854  0.45677518093315594  0.373274164505152  1.0000
  H   H545      1.0  0.4222639062189222  0.4764872812945025  0.4030813829777738  1.0000
  H   H546      1.0  0.44781819774531395  0.48934003131726794  0.4346834070136832  1.0000
  H   H547      1.0  0.4261295343203284  0.4659429824425974  0.4584516153618255  1.0000
  H   H548      1.0  0.45174460225876895  0.4081830965718629  0.3947802934258018  1.0000
  H   H549      1.0  0.4280856309599706  0.4191706355073301  0.43470143560556856  1.0000
  H   H550      1.0  0.42469760178795485  0.42938396373346216  0.37903056304828076  1.0000
  H   H551      1.0  0.4873024786080651  0.4257157424105584  0.4376055473336751  1.0000
  H   H552      1.0  0.4642068909271012  0.43627876865605436  0.4786855482873375  1.0000
  H   H553      1.0  0.4858254308487887  0.4597093818899283  0.45494931612347733  1.0000
  H   H554      1.0  0.48171588975643237  0.44056389138665325  0.3616328563350618  1.0000
  H   H555      1.0  0.47964200036287585  0.47471069620891093  0.3782059866647185  1.0000
  H   H556      1.0  0.4540978915678431  0.46152441989047455  0.34663235363174916  1.0000
  N   N26       1.0  0.348322292311536  0.8877802007773586  0.3152432191706491  1.0000
  C   C485      1.0  0.36048069357310897  0.907376273470005  0.34335270281608227  1.0000
  C   C486      1.0  0.36130935516116275  0.8614423374783436  0.32211301109613205  1.0000
  C   C487      1.0  0.3510353211226431  0.8960122844422753  0.2692034821985646  1.0000
  C   C488      1.0  0.3204116039122778  0.8862717466197005  0.32621132506002326  1.0000
  H   H557      1.0  0.3507605975070802  0.927387366833545  0.3399619110301578  1.0000
  H   H558      1.0  0.3814687222879425  0.9092913246979262  0.33505863389611135  1.0000
  H   H559      1.0  0.35911890229035714  0.9015921063715594  0.3783201651054455  1.0000
  H   H560      1.0  0.3586271491857566  0.8542877414307116  0.35613484638089365  1.0000
  H   H561      1.0  0.35328769429613416  0.8462698098080677  0.30032531572440635  1.0000
  H   H562      1.0  0.3826010175342952  0.8621404461894512  0.3157754722381332  1.0000
  H   H563      1.0  0.34260141818135276  0.881341420153154  0.24698816263208387  1.0000
  H   H564      1.0  0.3717862314965675  0.8979410189616602  0.2597737260955561  1.0000
  H   H565      1.0  0.3410079437798725  0.9156055783327375  0.26301259341995464  1.0000
  H   H566      1.0  0.31011387316736844  0.9060058789843093  0.3231008408617851  1.0000
  H   H567      1.0  0.31744822392461264  0.8790815129090477  0.3601456940234015  1.0000
  H   H568      1.0  0.3106503226062345  0.8724119608524106  0.3043456590022927  1.0000
  N   N27       1.0  0.6136481990319459  0.8407393161188709  0.215888184936093  1.0000
  C   C489      1.0  0.6345514478797922  0.8598125925506659  0.21021298869992916  1.0000
  C   C490      1.0  0.588331975336702  0.853981871042268  0.20528718915421776  1.0000
  C   C491      1.0  0.613138970790211  0.8311554828160193  0.2615074428031314  1.0000
  C   C492      1.0  0.6186149352402383  0.8179961242768604  0.18649182946769988  1.0000
  H   H569      1.0  0.6537504388789651  0.8508638220525706  0.21982544982339677  1.0000
  H   H570      1.0  0.6310051775818428  0.8777128726873386  0.2305387680885791  1.0000
  H   H571      1.0  0.6362566350471363  0.8665957119815542  0.17576255338946437  1.0000
  H   H572      1.0  0.5720404589202914  0.8402774767950851  0.2095970922194963  1.0000
  H   H573      1.0  0.583986005476198  0.8713073799726422  0.22681173512311908  1.0000
  H   H574      1.0  0.5879966757309306  0.8614311514900543  0.1710933358835967  1.0000
  H   H575      1.0  0.5980450814795615  0.8162099773442562  0.2667488161596466  1.0000
  H   H576      1.0  0.6086200062523924  0.8476451647058328  0.28448080365572714  1.0000
  H   H577      1.0  0.6322375250021257  0.8219224689645811  0.2712793187307391  1.0000
  H   H578      1.0  0.6031408254957469  0.8032544097816757  0.18948413375719403  1.0000
  H   H579      1.0  0.6375138589959323  0.8074967778418679  0.1938113811359784  1.0000
  H   H580      1.0  0.6194299253941102  0.824485907545095  0.15174192836963055  1.0000
  N   N28       1.0  0.3622300795514775  0.48863323408490744  0.61904834020803  1.0000
  C   C493      1.0  0.3421367494751785  0.5102587559561998  0.615262944150726  1.0000
  C   C494      1.0  0.3778588676441692  0.49258509408159573  0.6583193621814076  1.0000
  C   C495      1.0  0.37949461320997246  0.4888344620968537  0.5803840777027045  1.0000
  C   C496      1.0  0.34952206296708677  0.4628865993410509  0.6223663617843447  1.0000
  H   H581      1.0  0.3510442576121401  0.529800436217472  0.6108872292147143  1.0000
  H   H582      1.0  0.32946324511666913  0.5115529216489081  0.6447935348652313  1.0000
  H   H583      1.0  0.3294034509841333  0.5074393215401798  0.586723462027271  1.0000
  H   H584      1.0  0.3925106841905761  0.47603696487888114  0.6632323244933844  1.0000
  H   H585      1.0  0.3885863831939257  0.5111947274825066  0.6561598423089078  1.0000
  H   H586      1.0  0.3653495281688185  0.49361107820060846  0.6879356501175836  1.0000
  H   H587      1.0  0.39522906351026726  0.47317414711914646  0.5827500881825112  1.0000
  H   H588      1.0  0.38877749092027436  0.5083543450878512  0.5763816672786355  1.0000
  H   H589      1.0  0.3685135756741846  0.48524629610627534  0.5502068501389281  1.0000
  H   H590      1.0  0.3375928452788242  0.45924474213323996  0.5930795409105764  1.0000
  H   H591      1.0  0.3365324151197169  0.4621718566760554  0.6515067001512416  1.0000
  H   H592      1.0  0.36409341089103164  0.4461093662424029  0.6256992246283039  1.0000
  N   N29       1.0  0.7962807412228041  0.8698372426466048  0.44723826742191003  1.0000
  C   C497      1.0  0.7698244554718715  0.8805772389376892  0.45749095192760714  1.0000
  C   C498      1.0  0.8145460813162342  0.8917737378482616  0.4452070638202508  1.0000
  C   C499      1.0  0.7962601241823319  0.8562866966199911  0.4047323080916316  1.0000
  C   C500      1.0  0.8045060310764433  0.8506966265170856  0.4815823796612459  1.0000
  H   H593      1.0  0.7556027723756379  0.864492619667077  0.45951850551563594  1.0000
  H   H594      1.0  0.7628477916836542  0.8949978134445525  0.43216540729554126  1.0000
  H   H595      1.0  0.7691974135768842  0.8912125905489976  0.4890639590034513  1.0000
  H   H596      1.0  0.8346509872390903  0.8843519468238423  0.43694375850062206  1.0000
  H   H597      1.0  0.8087016686419517  0.9067120427342124  0.419879026061561  1.0000
  H   H598      1.0  0.8153900283685326  0.902308668254754  0.47678562839456556  1.0000
  H   H599      1.0  0.8159369751223041  0.847979027215058  0.396031784468028  1.0000
  H   H600      1.0  0.7900987187191206  0.8701773519259739  0.3780887525740087  1.0000
  H   H601      1.0  0.7827869148848958  0.8395588611742876  0.4048498647787981  1.0000
  H   H602      1.0  0.824941245760622  0.8434710701950482  0.476353008615002  1.0000
  H   H603      1.0  0.7920796345984146  0.8330529862829983  0.482205632819871  1.0000
  H   H604      1.0  0.8034601825452587  0.859890998633337  0.5143536121331986  1.0000
  N   N30       1.0  0.4087596055225444  0.45592934944053326  0.9362609114041754  1.0000
  C   C501      1.0  0.43036986214821116  0.45017286466596435  0.9667007193548086  1.0000
  C   C502      1.0  0.3963320771812132  0.4310037709260608  0.924805860654573  1.0000
  C   C503      1.0  0.41897460086411864  0.4685219439072114  0.8963145965981153  1.0000
  C   C504      1.0  0.3893116087868976  0.4740484517994581  0.9573563408050575  1.0000
  H   H605      1.0  0.44487588984701426  0.4355222964018152  0.9528894545023379  1.0000
  H   H606      1.0  0.4232012476929741  0.4416403593597681  0.9979086927243779  1.0000
  H   H607      1.0  0.4407392110705809  0.4684492899214233  0.9747194053732312  1.0000
  H   H608      1.0  0.38715673222558533  0.4217407969491229  0.9538282483881588  1.0000
  H   H609      1.0  0.3808536682746008  0.43446008206378817  0.900187789096979  1.0000
  H   H610      1.0  0.4107250454789367  0.416130723294498  0.9113347342513877  1.0000
  H   H611      1.0  0.4031836326642116  0.47331776432067896  0.8727017911627447  1.0000
  H   H612      1.0  0.4337033575212129  0.45532182673802746  0.8796430696971019  1.0000
  H   H613      1.0  0.428205704324654  0.4875901935941145  0.903667337931479  1.0000
  H   H614      1.0  0.3813607451829929  0.46520519681824835  0.98775040960252  1.0000
  H   H615      1.0  0.3726362883669084  0.47881153311841396  0.9354563472836837  1.0000
  H   H616      1.0  0.3979211056834299  0.49320806331996575  0.966116834720161  1.0000
  N   N31       1.0  0.34738939536194435  0.6187316135750384  0.3111862670652122  1.0000
  C   C505      1.0  0.32686894630419083  0.6051465439086566  0.33568056621328396  1.0000
  C   C506      1.0  0.35436679822767786  0.6428503013112934  0.3347597513644045  1.0000
  C   C507      1.0  0.3376865837273938  0.6263230490773893  0.26751257922049354  1.0000
  C   C508      1.0  0.3705631069662878  0.6006331325869624  0.30696462127068963  1.0000
  H   H617      1.0  0.3203841490909358  0.5873513446266132  0.31827007113159383  1.0000
  H   H618      1.0  0.30946952498859365  0.6185580858164533  0.34140569117339753  1.0000
  H   H619      1.0  0.3339097189875818  0.5983400226835123  0.368162632543631  1.0000
  H   H620      1.0  0.3705965199446214  0.653007437477978  0.3182861229333728  1.0000
  H   H621      1.0  0.3376054650480448  0.6574476689032328  0.33662395743979606  1.0000
  H   H622      1.0  0.3604061888613029  0.6381309072944649  0.36876138279145937  1.0000
  H   H623      1.0  0.3198200923045389  0.6394865786416908  0.26973424917998395  1.0000
  H   H624      1.0  0.3327244004971801  0.6086541670327278  0.2482861310647528  1.0000
  H   H625      1.0  0.3523242837505427  0.6374185867106268  0.24851504836713487  1.0000
  H   H626      1.0  0.3863229542780383  0.6099758129041704  0.2879207581108537  1.0000
  H   H627      1.0  0.36586420460648894  0.5818643603423136  0.2904062130202578  1.0000
  H   H628      1.0  0.37859000615901317  0.5949108893571349  0.339428290896339  1.0000
  N   N32       1.0  0.8585619434874129  0.10475346228239998  0.052983437876785056  1.0000
  C   C509      1.0  0.8330306993277663  0.09894993354176412  0.07258198826355522  1.0000
  C   C510      1.0  0.8667254754560901  0.08327586369433981  0.022748411803299007  1.0000
  C   C511      1.0  0.8780385212238249  0.10651886069646647  0.08779230061266197  1.0000
  C   C512      1.0  0.8564439967688946  0.13024384376876166  0.028850695002068383  1.0000
  H   H629      1.0  0.8176200048024101  0.09858009247815192  0.047509424989793825  1.0000
  H   H630      1.0  0.8267943111635598  0.11416307364369202  0.0969520911068178  1.0000
  H   H631      1.0  0.8335837533618714  0.07939220449637552  0.08964094513870835  1.0000
  H   H632      1.0  0.886335882418014  0.08651292486349971  0.008579191054453261  1.0000
  H   H633      1.0  0.86734884602466  0.06353001388850643  0.0393269235792848  1.0000
  H   H634      1.0  0.8530974761575174  0.08211140393714977  0.9950770650725462  1.0000
  H   H635      1.0  0.8973871658299964  0.1116993169246137  0.0744808237105965  1.0000
  H   H636      1.0  0.8805861475382283  0.08732675834606575  0.10573146280198409  1.0000
  H   H637      1.0  0.8720354624467639  0.12176702912814023  0.11228894024799496  1.0000
  H   H638      1.0  0.850198442466824  0.14688743170570898  0.05059229612694893  1.0000
  H   H639      1.0  0.8418550159305805  0.12951058237684215  0.0023281423036698445  1.0000
  H   H640      1.0  0.8752975162913685  0.1352948631491876  0.013433698479162981  1.0000
  N   N33       1.0  0.8031673270679954  0.5958088524736747  0.010450209826871504  1.0000
  C   C513      1.0  0.814397861216859  0.588798875246662  0.05333796023539361  1.0000
  C   C514      1.0  0.8088012730763962  0.5739090233425888  0.9797498246125371  1.0000
  C   C515      1.0  0.8148082372603386  0.6202734080631076  0.9936719119349441  1.0000
  C   C516      1.0  0.7747155463878536  0.6001364868611102  0.014952196238760429  1.0000
  H   H641      1.0  0.805884192018091  0.5705218212039552  0.06705405111547291  1.0000
  H   H642      1.0  0.8107707012226268  0.6049705782852096  0.07730525505349006  1.0000
  H   H643      1.0  0.8358150002218102  0.5849360540492672  0.05092122357258111  1.0000
  H   H644      1.0  0.8013997485570467  0.5787608248678832  0.9465697645128649  1.0000
  H   H645      1.0  0.8300793084376081  0.56972237704431  0.9765959141135194  1.0000
  H   H646      1.0  0.7998458558669435  0.5552213871199051  0.9907846364036497  1.0000
  H   H647      1.0  0.810882874782604  0.6373866814988959  0.015690820581530485  1.0000
  H   H648      1.0  0.8070986490698896  0.6259770835773665  0.9609954259104849  1.0000
  H   H649      1.0  0.8363150598230656  0.6176526345049125  0.9899424725841826  1.0000
  H   H650      1.0  0.7656891364155769  0.6053498789489689  0.9830543264277871  1.0000
  H   H651      1.0  0.7697160040287334  0.6165692754324782  0.037874299390218136  1.0000
  H   H652      1.0  0.7654371900688212  0.5819379465833192  0.027572103180505403  1.0000
  N   N34       1.0  0.20124220365447515  0.9521775303263654  0.003173628107913329  1.0000
  C   C517      1.0  0.1756728178106775  0.9484144589982926  0.02415375542229037  1.0000
  C   C518      1.0  0.20101396776317543  0.9416421527191409  0.9584392232521185  1.0000
  C   C519      1.0  0.22170844399953069  0.9379037328065514  0.028593859936981936  1.0000
  C   C520      1.0  0.20667039419385805  0.9807626397327895  0.001457671380051151  1.0000
  H   H653      1.0  0.17533672058426586  0.955489296745602  0.05841115753835169  1.0000
  H   H654      1.0  0.17101815984043955  0.9270425831775592  0.025422330555234796  1.0000
  H   H655      1.0  0.1597597278934542  0.9592124518242395  0.006339023891401174  1.0000
  H   H656      1.0  0.21948598140451658  0.9455445861179428  0.9410153608628113  1.0000
  H   H657      1.0  0.19861594287182102  0.9197628491960376  0.9582841015342001  1.0000
  H   H658      1.0  0.18503610743669774  0.9510302283544428  0.9388680979180609  1.0000
  H   H659      1.0  0.22116458918386814  0.943920116225557  0.06337451732266253  1.0000
  H   H660      1.0  0.2414114404369678  0.9419696644680653  0.015600940882574355  1.0000
  H   H661      1.0  0.21936273325615477  0.916030176705885  0.028046258112204292  1.0000
  H   H662      1.0  0.19173336381651343  0.992193949699731  0.982294502998305  1.0000
  H   H663      1.0  0.22592702713871482  0.9841404555947887  0.9857028915681978  1.0000
  H   H664      1.0  0.20707856935970828  0.9893650079375579  0.034662877357964694  1.0000
  N   N35       1.0  0.06259191291548216  0.8683771354900283  0.616753614999885  1.0000
  C   C521      1.0  0.08318885405729559  0.8842934441306951  0.5968951072004007  1.0000
  C   C522      1.0  0.07363713585432818  0.8514592958073104  0.6520954427571763  1.0000
  C   C523      1.0  0.05155600696294971  0.851396481241216  0.5831169353415199  1.0000
  C   C524      1.0  0.041952238176017786  0.8864055534346656  0.634839768631675  1.0000
  H   H665      1.0  0.0751841779811604  0.8977532948751479  0.5709498669075166  1.0000
  H   H666      1.0  0.0986829534908289  0.8714621466006233  0.5813533989440985  1.0000
  H   H667      1.0  0.09256618897570679  0.8968069559202198  0.6214164701745143  1.0000
  H   H668      1.0  0.08938511003258442  0.8376820449158113  0.6397710736777412  1.0000
  H   H669      1.0  0.08188280147058746  0.863539666567469  0.67843665860326  1.0000
  H   H670      1.0  0.05848036003562895  0.8391007452737131  0.6675006695590796  1.0000
  H   H671      1.0  0.03684265957097521  0.8381440856746057  0.5972406550177441  1.0000
  H   H672      1.0  0.06684363738521926  0.8385216758609256  0.5671911418162879  1.0000
  H   H673      1.0  0.041832430932800646  0.8634640150489988  0.5570628299947766  1.0000
  H   H674      1.0  0.04986701353731893  0.90036021681558  0.6587666102728942  1.0000
  H   H675      1.0  0.026830790151259443  0.8751671248857151  0.652227931336629  1.0000
  H   H676      1.0  0.032001344088592454  0.8983619285832134  0.6088156312224059  1.0000
  N   N36       1.0  0.5683549892991203  0.9337507565158039  0.9218694691309233  1.0000
  C   C525      1.0  0.5574052396635347  0.9607107222192774  0.9126238811879646  1.0000
  C   C526      1.0  0.5936492873047384  0.9355443443369962  0.9438794155029907  1.0000
  C   C527      1.0  0.572143811139625  0.9192502444471129  0.8805556986958152  1.0000
  C   C528      1.0  0.5502346513301551  0.9194052964155229  0.9504001407632859  1.0000
  H   H677      1.0  0.538227179602958  0.959935943955306  0.8962246290754289  1.0000
  H   H678      1.0  0.5705430540328548  0.9719943556901616  0.8909281245475954  1.0000
  H   H679      1.0  0.5544111146276761  0.9722963492448403  0.9430660543635362  1.0000
  H   H680      1.0  0.5916958393864992  0.9463242931556679  0.9752584545415065  1.0000
  H   H681      1.0  0.6023484000626903  0.9154912925344852  0.9513993683412777  1.0000
  H   H682      1.0  0.6080721848165432  0.9459346944656966  0.9233161530290235  1.0000
  H   H683      1.0  0.5799853154987569  0.8987316006715484  0.8865155426947187  1.0000
  H   H684      1.0  0.586073020529872  0.9291547933087633  0.8584305618206334  1.0000
  H   H685      1.0  0.5535203876297039  0.9175720131969864  0.8627709971214717  1.0000
  H   H686      1.0  0.5459666507969808  0.9303438769896663  0.9810963507669105  1.0000
  H   H687      1.0  0.558519691121545  0.8994791316943328  0.9597824174237334  1.0000
  H   H688      1.0  0.5314293943140518  0.9162116067676108  0.9339425029067752  1.0000
  N   N37       1.0  0.37634402775112796  0.230145324136148  0.8647542163900533  1.0000
  C   C529      1.0  0.40417668363669773  0.23591694369806684  0.8602974529174011  1.0000
  C   C530      1.0  0.36759267755436115  0.23539784890065815  0.9099320680788279  1.0000
  C   C531      1.0  0.37256302266624874  0.20198829092408263  0.8542924126854334  1.0000
  C   C532      1.0  0.36101292184428596  0.24733857274722507  0.834519394828424  1.0000
  H   H689      1.0  0.4162631400664734  0.2241855830517193  0.8840178316790467  1.0000
  H   H690      1.0  0.40751862745521833  0.2572492312531766  0.8664053683222239  1.0000
  H   H691      1.0  0.4118272305897959  0.2313537296540584  0.8271229034247165  1.0000
  H   H692      1.0  0.3464257177955914  0.23220503436189363  0.9139948883621904  1.0000
  H   H693      1.0  0.3778035494903453  0.22180085665689941  0.9334848436003843  1.0000
  H   H694      1.0  0.37135818759003153  0.2560816117369746  0.9198793999937019  1.0000
  H   H695      1.0  0.37949485268441047  0.19707512395671042  0.8208309818855059  1.0000
  H   H696      1.0  0.35165346716240975  0.19710116477304332  0.8565547843237208  1.0000
  H   H697      1.0  0.38319273970934076  0.18844050321248784  0.8774402397968787  1.0000
  H   H698      1.0  0.3398964541191224  0.243357479826854  0.8369038793444424  1.0000
  H   H699      1.0  0.3672459321351741  0.2440239885130437  0.8001421097316189  1.0000
  H   H700      1.0  0.3633178317744432  0.2687269388746032  0.8417638498560884  1.0000
  N   N38       1.0  0.6431679542966148  0.4050171096012059  0.3466876204237214  1.0000
  C   C533      1.0  0.6156571680989515  0.3999172224127875  0.35689181180542484  1.0000
  C   C534      1.0  0.6562325505433643  0.38042968264923455  0.3302972172509031  1.0000
  C   C535      1.0  0.6563552351384884  0.41361157855831254  0.3864379014924066  1.0000
  C   C536      1.0  0.6444796052386761  0.4260389578291448  0.31301550596617006  1.0000
  H   H701      1.0  0.605041383436929  0.4179883218620308  0.3692601248276182  1.0000
  H   H702      1.0  0.6139881820619012  0.38410238295883997  0.3821358372465487  1.0000
  H   H703      1.0  0.6052354513221959  0.3930297722218406  0.3276972509970168  1.0000
  H   H704      1.0  0.6770115006522356  0.38344904223165255  0.3220124823023847  1.0000
  H   H705      1.0  0.6556647571202627  0.36427853314899794  0.35503127002164964  1.0000
  H   H706      1.0  0.6465264422821345  0.37299025582036716  0.3007815073621436  1.0000
  H   H707      1.0  0.6770837161953194  0.4179109026879235  0.37975197153987583  1.0000
  H   H708      1.0  0.6562684881471993  0.3979930287181491  0.4122935796126733  1.0000
  H   H709      1.0  0.646807943761077  0.4318662334454856  0.4002729772752287  1.0000
  H   H710      1.0  0.6348063075876772  0.44491337476713977  0.3242904115282952  1.0000
  H   H711      1.0  0.6347441829570815  0.42012835239959934  0.2825558214873542  1.0000
  H   H712      1.0  0.6650183576217321  0.4303043036436104  0.30457057748460664  1.0000
  N   N39       1.0  0.9368444181375583  0.2463505440612353  0.39330830469799  1.0000
  C   C537      1.0  0.9492877709637288  0.2194510086341678  0.3944245837761504  1.0000
  C   C538      1.0  0.9341095723852744  0.2564979122293998  0.43814194354824976  1.0000
  C   C539      1.0  0.9108374843673842  0.24524697161870673  0.37353100048235593  1.0000
  C   C540      1.0  0.953104704814051  0.2642576950323138  0.3673176145355837  1.0000
  H   H713      1.0  0.9519133849686159  0.21127392080554952  0.36107145836910304  1.0000
  H   H714      1.0  0.9373268386742781  0.20543744385074544  0.4135665800511647  1.0000
  H   H715      1.0  0.9687974038631586  0.2196157351214608  0.4097629652673181  1.0000
  H   H716      1.0  0.9232694181019457  0.27599111099318796  0.43875902750173046  1.0000
  H   H717      1.0  0.9232710496227458  0.2427351185440957  0.45943215823669814  1.0000
  H   H718      1.0  0.9534056348767963  0.2592857614270775  0.45321219264366863  1.0000
  H   H719      1.0  0.901016152555527  0.2652957336494853  0.372022880172211  1.0000
  H   H720      1.0  0.8979802633337673  0.23219524556137516  0.39280554686566344  1.0000
  H   H721      1.0  0.9120828979331665  0.23736713362454903  0.33982694247494116  1.0000
  H   H722      1.0  0.9446097324415901  0.2848902076436045  0.3669701542032774  1.0000
  H   H723      1.0  0.955291326049462  0.25763203325868234  0.3329513379927732  1.0000
  H   H724      1.0  0.9730060894800198  0.26530598960568363  0.38102663582059193  1.0000
  N   N40       1.0  0.8498045294077591  0.33075472602558054  0.9339824875998262  1.0000
  C   C541      1.0  0.8517725407972749  0.319138444574302  0.9782023831226849  1.0000
  C   C542      1.0  0.8221295255511917  0.33359064645463  0.9216589882712474  1.0000
  C   C543      1.0  0.8638744863206411  0.31308174217855156  0.9028406423364989  1.0000
  C   C544      1.0  0.8614435075469674  0.35712968914505216  0.9333241037171456  1.0000
  H   H725      1.0  0.8431487201950835  0.29918536314491173  0.9797785363949434  1.0000
  H   H726      1.0  0.8415250673348342  0.33199728871857365  0.0026401455548659136  1.0000
  H   H727      1.0  0.8724347839559544  0.316639273800357  0.9884555951576134  1.0000
  H   H728      1.0  0.812798145500866  0.314009269168178  0.9215455147051753  1.0000
  H   H729      1.0  0.8109499709831423  0.3467362801422497  0.9446739737813048  1.0000
  H   H730      1.0  0.8198645032108035  0.34260548165082566  0.888656742017028  1.0000
  H   H731      1.0  0.8847529442913101  0.3101783072079539  0.9117560046633445  1.0000
  H   H732      1.0  0.8630674573361377  0.3213198185799146  0.8691769345767119  1.0000
  H   H733      1.0  0.8554057074678882  0.2930504946891462  0.9023118898139949  1.0000
  H   H734      1.0  0.8594227046752128  0.36697068829130003  0.9009235716255142  1.0000
  H   H735      1.0  0.8825377265568107  0.35562898465078163  0.9410762874397206  1.0000
  H   H736      1.0  0.8518805891854118  0.3707147884653095  0.9575295145673939  1.0000
  N   N41       1.0  0.3797267671586418  0.6509091365396895  0.7111413806535282  1.0000
  C   C545      1.0  0.38091872693703005  0.6489610295881987  0.6631755090157547  1.0000
  C   C546      1.0  0.3994736440517751  0.6323343013528215  0.7303352011271586  1.0000
  C   C547      1.0  0.3535435250669566  0.643996552159847  0.7267050135753252  1.0000
  C   C548      1.0  0.384969527730775  0.6783167240543828  0.7243865379602187  1.0000
  H   H737      1.0  0.36601978078840347  0.6623559737424352  0.6474399313154032  1.0000
  H   H738      1.0  0.37741958796982544  0.6284052742202697  0.6523436443651535  1.0000
  H   H739      1.0  0.40029860387008775  0.6542941361538216  0.650125083114471  1.0000
  H   H740      1.0  0.39990013958323267  0.634051489578076  0.7664121684607079  1.0000
  H   H741      1.0  0.3954832314878077  0.6113399224332896  0.7226337129455984  1.0000
  H   H742      1.0  0.41934147488475004  0.6363433610917085  0.7179893367545124  1.0000
  H   H743      1.0  0.3491879204164436  0.623163823934421  0.7185873523254992  1.0000
  H   H744      1.0  0.3381159793302226  0.6571201378495239  0.7118620737563451  1.0000
  H   H745      1.0  0.35172490047892907  0.6459974860905247  0.7626338505070958  1.0000
  H   H746      1.0  0.37044720645218526  0.6929065528372297  0.7105489185321457  1.0000
  H   H747      1.0  0.4046059828283325  0.684230805751589  0.7134071429010992  1.0000
  H   H748      1.0  0.38416272674276714  0.6803701078537974  0.7605169825555972  1.0000
  N   N42       1.0  0.8237252737080344  0.37388639546063634  0.4208731827581066  1.0000
  C   C549      1.0  0.8411011581463456  0.3847823362218396  0.453772247487609  1.0000
  C   C550      1.0  0.8302826382730989  0.38476783654403707  0.37750021247765764  1.0000
  C   C551      1.0  0.7963923083736311  0.3813576562253193  0.431843533511791  1.0000
  C   C552      1.0  0.8271773192671218  0.34465224768589553  0.4203330478998923  1.0000
  H   H749      1.0  0.8373920695898607  0.376346500255219  0.48673229425412307  1.0000
  H   H750      1.0  0.838739411321986  0.4067831341369112  0.45572538621639513  1.0000
  H   H751      1.0  0.8619632625086464  0.38014007474902833  0.44581691943427876  1.0000
  H   H752      1.0  0.8276606220839045  0.40675051138609686  0.37680563073577006  1.0000
  H   H753      1.0  0.8510023150621117  0.38010918011268596  0.36863284577871885  1.0000
  H   H754      1.0  0.8177487183956201  0.37687056306847555  0.3517057689129785  1.0000
  H   H755      1.0  0.7827431681147533  0.3735719260239837  0.4075564298944605  1.0000
  H   H756      1.0  0.7931511025522  0.40332442526354495  0.43250902236813543  1.0000
  H   H757      1.0  0.7907340142037734  0.3734429135448396  0.4643480527464821  1.0000
  H   H758      1.0  0.8476514209057515  0.33843526285425335  0.41227563452629445  1.0000
  H   H759      1.0  0.8143168492399031  0.33565383190959763  0.3960962929433281  1.0000
  H   H760      1.0  0.8227376533990663  0.3358045600403797  0.45278824260237294  1.0000
  N   N43       1.0  0.8434266234180531  0.5727507166655438  0.5116070182392023  1.0000
  C   C553      1.0  0.8172622789523538  0.5850112533822187  0.5194558369885001  1.0000
  C   C554      1.0  0.8420168429064478  0.5435407693150436  0.5143360557799705  1.0000
  C   C555      1.0  0.8615521550943227  0.5820623400471537  0.5446891948678003  1.0000
  C   C556      1.0  0.8528241569725955  0.5803612038941505  0.4678289792403892  1.0000
  H   H761      1.0  0.8103866203523078  0.5814257696736115  0.5533811755322492  1.0000
  H   H762      1.0  0.8026777960410777  0.576853981249245  0.49730657051913785  1.0000
  H   H763      1.0  0.8170562519312697  0.6069140133151127  0.5143645083031626  1.0000
  H   H764      1.0  0.8284219340434872  0.5360020331553074  0.48957537449255606  1.0000
  H   H765      1.0  0.8613638972354928  0.533551446982034  0.5083120755586311  1.0000
  H   H766      1.0  0.8349033506711948  0.5370817366516936  0.5468996653603545  1.0000
  H   H767      1.0  0.8631916998033239  0.6039987039361415  0.542846676030361  1.0000
  H   H768      1.0  0.8813987785237608  0.5729006033811906  0.5402890345719819  1.0000
  H   H769      1.0  0.8547211358246856  0.5772952451985172  0.578254936472461  1.0000
  H   H770      1.0  0.8729947566505791  0.5725478536845844  0.4614991345812371  1.0000
  H   H771      1.0  0.8525865391141979  0.602328914039226  0.4633060516316847  1.0000
  H   H772      1.0  0.8404104649935972  0.5723211697356599  0.44216673882390345  1.0000
  N   N44       1.0  0.7270812324456406  0.17207360291288554  0.3631462913421567  1.0000
  C   C557      1.0  0.7324815273210654  0.14681310734965836  0.34001161504494015  1.0000
  C   C558      1.0  0.7375027530239036  0.19429045056165362  0.3374823347857611  1.0000
  C   C559      1.0  0.7396291898346293  0.1709092826527978  0.4062315478084912  1.0000
  C   C560      1.0  0.6986832741584663  0.17634664375464792  0.3689393039931816  1.0000
  H   H773      1.0  0.7250521041320434  0.1295794765603897  0.3585606860884677  1.0000
  H   H774      1.0  0.7537191067297541  0.14293112821595777  0.3349953962857461  1.0000
  H   H775      1.0  0.7233958555182788  0.147031184572729  0.30729603079973666  1.0000
  H   H776      1.0  0.7337699176783169  0.21363205772942773  0.3541061327023709  1.0000
  H   H777      1.0  0.7589248984025369  0.1917880133993244  0.3327043109665679  1.0000
  H   H778      1.0  0.7285537456156386  0.19584973855898524  0.3047297381533082  1.0000
  H   H779      1.0  0.7359131249865842  0.18972145852106204  0.4244285639231335  1.0000
  H   H780      1.0  0.7610887438421877  0.16777701928447009  0.40299425456664295  1.0000
  H   H781      1.0  0.7322940377888384  0.1544185280461523  0.42660114838658014  1.0000
  H   H782      1.0  0.6886097336257754  0.1776902750718461  0.33707944167735904  1.0000
  H   H783      1.0  0.6939268916959217  0.19514733217020264  0.38656929581755783  1.0000
  H   H784      1.0  0.6901620357209752  0.15994929427836313  0.3881258925132833  1.0000
  N   N45       1.0  0.25956368667048935  0.8665436803705846  0.49819023878017576  1.0000
  C   C561      1.0  0.255021731168501  0.8728799964980913  0.5446016499834345  1.0000
  C   C562      1.0  0.2844742386815262  0.877442557613984  0.4836530634579587  1.0000
  C   C563      1.0  0.2381423345530611  0.8784455190099345  0.47196310571758776  1.0000
  C   C564      1.0  0.26055942681944133  0.8374320031747434  0.4924052198568387  1.0000
  H   H785      1.0  0.2538599175817948  0.8947212657994009  0.5499547579138359  1.0000
  H   H786      1.0  0.271057167587998  0.8646563263927002  0.5654036205744193  1.0000
  H   H787      1.0  0.23654787157122215  0.8646511442869949  0.5568823165660273  1.0000
  H   H788      1.0  0.30111802238744056  0.8689545664435081  0.5027599835127835  1.0000
  H   H789      1.0  0.2884881465618965  0.8731728178483525  0.4486841942008052  1.0000
  H   H790      1.0  0.28432784284973867  0.8993821986976605  0.4874008780654295  1.0000
  H   H791      1.0  0.24064997212942352  0.8735150684895695  0.43691453961840376  1.0000
  H   H792      1.0  0.23702230851685635  0.9004625727422954  0.4745523060933869  1.0000
  H   H793      1.0  0.2190313531336212  0.8707414689082328  0.4822816830597228  1.0000
  H   H794      1.0  0.26460835980988273  0.8320616373243026  0.45785996055050204  1.0000
  H   H795      1.0  0.24166112580095578  0.8286547299691739  0.5013236288441326  1.0000
  H   H796      1.0  0.27599126321330614  0.8275632931969961  0.5126213765699204  1.0000
  N   N46       1.0  0.9160754698778264  0.8091439948032769  0.5989217149866329  1.0000
  C   C565      1.0  0.9083197586949137  0.8375486900397806  0.5942851559960469  1.0000
  C   C566      1.0  0.9244243823195976  0.8035590551593843  0.6441012040285378  1.0000
  C   C567      1.0  0.9378481132072468  0.8026489272526752  0.5686158530361898  1.0000
  C   C568      1.0  0.8936893898266924  0.7929020044614116  0.58858200646746  1.0000
  H   H797      1.0  0.9018328685042527  0.842514716855855  0.5606116675523524  1.0000
  H   H798      1.0  0.9248375814427695  0.8503052731679961  0.6010880476011269  1.0000
  H   H799      1.0  0.8922571737950553  0.843413715588132  0.6171034902958591  1.0000
  H   H800      1.0  0.9409731083096428  0.815919141649428  0.6531579464281734  1.0000
  H   H801      1.0  0.9084640938221599  0.8079495674218728  0.6679137973264581  1.0000
  H   H802      1.0  0.9310089725934964  0.7824224839009465  0.6484666726907645  1.0000
  H   H803      1.0  0.9435273766956305  0.7811242242282218  0.5697287880535176  1.0000
  H   H804      1.0  0.9554213308779879  0.8137842650406119  0.5766872619978602  1.0000
  H   H805      1.0  0.9326793413898659  0.8077589443852997  0.534408056582431  1.0000
  H   H806      1.0  0.8991432630236028  0.7712989497858691  0.5890662839477994  1.0000
  H   H807      1.0  0.8861226655380521  0.7978261722002349  0.5555982781205673  1.0000
  H   H808      1.0  0.8773505932302548  0.7963332182269421  0.6120640390148632  1.0000
  N   N47       1.0  0.8704101775422212  0.6895213487909283  0.6815621382380608  1.0000
  C   C569      1.0  0.8752645364082432  0.6674362378397432  0.6508609768779815  1.0000
  C   C570      1.0  0.8806539972587695  0.7141737421031633  0.6628555798285801  1.0000
  C   C571      1.0  0.8835483109526455  0.6831535650384165  0.7231678213270457  1.0000
  C   C572      1.0  0.8421288467310416  0.6932551033704135  0.6893753120622105  1.0000
  H   H809      1.0  0.867311111280053  0.6486338776769165  0.6636928325811972  1.0000
  H   H810      1.0  0.8964083021535127  0.6638242497666813  0.6444664777324038  1.0000
  H   H811      1.0  0.8657914502396298  0.6716122556360368  0.6189838473548714  1.0000
  H   H812      1.0  0.8772586001971505  0.7311857694135873  0.6853906898689671  1.0000
  H   H813      1.0  0.901949619022428  0.7120512909160847  0.6564722506843417  1.0000
  H   H814      1.0  0.8711125567071558  0.7194870743976095  0.6314013084328174  1.0000
  H   H815      1.0  0.8763801960493443  0.6645330610647218  0.7379929224316456  1.0000
  H   H816      1.0  0.8800043100380588  0.6991969682460921  0.7473929998073606  1.0000
  H   H817      1.0  0.904969956146472  0.6805450427254348  0.7187072443702002  1.0000
  H   H818      1.0  0.831385437993565  0.6970275936670104  0.6586020080253154  1.0000
  H   H819      1.0  0.8375723632919645  0.7102660625901975  0.7112970100390871  1.0000
  H   H820      1.0  0.8339568146592994  0.6754078460716384  0.7048946100479232  1.0000
  N   N48       1.0  0.3543606000289851  0.9240605070224455  0.6952483450681276  1.0000
  C   C573      1.0  0.3362087785546706  0.946596304175539  0.6853801818249657  1.0000
  C   C574      1.0  0.38111429286107906  0.931626021322426  0.6843477987306352  1.0000
  C   C575      1.0  0.34772785233951514  0.9008698902586504  0.6689925112706524  1.0000
  C   C576      1.0  0.35225851551156695  0.9173700162897594  0.7420398569511168  1.0000
  H   H821      1.0  0.3159456598552447  0.9418703922936102  0.6942145856774913  1.0000
  H   H822      1.0  0.3367315294395254  0.9514625820288949  0.6501990834864467  1.0000
  H   H823      1.0  0.34113351029925104  0.9646525684395958  0.703779801347095  1.0000
  H   H824      1.0  0.39551183352530395  0.9155381092969429  0.6930167216494285  1.0000
  H   H825      1.0  0.38349730463241793  0.9357054862326246  0.6488214174877556  1.0000
  H   H826      1.0  0.38643969281422874  0.9497753892663919  0.7017799877349136  1.0000
  H   H827      1.0  0.36106707594732546  0.8834795041490769  0.6759364442076045  1.0000
  H   H828      1.0  0.3494346024513289  0.9052063899292305  0.6334931556435612  1.0000
  H   H829      1.0  0.3274275881873794  0.8949335909306317  0.675498287564307  1.0000
  H   H830      1.0  0.36716324039450926  0.9020144093282878  0.7520485027305688  1.0000
  H   H831      1.0  0.33281299323610447  0.9097756530852361  0.7504980156580303  1.0000
  H   H832      1.0  0.35489439273470963  0.9350873660680696  0.7625265779858107  1.0000
  N   N49       1.0  0.11144005804989562  0.3576118738947863  0.5568914817370282  1.0000
  C   C577      1.0  0.1377864855982558  0.3653278605290667  0.5434888915044702  1.0000
  C   C578      1.0  0.1131933757184206  0.3402844157264981  0.5959289817173717  1.0000
  C   C579      1.0  0.09942948616937228  0.34317414031751936  0.521033019997763  1.0000
  C   C580      1.0  0.09534408391837104  0.3817155307398  0.5670306252865248  1.0000
  H   H833      1.0  0.1371977914886162  0.37856581515349325  0.5142684776898873  1.0000
  H   H834      1.0  0.1502336140129134  0.3476866348852055  0.5345046331698561  1.0000
  H   H835      1.0  0.14779228903829533  0.37568257737576155  0.5700169991164888  1.0000
  H   H836      1.0  0.0936462968730828  0.3346028170560335  0.6076649852552836  1.0000
  H   H837      1.0  0.12466219423432756  0.3215735312725178  0.5892353985009173  1.0000
  H   H838      1.0  0.12292889869115581  0.3501800313708677  0.6233155511512317  1.0000
  H   H839      1.0  0.0793946358687032  0.337263777492253  0.5296100536666739  1.0000
  H   H840      1.0  0.11105248037336167  0.32478719226521346  0.5126852987439878  1.0000
  H   H841      1.0  0.09823512611951818  0.35551661810151736  0.49080196967562323  1.0000
  H   H842      1.0  0.07527708977596048  0.3766587287363531  0.577110570789081  1.0000
  H   H843      1.0  0.0936518591647628  0.3952131941324204  0.5382136110531957  1.0000
  H   H844      1.0  0.10384993570670556  0.39304875875310386  0.5940241922073544  1.0000
  N   N50       1.0  0.2019564583175817  0.823851062726837  0.22027446701889852  1.0000
  C   C581      1.0  0.1735154662896592  0.824640455011002  0.21375029706667292  1.0000
  C   C582      1.0  0.21493143600481823  0.8090226188695608  0.18432143144579927  1.0000
  C   C583      1.0  0.20815851265930196  0.8105398002309139  0.26217972731650296  1.0000
  C   C584      1.0  0.2112083436437575  0.851250015769395  0.2207117313352822  1.0000
  H   H845      1.0  0.16305375793204968  0.8360284784806352  0.23993452657863257  1.0000
  H   H846      1.0  0.16577539882821957  0.8043305042227531  0.21346688159481686  1.0000
  H   H847      1.0  0.16826115213612347  0.8342926514269422  0.18217275283494172  1.0000
  H   H848      1.0  0.23642802922254136  0.8077092181896804  0.1882539646472141  1.0000
  H   H849      1.0  0.20818184237076953  0.7883376804873697  0.18230838199881738  1.0000
  H   H850      1.0  0.21092581820073164  0.8186702915020171  0.15220859657730568  1.0000
  H   H851      1.0  0.2295153031235151  0.809278159184846  0.26787800328125577  1.0000
  H   H852      1.0  0.20123291661396503  0.7898917577040635  0.26310390685926577  1.0000
  H   H853      1.0  0.19893620801063117  0.821376601438834  0.2901380525417139  1.0000
  H   H854      1.0  0.2325614569800909  0.8514161256494096  0.22607194022789479  1.0000
  H   H855      1.0  0.20148755575267185  0.8631688144018768  0.24697647728773964  1.0000
  H   H856      1.0  0.20706348178178313  0.861735899306912  0.18930045704238085  1.0000
  N   N51       1.0  0.2809256907772962  0.7933834031889087  0.9333420754726441  1.0000
  C   C585      1.0  0.2856277980916146  0.8213309612590393  0.9439252864149078  1.0000
  C   C586      1.0  0.25262226611104704  0.789663895590826  0.9311146016975778  1.0000
  C   C587      1.0  0.29225643686739583  0.775768754239017  0.9674601552059892  1.0000
  C   C588      1.0  0.29318472635600984  0.7867635651512009  0.8909130948952843  1.0000
  H   H857      1.0  0.3068093722237989  0.8248930897449512  0.9458747996747905  1.0000
  H   H858      1.0  0.2764645092355864  0.8270242337382162  0.9756236774287173  1.0000
  H   H859      1.0  0.2772663129116775  0.8351363980299557  0.9187466171161741  1.0000
  H   H860      1.0  0.24829305451977335  0.7688324967180095  0.9229346385860691  1.0000
  H   H861      1.0  0.2429027191967924  0.7942617562976158  0.9628213583852445  1.0000
  H   H862      1.0  0.24327230150320833  0.8029304765071867  0.9061280094437337  1.0000
  H   H863      1.0  0.28943972549300795  0.7545121270086039  0.9599340309403612  1.0000
  H   H864      1.0  0.28303607811628373  0.7797794959342956  0.9997980042585126  1.0000
  H   H865      1.0  0.31353972805031166  0.7783359946158634  0.9705082361487494  1.0000
  H   H866      1.0  0.28499367219180394  0.7996307359600491  0.864385007697919  1.0000
  H   H867      1.0  0.29017259098658404  0.7657274334770965  0.8821093145500291  1.0000
  H   H868      1.0  0.3145795287085779  0.7894615730692246  0.891519718893694  1.0000
  N   N52       1.0  0.4357009310933681  0.7831149828473264  0.39338175191628716  1.0000
  C   C589      1.0  0.41960128877987324  0.8063403594175438  0.3786611002485567  1.0000
  C   C590      1.0  0.4619835421717702  0.7845166184121714  0.37385493302568706  1.0000
  C   C591      1.0  0.4237015087027729  0.7583815225548743  0.37961765992574403  1.0000
  C   C592      1.0  0.4375404661119664  0.7832621642433218  0.4413681196808377  1.0000
  H   H869      1.0  0.39963554298718934  0.806036729710149  0.39280678465932367  1.0000
  H   H870      1.0  0.4178079652824311  0.8067699197068494  0.3425318070767702  1.0000
  H   H871      1.0  0.428314080903157  0.82528511097619  0.38849337600217915  1.0000
  H   H872      1.0  0.46118325814394173  0.7842923693678755  0.33763221875201205  1.0000
  H   H873      1.0  0.47151185307342164  0.803072622854623  0.3833973336484041  1.0000
  H   H874      1.0  0.47484425987874024  0.7674739717511198  0.38439626899221774  1.0000
  H   H875      1.0  0.4355814207305022  0.7404896736655463  0.3895668547027454  1.0000
  H   H876      1.0  0.42162815022470346  0.757690848166115  0.343631583613027  1.0000
  H   H877      1.0  0.4039776905636084  0.7563990208984785  0.3943249496226413  1.0000
  H   H878      1.0  0.41801707809708716  0.7821365803991212  0.4570689781781705  1.0000
  H   H879      1.0  0.4463552360308691  0.8016753391116045  0.45305876475732026  1.0000
  H   H880      1.0  0.4497776414998692  0.7661630660118096  0.45357033895739457  1.0000
  N   N53       1.0  0.7301576053116855  0.9636641959407145  0.1641002412835426  1.0000
  C   C593      1.0  0.7283845182708956  0.9503916293602029  0.12153845394376206  1.0000
  C   C594      1.0  0.7372612198625921  0.991523198009499  0.1570630438737486  1.0000
  C   C595      1.0  0.7502523077986618  0.9496771390405936  0.19070913198462636  1.0000
  C   C596      1.0  0.7048108568311567  0.9631058687429908  0.18708731066144058  1.0000
  H   H881      1.0  0.7231365284892328  0.9293001052900076  0.12554509576942707  1.0000
  H   H882      1.0  0.7473071596162446  0.9504635319832235  0.1035545313262567  1.0000
  H   H883      1.0  0.7133829092459305  0.9603340588720194  0.10055346534133736  1.0000
  H   H884      1.0  0.7399343478555319  0.001917497533254764  0.18850949438333942  1.0000
  H   H885      1.0  0.7557178786042962  0.9926468864769181  0.13804177544075102  1.0000
  H   H886      1.0  0.722042221743305  0.002936149214880057  0.13852408395126825  1.0000
  H   H887      1.0  0.7526959643183088  0.9595978483953173  0.22249170361895532  1.0000
  H   H888      1.0  0.7694419013092987  0.9490022264513911  0.17377667597427426  1.0000
  H   H889      1.0  0.745134310605291  0.9287843338615029  0.19762249312746305  1.0000
  H   H890      1.0  0.7055760126369283  0.9729361039127489  0.2193213425058087  1.0000
  H   H891      1.0  0.6988781942569113  0.9423917735276949  0.19313971748429282  1.0000
  H   H892      1.0  0.6891073762027393  0.9733201127919103  0.16792051712010525  1.0000
  N   N54       1.0  0.307220708470854  0.26430411859182407  0.4818168835972173  1.0000
  C   C597      1.0  0.29659578493424865  0.2907111925886717  0.49497329448504956  1.0000
  C   C598      1.0  0.32956329169455534  0.256617592429352  0.5096769918322299  1.0000
  C   C599      1.0  0.3158686153119763  0.2653439014302679  0.43585437020998197  1.0000
  C   C600      1.0  0.2868181558702576  0.2446042251546675  0.48680560078270335  1.0000
  H   H893      1.0  0.2797076746064223  0.2972597341636692  0.4746638511897434  1.0000
  H   H894      1.0  0.3113973004393253  0.30615274675844806  0.49185093244459244  1.0000
  H   H895      1.0  0.2897175184806258  0.29060296306240013  0.5294554475253422  1.0000
  H   H896      1.0  0.3380818598494807  0.236800654815675  0.5006755347417468  1.0000
  H   H897      1.0  0.3454554177617354  0.27089997713899583  0.50621223295045  1.0000
  H   H898      1.0  0.32382058013519105  0.2557633065271651  0.5446366094341634  1.0000
  H   H899      1.0  0.32318498426736864  0.2454945320529106  0.42443525676803046  1.0000
  H   H900      1.0  0.3319636870144254  0.27925166173137106  0.4311264715601836  1.0000
  H   H901      1.0  0.29969721880952394  0.2719844181814316  0.41416762673744767  1.0000
  H   H902      1.0  0.29368407179747086  0.22461849109214344  0.475235078889363  1.0000
  H   H903      1.0  0.2692790799700532  0.2504763790477509  0.46763887634483053  1.0000
  H   H904      1.0  0.2805031615091063  0.2425208034592024  0.5213569619112547  1.0000
  N   N55       1.0  0.2700032189439572  0.3318824548335021  0.9285531297245584  1.0000
  C   C601      1.0  0.2739789706583285  0.3233406069536791  0.9742220595420176  1.0000
  C   C602      1.0  0.24893423569516443  0.3526275828430068  0.9268890628723798  1.0000
  C   C603      1.0  0.2627619396402028  0.30890970576800986  0.902268301944747  1.0000
  C   C604      1.0  0.2942617203728502  0.3426795207932473  0.9108538599962065  1.0000
  H   H905      1.0  0.25562795871277727  0.31638794094910927  0.9890915514449122  1.0000
  H   H906      1.0  0.280613751112109  0.33982769497384135  0.9946693140709881  1.0000
  H   H907      1.0  0.2886144419145967  0.306561303420137  0.9768460292408563  1.0000
  H   H908      1.0  0.23039101368926698  0.34523024934480195  0.940456784810607  1.0000
  H   H909      1.0  0.2538883207910737  0.3704896939572142  0.9456693049383692  1.0000
  H   H910      1.0  0.24506987681698666  0.3592063190477798  0.8928748936622837  1.0000
  H   H911      1.0  0.2601404547663511  0.31445899941589894  0.8674001854893637  1.0000
  H   H912      1.0  0.2441518919637993  0.30081015405311884  0.9137684365400368  1.0000
  H   H913      1.0  0.27772770855306156  0.29243508991633027  0.9039528110676349  1.0000
  H   H914      1.0  0.29186886913904675  0.34916010429817196  0.8763068669021817  1.0000
  H   H915      1.0  0.31059506140470766  0.3275921095750366  0.9119482507326353  1.0000
  H   H916      1.0  0.3001393770762618  0.36028065291735456  0.9294754132051116  1.0000
  N   N56       1.0  0.789180558379379  0.4389620501847088  0.1698209786445034  1.0000
  C   C605      1.0  0.7635338475715625  0.42758900320266713  0.16271605778247603  1.0000
  C   C606      1.0  0.8006610766586257  0.44680086359301446  0.1275840689994403  1.0000
  C   C607      1.0  0.8066322749556424  0.4190345633307489  0.19139183897811174  1.0000
  C   C608      1.0  0.7859152505258726  0.46255212312901284  0.19776382056200778  1.0000
  H   H917      1.0  0.7544703785716533  0.42142767063651587  0.1941577455874054  1.0000
  H   H918      1.0  0.7651727038394149  0.4098115631525191  0.14150809352783478  1.0000
  H   H919      1.0  0.7498789557367246  0.4423034902677844  0.14689494003624773  1.0000
  H   H920      1.0  0.8199972613160524  0.4555313995470942  0.13197560862180402  1.0000
  H   H921      1.0  0.8033519705652654  0.42955712094781007  0.10542394202669891  1.0000
  H   H922      1.0  0.7881195786201343  0.4620471924541479  0.11053008056660785  1.0000
  H   H923      1.0  0.8261145696287227  0.42711392017010047  0.1974448968373478  1.0000
  H   H924      1.0  0.8095167191199911  0.40088386815026855  0.17133048967287642  1.0000
  H   H925      1.0  0.7986040619670896  0.4128744049475153  0.2235514539459329  1.0000
  H   H926      1.0  0.8050422464712355  0.47036372875787597  0.20667716395876665  1.0000
  H   H927      1.0  0.7756307040825572  0.45788794978524733  0.22864405414828595  1.0000
  H   H928      1.0  0.7743663016357897  0.47879428077096514  0.181393060369788  1.0000
  N   N57       1.0  0.2986275166040588  0.10646480815567116  0.05178517069420785  1.0000
  C   C609      1.0  0.2740173509432861  0.12251880550431271  0.049542970348566584  1.0000
  C   C610      1.0  0.3011421214274662  0.0942398904626196  0.0955123519117802  1.0000
  C   C611      1.0  0.32074322417685375  0.12374574182079501  0.04348947194356412  1.0000
  C   C612      1.0  0.29860325669594473  0.08539701126857624  0.018606945013739606  1.0000
  H   H929      1.0  0.271651315956668  0.13230412978758666  0.017159451702366768  1.0000
  H   H930      1.0  0.27328201007002  0.13845766380072644  0.07448000917526731  1.0000
  H   H931      1.0  0.2568460097708115  0.11012729983173997  0.05502072364113286  1.0000
  H   H932      1.0  0.31960686429575785  0.08217269628021451  0.09850433845360906  1.0000
  H   H933      1.0  0.30111449116756445  0.10961505933902904  0.12135173430217483  1.0000
  H   H934      1.0  0.28475885380211435  0.08108601907985125  0.10282957643892487  1.0000
  H   H935      1.0  0.31924096758092924  0.13363771404784663  0.011042602068589424  1.0000
  H   H936      1.0  0.33964848620681143  0.1123120403323643  0.044279291226765105  1.0000
  H   H937      1.0  0.321487109830082  0.13966176012314735  0.06826042341640104  1.0000
  H   H938      1.0  0.2817533347715334  0.07239631258142665  0.02291657795860047  1.0000
  H   H939      1.0  0.31670081769767583  0.07261693326048357  0.019630872136810584  1.0000
  H   H940      1.0  0.2972332258198414  0.09397023252322212  0.9852833537801096  1.0000
  N   N58       1.0  0.39453910505621337  0.050311546529984374  0.4106158721642148  1.0000
  C   C613      1.0  0.36583354363091214  0.053148967167885086  0.41125944162343026  1.0000
  C   C614      1.0  0.402749670120403  0.02623436845133642  0.38617697347921753  1.0000
  C   C615      1.0  0.40420627292636985  0.047908334804386055  0.4556622379789968  1.0000
  C   C616      1.0  0.4053986429102344  0.07397801542430193  0.38950343454169833  1.0000
  H   H941      1.0  0.35909433688039677  0.07179147819639353  0.4276435557831579  1.0000
  H   H942      1.0  0.35690585828269783  0.036399475901651934  0.4290391728562251  1.0000
  H   H943      1.0  0.35779405893304306  0.05392321089301633  0.37777415521874813  1.0000
  H   H944      1.0  0.4243433143660127  0.02344827506971492  0.38512538777296507  1.0000
  H   H945      1.0  0.3949776517996496  0.008047383766248917  0.40154600986970684  1.0000
  H   H946      1.0  0.3959050548938248  0.027243170436047626  0.3519547484361689  1.0000
  H   H947      1.0  0.42572265884659627  0.04487737725221441  0.4562709786266522  1.0000
  H   H948      1.0  0.39561024123041916  0.030888450904505316  0.4732658969047809  1.0000
  H   H949      1.0  0.39931443636731895  0.066117664038146  0.47462434738872983  1.0000
  H   H950      1.0  0.4270273089943491  0.07249323491793214  0.3882239125583469  1.0000
  H   H951      1.0  0.39970287730589255  0.09243982384752902  0.40759037350948024  1.0000
  H   H952      1.0  0.39830530689908855  0.07665204287075467  0.3555647126717929  1.0000
  N   N59       1.0  0.7728509602392039  0.47026164478397803  0.8155384327957036  1.0000
  C   C617      1.0  0.7549939912964156  0.4500782756900868  0.8002973330721783  1.0000
  C   C618      1.0  0.7593723542991306  0.4871762599078201  0.8484112854739231  1.0000
  C   C619      1.0  0.7810243078137299  0.4869452138673939  0.7784443218117365  1.0000
  C   C620      1.0  0.7960427387530843  0.4569010251504089  0.8351322470409859  1.0000
  H   H953      1.0  0.7644842608734744  0.4367538934608819  0.7756933826994183  1.0000
  H   H954      1.0  0.7371939403308506  0.4593907948512436  0.7854310595886169  1.0000
  H   H955      1.0  0.7484306371192789  0.43733056244704327  0.8276960123318243  1.0000
  H   H956      1.0  0.7722390593096526  0.5028085986678543  0.8603225187011425  1.0000
  H   H957      1.0  0.7416408938347512  0.49737375980015697  0.8348610845831786  1.0000
  H   H958      1.0  0.7531399402147512  0.4752554193623121  0.877095525045724  1.0000
  H   H959      1.0  0.7945304555753874  0.5023761374340533  0.7891294806473325  1.0000
  H   H960      1.0  0.7640575089390965  0.4974471887068267  0.7629182661955731  1.0000
  H   H961      1.0  0.7913816312509214  0.4748759863066327  0.753064042930896  1.0000
  H   H962      1.0  0.7907146345031019  0.4445661682926024  0.8637592425354546  1.0000
  H   H963      1.0  0.8101097950167608  0.47153953873774  0.8464482248864776  1.0000
  H   H964      1.0  0.806493778597187  0.44361781875507733  0.8115371407469006  1.0000
  N   N60       1.0  0.4538461697041535  0.3099198067036536  0.1123165992565236  1.0000
  C   C621      1.0  0.45639486010499475  0.28708860972967276  0.08250387153665661  1.0000
  C   C622      1.0  0.4770115147377646  0.32623376048414615  0.10797703394267266  1.0000
  C   C623      1.0  0.45158402800444775  0.30020905077577786  0.15766615662114247  1.0000
  C   C624      1.0  0.4303135693815174  0.3261985048464963  0.10122541535273744  1.0000
  H   H965      1.0  0.4393689836078666  0.2741858816173426  0.08540079861589644  1.0000
  H   H966      1.0  0.47415693862930985  0.27455461681754434  0.08937411990520028  1.0000
  H   H967      1.0  0.457637302249134  0.29375170152590535  0.04792254047480604  1.0000
  H   H968      1.0  0.49526690513266436  0.31443255339494486  0.1145790124422692  1.0000
  H   H969      1.0  0.4787383486031658  0.33487481111093625  0.07464768996134642  1.0000
  H   H970      1.0  0.4761559703585462  0.34307348110483454  0.1312027739558692  1.0000
  H   H971      1.0  0.43417286796270377  0.28799453263873354  0.16228052402176715  1.0000
  H   H972      1.0  0.44965788374685367  0.316987277388808  0.18098749057127397  1.0000
  H   H973      1.0  0.46895043121537144  0.2878095613466435  0.16733326968929413  1.0000
  H   H974      1.0  0.4276779844886285  0.3434460415016239  0.1233678701463734  1.0000
  H   H975      1.0  0.412470723640873  0.3144360622115164  0.10384022574028462  1.0000
  H   H976      1.0  0.4314129851039565  0.3341643091648645  0.06731750191233332  1.0000
  N   N61       1.0  0.7453063202661172  0.8328627431356767  0.01781004410796294  1.0000
  C   C625      1.0  0.7469795542119674  0.8322266888797751  0.9697613184024572  1.0000
  C   C626      1.0  0.7283119164220817  0.8117529267725728  0.03362072517750225  1.0000
  C   C627      1.0  0.7345408169501442  0.8590405906834385  0.03193305371882249  1.0000
  C   C628      1.0  0.7716168691621569  0.8284074761839959  0.03598704171769107  1.0000
  H   H977      1.0  0.7593634901906342  0.8481346160308735  0.9567250154485984  1.0000
  H   H978      1.0  0.7275032013344644  0.8350785201783603  0.9546532483887871  1.0000
  H   H979      1.0  0.7555012453206905  0.8129316929444016  0.9580872090879005  1.0000
  H   H980      1.0  0.7361147821458998  0.7917161608240132  0.024048709313650996  1.0000
  H   H981      1.0  0.7262482925450979  0.8119277022542484  0.06971742879308329  1.0000
  H   H982      1.0  0.7083715129828662  0.81414675295406  0.020110479901324085  1.0000
  H   H983      1.0  0.7325011671982822  0.860002049104975  0.06799273563999741  1.0000
  H   H984      1.0  0.7149708582620735  0.8634599761679597  0.017977964979086325  1.0000
  H   H985      1.0  0.7472523422663732  0.8752997722620758  0.02133881190823783  1.0000
  H   H986      1.0  0.7711441727945895  0.8288251100519157  0.07220866714936247  1.0000
  H   H987      1.0  0.784968127583475  0.8439545951763431  0.02451905962545453  1.0000
  H   H988      1.0  0.7803124438869999  0.808782575378984  0.025977566012078457  1.0000
  N   N62       1.0  0.840481962491072  0.9580496641749836  0.26192748277357913  1.0000
  C   C629      1.0  0.8134295364123274  0.9664496212798053  0.2515180929966234  1.0000
  C   C630      1.0  0.8586019462778137  0.9753262415938031  0.2384787618658195  1.0000
  C   C631      1.0  0.8453992609574579  0.9302478977464363  0.24828646508776964  1.0000
  C   C632      1.0  0.8444795996531445  0.9600397024590124  0.30934220050617145  1.0000
  H   H989      1.0  0.7992839724259485  0.9538575349018478  0.2688006172624098  1.0000
  H   H990      1.0  0.8097773135896427  0.964905932486036  0.21604777874055392  1.0000
  H   H991      1.0  0.8090848834409732  0.9874242059475563  0.2611775143600217  1.0000
  H   H992      1.0  0.879200094415584  0.9689807526581357  0.2446414040878595  1.0000
  H   H993      1.0  0.8555800088173109  0.9748456810493547  0.20264863017430046  1.0000
  H   H994      1.0  0.8559882771800833  0.996398154443771  0.24874423851039706  1.0000
  H   H995      1.0  0.8656650326560491  0.9232530776991394  0.2560063157474368  1.0000
  H   H996      1.0  0.8427169106384846  0.9280674842652539  0.2125679357515724  1.0000
  H   H997      1.0  0.8319593730794593  0.9166747147279191  0.2652167107890637  1.0000
  H   H998      1.0  0.8306870444313711  0.9476823531647758  0.32795830293865613  1.0000
  H   H999      1.0  0.8416916503978537  0.9808918226904928  0.3207474136256687  1.0000
  H   H1000     1.0  0.8644685217560744  0.9530537902555788  0.318483816817106  1.0000
  N   N63       1.0  0.9541368394277191  0.26808856278335175  0.7768480988775341  1.0000
  C   C633      1.0  0.9530095722073226  0.28005518015723224  0.7327880039065165  1.0000
  C   C634      1.0  0.9526216713209122  0.23893403158483653  0.7736207075311181  1.0000
  C   C635      1.0  0.931987955418587  0.27864571115136766  0.8032475593807141  1.0000
  C   C636      1.0  0.9788286405978097  0.2747376406751535  0.7976988678988461  1.0000
  H   H1001     1.0  0.9344912299957672  0.27567562611633833  0.7162763191912116  1.0000
  H   H1002     1.0  0.9691994138838066  0.2722126773134355  0.7117311785617948  1.0000
  H   H1003     1.0  0.9543314003453215  0.30202736334178765  0.7339770187568558  1.0000
  H   H1004     1.0  0.9529123924823869  0.229293803625082  0.806403826787489  1.0000
  H   H1005     1.0  0.9343918099313507  0.23329753539891102  0.7573586846569351  1.0000
  H   H1006     1.0  0.9692325991841335  0.2301447958918019  0.7545474249877372  1.0000
  H   H1007     1.0  0.9321584290594649  0.26979906110010693  0.8365738453126637  1.0000
  H   H1008     1.0  0.9130868168285131  0.27405769860164575  0.7882502008731519  1.0000
  H   H1009     1.0  0.9326285403553224  0.3005577208175336  0.8067848420182232  1.0000
  H   H1010     1.0  0.9805086945976967  0.29660040162890366  0.8011821832232143  1.0000
  H   H1011     1.0  0.9959860085941246  0.26724948443382696  0.7785551427027793  1.0000
  H   H1012     1.0  0.9804464398848027  0.26584991384454265  0.830872822901949  1.0000
  N   N64       1.0  0.49256856609721655  0.9301667783527585  0.5434462026217395  1.0000
  C   C637      1.0  0.48755552692604454  0.9568510522188748  0.5619645619121314  1.0000
  C   C638      1.0  0.5206397167218134  0.9259479064503777  0.5340649227741968  1.0000
  C   C639      1.0  0.4778975706671218  0.92795313382013  0.5026378781097595  1.0000
  C   C640      1.0  0.4840928053765443  0.9098897125144342  0.5750003534879131  1.0000
  H   H1013     1.0  0.4664928316632293  0.9603499944801146  0.5697089071964475  1.0000
  H   H1014     1.0  0.4932676415319218  0.9727001079071536  0.5387119724324246  1.0000
  H   H1015     1.0  0.49847862181466784  0.9593419309463379  0.5926482361362446  1.0000
  H   H1016     1.0  0.5248874357449117  0.9059285227568882  0.5199429241540453  1.0000
  H   H1017     1.0  0.52763072966918  0.9408496928923685  0.5101322216325678  1.0000
  H   H1018     1.0  0.5324099321515683  0.9274087173603236  0.5640943915952867  1.0000
  H   H1019     1.0  0.4813208411695975  0.908102893749965  0.48761755063476386  1.0000
  H   H1020     1.0  0.4837659303340129  0.943001742646968  0.4780806810670416  1.0000
  H   H1021     1.0  0.45659265376166375  0.9309201677708501  0.5083916395118578  1.0000
  H   H1022     1.0  0.4869484476579706  0.8895041047072024  0.5617045436535092  1.0000
  H   H1023     1.0  0.46308189755733525  0.9128434784740502  0.5833867901627832  1.0000
  H   H1024     1.0  0.4950758298756622  0.9105859920046405  0.6059835526333657  1.0000
