data_image0
_chemical_formula_structural       FeS2FeS2FeCFeCS2FeHSFeS2FeCFeHS2FeS2FeS2FeSFeS3FeS2H3FeSFeS3C6H4C6H4C3NSCHC2H2C7HSH2CH2CH2C5HC6H5CSCHFeH3CHSH3CHCSH4C2H3CNC4H12NC4HCH10C2H9NCH6CH6NC4H12C2H3C4SNSH2CH4CH2NHCHCH3NHFeS2FeS2FeSFeS3FeHSFeS2FeNFeHS2FeS2FeS2FeSFeS3FeS2HNSHCFeS3C6H4C6H10C3H3C6H4C4H7NC6H5CH2CHNHCH4CH8CHCHC2H12CH4CH2C3H2C2HCH2CH3C2H5C4H2CH5FeN2C4H10CH3C2H2C2H5NCH2NC2HC2H6C4H3FeH2CH4SHFeSCS2HFeSFeSCSFeSHFeSHFeSFeS3FeS2HSCFeSHS2CFeS2FeS2FeSFeS3C6H4C6H4FeC2H4CNH3C6H8CFeCH4C6H4C4H2CHCH3CH2CH5CH4SCSCNC4H12FeHC2H3NH2CHC2H6CNHC2NHSH2CH3C2NC4H12CH7CH4CNHCHC2H7CH2CFeS2FeS2FeSFeSCSFeSCFeSCFeSFeS3FeS2FeSHFeSH2SHFeS2FeS2FeSFeS3C6H4C6H5C2HNH3CH2C7H6C2H3C2H2C6H4CH2CH3CNCH2CH4CH4SC3H4CH3CHNCSCH6CHC3H6C3HNC4H13NH6NCH4CH5SHCH3CHCHC2H2CHSC2FeH2CH8CH2CNCHCH2CH2NH3CH2NHCH2C2HNC3H2C2HCHSHCH4C3HFeS2FeS2FeSFeS3CHSFeS2FeSCHS2FeS2FeS2FeSFeCS2FeS2FeS2FeHFeS3CH5CH4CFeH2CHCSH3FeH3CH5C2H2C6H4C2H2C6H8C6H4C6H4NC4H13CH4CH2C3NH3CH2NH2NCH2C2H3NC4H12NC4H2CHCSH5SNC5H5CSH5CHC2H3NCH2CHC2HCH4CH2CSH2CH3C2H3CHCNHCHC2H3CFeH2CN2CHFeS2FeS2FeSFeS3H3FeS2FeSFeHSCFeS2FeS2FeSFeHS2FeS2FeS2FeSFeHS2HCH5CH3CHCHC3HCHC2H2C3H4CH3C6S2H6C6H4CHCHC6H4C6H4NC4H10NH2SCH2CHCHSHSH3NC5HCHCHCH3CHC3H3CNHC2NH5CHCSNHCHCSHCH6CHCH2C2H4CH2CHCH3CHCHCH3CH2CH2CHSH2CHSCHSFeS2FeSHFeSC2SCFeS2FeS2FeSFeS3FeS2FeS2FeCFeS3FeS2FeS2FeSFeS3C3HC4H3C2SCH2CH2CH2CNHCHCFeC2H2CHC6H4CH2C7H7C7H4C6H5NC4H12NH2SH6C2H7SCH2SH3C2H2NCHCH9C2HC2H4NC4H12NC5H11NHCHCSH6CH3CH5C2H2CFeS2FeSHFeSHCSHFeS2FeS2FeSFeS3FeS2FeS2FeSFeHS2FeS2FeS2FeHFeS3CNCH3FeHCSH3C2H3CHCH2C3NH2CH2CSH2C6H4C2HC7H7NC6H4C6H4C2SH3C2HSH2C3HNC4H15CNCH2C2H3CH3CHCHCH4CHNC4H12CH2NHSHC2H5CH2CSH9NHCH4C2H4C3H2CSH5SH2C3NCFeS2CNSFeCFeHS2FeS2FeS2FeSFeS3FeNSFeS2FeHFeHS2FeS2FeS2FeHFeHS2CH5CHSH6CHNC4H2C6H4C6H4C6H4C6H6C4SCS2HCNC2H9CH2CH2CHC4H5CH3CHCH2C2H3C2H2CHN3C4H13SFeH4C3H4C2HNHCH3CH5CSC2H4FeH6CSH5C2HCHC2H3CHCH6FeS2H2SH2FeHS2FeS2FeS2FeSFeS3FeS2FeS2FeHFeHS2FeS2FeS2FeHFeHS2CH3C2H2C2HCNH2SCHNC3H2C6H4C6H4C6H4C6H5C2H3C4H2CHC3HSNH4CHCH3CHCH3C2HFeHNHC3H11CH5CHCHSNC4H12NC4H12C2H3CH3CHCH2FeS2FeS2FeSFeS3FeSCFeS2CHFeSHSFeCSFeS2C2FeHS2FeS2FeCSFeHFeCS2CSHCH4CH4NH4CH5C6H4C6H4C6H4C6H5CHSH3C2H3SH2CHNCH5NC4H6CHCH3CHCH3NC3H4CH5NC4HCH14NC4H12NC2HCSC3FeH9C3HSCH3NSH9C7HCHNCHCSH3FeS2FeS2FeSFeS3FeSFe2S2CSFeSHSFeCSFeS2FeHFeHS2FeS2FeS2FeHFeHS2CHC2NH5CH3SCH2SCHC2HC6H4C6H4C6H4C6H4SH2SCHC3H6NC4H12NC4H12CH4C4H2SHNH2CH3CH4CHNC4H12CHCH3CH2CH3NH3NC4HFeHC2HCH3C2H2CHC2FeS2HSH3FeSHSFeS2FeS2FeSFeS3FeS2FeS2FeSFeHS2FeSHFeS2FeSFeS3C2H2CNCHCH2C2FeSCH2C3H2C3H2C2H4C6H7C6H5C2HNC6H4C6H4CH3NC2H3CHCHCH2CNH3CH2CH2CH2CHCNCH3SHC4H2NC4H12SH5CHCHC2H2CHC5H5SH3SH3NHCH2CH6CNH3SH7C2HCH3C2H2CH4C2H2FeCSC2HCHCH2CFeSHCSHS2FeSHSFeS2FeS2FeSFeS3FeS2FeS2FeSFeHS2FeSCFeS2FeSFeS3C2H3CSH4CH3CH4CHC3HCH4CH2C6H7C6NH3SH2CHC6H4C6H4NC4H14CHCHCHC2H2SNCH5C4HCSCHNH4CH2CHCH2CH2CNC4H13CH3CHCH6CNCHCHC3HCHC3HNH2NC2HNCH2NH4C2H3SC2HFeHCH3SH5CH6CH5Fe2SHFeS2FeSFeS3FeS2FeSCFeSFeS3FeS2FeS2FeSFeS3FeS2FeSHFeSHS2CHCHC3SC6H4C6H4C6H4CH3CHCH3CH3NCH2C6H4C2FeH2C3HCH2C2H4SH2NHCH4C2H2SNC4H13NC4H13C2HCH3SCH3NH2CH5NC2HSH2CNC4H12CH2CHC3HC2HCH4C3H2CH3C3HCH2SCHFeS2FeS2FeSFeS3FeS2FeSHFeSFeS3FeS2FeS2FeSFeS3FeS2FeS2FeSHS2H2CHC2HC7H4C6H4C6H9C2HCH5CH3C6H4C3H3C2HCH2C2H6NC4H12C2HCH5SNH3C2NHCH3CHC2HCHC2HCNC4H17C2HCH2CSCH2NC4H7CHNCHCH4SCNH3CH2SCFeCH2C
_chemical_formula_sum              "Fe256 S512 C1280 H2048 N128"
_cell_length_a       75.904
_cell_length_b       76.0448
_cell_length_c       46.4439
_cell_angle_alpha    89.2685
_cell_angle_beta     89.8838
_cell_angle_gamma    88.072

_space_group_name_H-M_alt    "P 1"
_space_group_IT_number       1

loop_
  _space_group_symop_operation_xyz
  'x, y, z'

loop_
  _atom_site_type_symbol
  _atom_site_label
  _atom_site_symmetry_multiplicity
  _atom_site_fract_x
  _atom_site_fract_y
  _atom_site_fract_z
  _atom_site_occupancy
  Fe  Fe1       1.0  0.05962  0.08681  0.33919  1.0000
  S   S1        1.0  0.03406  0.10012  0.32510  1.0000
  S   S2        1.0  0.08705  0.09869  0.33923  1.0000
  Fe  Fe2       1.0  0.04301  0.04997  0.34249  1.0000
  S   S3        1.0  0.01678  0.06107  0.32766  1.0000
  S   S4        1.0  0.04411  0.01998  0.34359  1.0000
  Fe  Fe3       1.0  0.03133  0.07717  0.29527  1.0000
  C   C1        1.0  0.04992  0.00817  0.40006  1.0000
  Fe  Fe4       1.0  0.02167  0.08270  0.35906  1.0000
  C   C2        1.0  0.01053  0.44236  0.16809  1.0000
  S   S5        1.0  0.05737  0.06464  0.30805  1.0000
  S   S6        1.0  0.04744  0.07087  0.37543  1.0000
  Fe  Fe5       1.0  0.04178  0.42668  0.09796  1.0000
  H   H1        1.0  0.00312  0.43036  0.16344  1.0000
  S   S7        1.0  0.05192  0.44923  0.12444  1.0000
  Fe  Fe6       1.0  0.04675  0.38691  0.08481  1.0000
  S   S8        1.0  0.01892  0.38578  0.06790  1.0000
  S   S9        1.0  0.06224  0.36039  0.08652  1.0000
  Fe  Fe7       1.0  0.02487  0.41091  0.04451  1.0000
  C   C3        1.0  0.06015  0.11436  0.26703  1.0000
  Fe  Fe8       1.0  0.01089  0.40281  0.10550  1.0000
  H   H2        1.0  0.22156  0.18534  0.29586  1.0000
  S   S10       1.0  0.05306  0.41161  0.06026  1.0000
  S   S11       1.0  0.03799  0.40194  0.12428  1.0000
  Fe  Fe9       1.0  0.17961  0.18773  0.27309  1.0000
  S   S12       1.0  0.18211  0.21555  0.28648  1.0000
  S   S13       1.0  0.20152  0.17598  0.24507  1.0000
  Fe  Fe10      1.0  0.14123  0.18657  0.29387  1.0000
  S   S14       1.0  0.14112  0.21501  0.30755  1.0000
  S   S15       1.0  0.11440  0.17435  0.30168  1.0000
  Fe  Fe11      1.0  0.15564  0.22042  0.26628  1.0000
  S   S16       1.0  0.15452  0.24635  0.24141  1.0000
  Fe  Fe12      1.0  0.16749  0.20814  0.32662  1.0000
  S   S17       1.0  0.17782  0.21912  0.36841  1.0000
  S   S18       1.0  0.15353  0.19281  0.25065  1.0000
  S   S19       1.0  0.16720  0.17936  0.31531  1.0000
  Fe  Fe13      1.0  0.15239  0.26611  0.07138  1.0000
  S   S20       1.0  0.16355  0.29299  0.07598  1.0000
  S   S21       1.0  0.14374  0.24623  0.10535  1.0000
  H   H3        1.0  0.02429  0.08679  0.43162  1.0000
  H   H4        1.0  0.05392  0.02132  0.40492  1.0000
  H   H5        1.0  0.01553  0.05685  0.40673  1.0000
  Fe  Fe14      1.0  0.18459  0.28394  0.04441  1.0000
  S   S22       1.0  0.21439  0.28286  0.05214  1.0000
  Fe  Fe15      1.0  0.14717  0.29998  0.03646  1.0000
  S   S23       1.0  0.13276  0.32686  0.02988  1.0000
  S   S24       1.0  0.17438  0.25671  0.04286  1.0000
  S   S25       1.0  0.13487  0.27338  0.03344  1.0000
  C   C4        1.0  0.14635  0.24710  0.14319  1.0000
  C   C5        1.0  0.14070  0.23288  0.16007  1.0000
  C   C6        1.0  0.14313  0.23253  0.19010  1.0000
  C   C7        1.0  0.15104  0.24654  0.20367  1.0000
  C   C8        1.0  0.15651  0.26089  0.18689  1.0000
  C   C9        1.0  0.15430  0.26113  0.15672  1.0000
  H   H6        1.0  0.13446  0.22203  0.14979  1.0000
  H   H7        1.0  0.13867  0.22149  0.20277  1.0000
  H   H8        1.0  0.16256  0.27184  0.19718  1.0000
  H   H9        1.0  0.15865  0.27217  0.14395  1.0000
  C   C10       1.0  0.16596  0.22956  0.39674  1.0000
  C   C11       1.0  0.17545  0.23655  0.41960  1.0000
  C   C12       1.0  0.16669  0.24459  0.44298  1.0000
  C   C13       1.0  0.14827  0.24546  0.44400  1.0000
  C   C14       1.0  0.13873  0.23867  0.42090  1.0000
  C   C15       1.0  0.14753  0.23095  0.39717  1.0000
  H   H10       1.0  0.18972  0.23562  0.41942  1.0000
  H   H11       1.0  0.17420  0.24977  0.46055  1.0000
  H   H12       1.0  0.12447  0.23940  0.42148  1.0000
  H   H13       1.0  0.14005  0.22581  0.37956  1.0000
  C   C16       1.0  0.00475  0.41220  0.47163  1.0000
  C   C17       1.0  0.06093  0.37961  0.00791  1.0000
  C   C18       1.0  0.23074  0.28982  0.02766  1.0000
  N   N1        1.0  0.07333  0.10829  0.24558  1.0000
  S   S26       1.0  0.13683  0.25442  0.47408  1.0000
  C   C19       1.0  0.24485  0.29396  0.47087  1.0000
  H   H14       1.0  0.11781  0.36209  0.03004  1.0000
  C   C20       1.0  0.23610  0.17810  0.22763  1.0000
  C   C21       1.0  0.22415  0.17999  0.25067  1.0000
  H   H15       1.0  0.17480  0.26226  0.36817  1.0000
  H   H16       1.0  0.23133  0.17465  0.20660  1.0000
  C   C22       1.0  0.00914  0.43696  0.21933  1.0000
  C   C23       1.0  0.08259  0.35176  0.07215  1.0000
  C   C24       1.0  0.09394  0.36193  0.05553  1.0000
  C   C25       1.0  0.10921  0.35410  0.04294  1.0000
  C   C26       1.0  0.11361  0.33610  0.04722  1.0000
  C   C27       1.0  0.10244  0.32601  0.06424  1.0000
  C   C28       1.0  0.08702  0.33377  0.07646  1.0000
  H   H17       1.0  0.09105  0.37584  0.05248  1.0000
  S   S27       1.0  0.01431  0.42802  0.08036  1.0000
  H   H18       1.0  0.10558  0.31217  0.06777  1.0000
  H   H19       1.0  0.07843  0.32573  0.08929  1.0000
  C   C29       1.0  0.05150  0.47187  0.11472  1.0000
  H   H20       1.0  0.07380  0.46935  0.08625  1.0000
  H   H21       1.0  0.06503  0.34504  0.02206  1.0000
  C   C30       1.0  0.04046  0.48387  0.12971  1.0000
  H   H22       1.0  0.04878  0.37055  0.44814  1.0000
  H   H23       1.0  0.03034  0.47903  0.14381  1.0000
  C   C31       1.0  0.00986  0.08671  0.47186  1.0000
  C   C32       1.0  0.20968  0.34409  0.47042  1.0000
  C   C33       1.0  0.03088  0.45632  0.19981  1.0000
  C   C34       1.0  0.01730  0.04230  0.40595  1.0000
  C   C35       1.0  0.23058  0.18405  0.27789  1.0000
  H   H24       1.0  0.21057  0.34989  0.44838  1.0000
  C   C36       1.0  0.10719  0.15304  0.31138  1.0000
  C   C37       1.0  0.08912  0.15085  0.31663  1.0000
  C   C38       1.0  0.08272  0.13440  0.32531  1.0000
  C   C39       1.0  0.09435  0.11986  0.32883  1.0000
  C   C40       1.0  0.11244  0.12207  0.32369  1.0000
  C   C41       1.0  0.11883  0.13851  0.31479  1.0000
  H   H25       1.0  0.07999  0.16201  0.31419  1.0000
  H   H26       1.0  0.06881  0.13303  0.32962  1.0000
  H   H27       1.0  0.12157  0.11093  0.32635  1.0000
  H   H28       1.0  0.13275  0.13993  0.31073  1.0000
  H   H29       1.0  0.07452  0.38145  0.99965  1.0000
  C   C42       1.0  0.08894  0.11937  0.24701  1.0000
  S   S28       1.0  0.02945  0.07788  0.24618  1.0000
  C   C43       1.0  0.03600  0.37180  0.45981  1.0000
  H   H30       1.0  0.03213  0.38606  0.46014  1.0000
  Fe  Fe16      1.0  0.15801  0.26584  0.00500  1.0000
  H   H31       1.0  0.09906  0.11537  0.23080  1.0000
  H   H32       1.0  0.08436  0.08824  0.27401  1.0000
  H   H33       1.0  0.18025  0.33917  0.43952  1.0000
  C   C44       1.0  0.24606  0.27921  0.02383  1.0000
  H   H34       1.0  0.01902  0.44482  0.14905  1.0000
  S   S29       1.0  0.16933  0.29283  0.00509  1.0000
  H   H35       1.0  0.00079  0.45357  0.16956  1.0000
  H   H36       1.0  0.03635  0.35894  0.03098  1.0000
  H   H37       1.0  0.18556  0.31995  0.46097  1.0000
  C   C45       1.0  0.18040  0.33384  0.46192  1.0000
  H   H38       1.0  0.01714  0.42153  0.43276  1.0000
  C   C46       1.0  0.03510  0.36203  0.00751  1.0000
  S   S30       1.0  0.16035  0.29660  0.49096  1.0000
  H   H39       1.0  0.02503  0.07501  0.18533  1.0000
  H   H40       1.0  0.01057  0.38367  0.17256  1.0000
  H   H41       1.0  0.24153  0.28623  0.45235  1.0000
  H   H42       1.0  0.02188  0.46814  0.20115  1.0000
  C   C47       1.0  0.03367  0.42509  0.19176  1.0000
  C   C48       1.0  0.24885  0.18538  0.28226  1.0000
  H   H43       1.0  0.17028  0.36324  0.48966  1.0000
  H   H44       1.0  0.18274  0.19156  0.16700  1.0000
  H   H45       1.0  0.04045  0.45875  0.18209  1.0000
  C   C49       1.0  0.01043  0.08043  0.22429  1.0000
  N   N2        1.0  0.12965  0.17644  0.39171  1.0000
  C   C50       1.0  0.12050  0.17251  0.41905  1.0000
  C   C51       1.0  0.14714  0.18352  0.39795  1.0000
  C   C52       1.0  0.11903  0.18957  0.37491  1.0000
  C   C53       1.0  0.13189  0.16014  0.37491  1.0000
  H   H46       1.0  0.10724  0.16718  0.41507  1.0000
  H   H47       1.0  0.11859  0.18454  0.43230  1.0000
  H   H48       1.0  0.12812  0.16257  0.43222  1.0000
  H   H49       1.0  0.14600  0.19545  0.41154  1.0000
  H   H50       1.0  0.15577  0.17372  0.40964  1.0000
  H   H51       1.0  0.15416  0.18730  0.37783  1.0000
  H   H52       1.0  0.12565  0.19298  0.35429  1.0000
  H   H53       1.0  0.11677  0.20198  0.38704  1.0000
  H   H54       1.0  0.10594  0.18446  0.36906  1.0000
  H   H55       1.0  0.13826  0.16274  0.35372  1.0000
  H   H56       1.0  0.11895  0.15427  0.37040  1.0000
  H   H57       1.0  0.14017  0.14999  0.38649  1.0000
  N   N3        1.0  0.19740  0.21450  0.17636  1.0000
  C   C54       1.0  0.19662  0.19567  0.16911  1.0000
  C   C55       1.0  0.18797  0.21770  0.20375  1.0000
  C   C56       1.0  0.18901  0.22528  0.15312  1.0000
  C   C57       1.0  0.21600  0.21930  0.17955  1.0000
  H   H58       1.0  0.20352  0.19274  0.14848  1.0000
  C   C58       1.0  0.04281  0.34552  0.48807  1.0000
  H   H59       1.0  0.20286  0.18716  0.18617  1.0000
  H   H60       1.0  0.17411  0.21348  0.20261  1.0000
  H   H61       1.0  0.19435  0.21029  0.22193  1.0000
  H   H62       1.0  0.18760  0.23189  0.20939  1.0000
  H   H63       1.0  0.18860  0.23954  0.15835  1.0000
  H   H64       1.0  0.17516  0.22149  0.14945  1.0000
  H   H65       1.0  0.19611  0.22371  0.13228  1.0000
  H   H66       1.0  0.22361  0.21696  0.15936  1.0000
  H   H67       1.0  0.22266  0.21139  0.19704  1.0000
  H   H68       1.0  0.21704  0.23344  0.18501  1.0000
  C   C59       1.0  0.06480  0.47841  0.09709  1.0000
  C   C60       1.0  0.07869  0.08978  0.25193  1.0000
  H   H69       1.0  0.18407  0.36879  0.45957  1.0000
  H   H70       1.0  0.09530  0.11830  0.26855  1.0000
  H   H71       1.0  0.03859  0.45530  0.22015  1.0000
  H   H72       1.0  0.02370  0.03908  0.38505  1.0000
  H   H73       1.0  0.05368  0.10135  0.21484  1.0000
  H   H74       1.0  0.02588  0.36515  0.44691  1.0000
  H   H75       1.0  0.06112  0.12342  0.21118  1.0000
  H   H76       1.0  0.06187  0.37766  0.03160  1.0000
  H   H77       1.0  0.06510  0.11217  0.28932  1.0000
  N   N4        1.0  0.02105  0.44019  0.19475  1.0000
  C   C61       1.0  0.01140  0.08719  0.44161  1.0000
  H   H78       1.0  0.00955  0.37897  0.22560  1.0000
  H   H79       1.0  0.00143  0.42499  0.21593  1.0000
  H   H80       1.0  0.06723  0.08103  0.25079  1.0000
  H   H81       1.0  0.08536  0.13353  0.24320  1.0000
  H   H82       1.0  0.05667  0.12861  0.26434  1.0000
  H   H83       1.0  0.04775  0.10709  0.26524  1.0000
  C   C62       1.0  0.06549  0.10964  0.21650  1.0000
  H   H84       1.0  0.04164  0.42285  0.21161  1.0000
  H   H85       1.0  0.08877  0.08475  0.23641  1.0000
  H   H86       1.0  0.16649  0.33354  0.46965  1.0000
  H   H87       1.0  0.21842  0.35148  0.48480  1.0000
  H   H88       1.0  0.21525  0.33036  0.46937  1.0000
  H   H89       1.0  0.07502  0.10515  0.19969  1.0000
  N   N5        1.0  0.16697  0.26889  0.32480  1.0000
  C   C63       1.0  0.18219  0.25913  0.31208  1.0000
  C   C64       1.0  0.15157  0.25754  0.32554  1.0000
  C   C65       1.0  0.16274  0.28473  0.30701  1.0000
  C   C66       1.0  0.17136  0.27403  0.35448  1.0000
  H   H90       1.0  0.19408  0.26726  0.31116  1.0000
  H   H91       1.0  0.17927  0.25499  0.28970  1.0000
  H   H92       1.0  0.18570  0.24704  0.32493  1.0000
  H   H93       1.0  0.14782  0.25351  0.30345  1.0000
  H   H94       1.0  0.15440  0.24538  0.33849  1.0000
  H   H95       1.0  0.13985  0.26436  0.33528  1.0000
  H   H96       1.0  0.15933  0.28108  0.28452  1.0000
  H   H97       1.0  0.17409  0.29359  0.30575  1.0000
  H   H98       1.0  0.15125  0.29237  0.31588  1.0000
  H   H99       1.0  0.16006  0.28110  0.36504  1.0000
  H   H100      1.0  0.18286  0.28272  0.35482  1.0000
  H   H101      1.0  0.02164  0.08591  0.48495  1.0000
  C   C67       1.0  0.23179  0.29835  0.49123  1.0000
  C   C68       1.0  0.22942  0.30621  0.01369  1.0000
  H   H102      1.0  0.02678  0.41275  0.18731  1.0000
  H   H103      1.0  0.05319  0.39211  0.00398  1.0000
  H   H104      1.0  0.02667  0.03819  0.42334  1.0000
  C   C69       1.0  0.04489  0.00416  0.37196  1.0000
  C   C70       1.0  0.00578  0.41518  0.44173  1.0000
  C   C71       1.0  0.01222  0.07836  0.19436  1.0000
  C   C72       1.0  0.06379  0.34847  0.99875  1.0000
  S   S31       1.0  0.02248  0.41855  0.49358  1.0000
  N   N6        1.0  0.19129  0.34441  0.48106  1.0000
  S   S32       1.0  0.20992  0.29226  0.48418  1.0000
  H   H105      1.0  0.04304  0.42724  0.17364  1.0000
  H   H106      1.0  0.01657  0.43490  0.23980  1.0000
  C   C73       1.0  0.18412  0.36271  0.48149  1.0000
  H   H107      1.0  0.24718  0.26648  0.03450  1.0000
  H   H108      1.0  0.19203  0.37105  0.49575  1.0000
  H   H109      1.0  0.02645  0.37411  0.00519  1.0000
  H   H110      1.0  0.03305  0.33783  0.47607  1.0000
  C   C74       1.0  0.00323  0.01434  0.40675  1.0000
  H   H111      1.0  0.00887  0.01075  0.38534  1.0000
  H   H112      1.0  0.00132  0.03346  0.45530  1.0000
  N   N7        1.0  0.03734  0.36433  0.48931  1.0000
  H   H113      1.0  0.01270  0.00916  0.42333  1.0000
  C   C75       1.0  0.06740  0.49662  0.09517  1.0000
  H   H114      1.0  0.21775  0.31457  0.01668  1.0000
  C   C76       1.0  0.24365  0.31225  0.99718  1.0000
  H   H115      1.0  0.02823  0.35097  0.99749  1.0000
  H   H116      1.0  0.05581  0.34365  0.47719  1.0000
  H   H117      1.0  0.00953  0.35964  0.49143  1.0000
  N   N8        1.0  0.00029  0.03360  0.40901  1.0000
  H   H118      1.0  0.06389  0.37253  0.49597  1.0000
  Fe  Fe17      1.0  0.04759  0.09323  0.83225  1.0000
  S   S33       1.0  0.01885  0.09357  0.81932  1.0000
  S   S34       1.0  0.05876  0.12075  0.82487  1.0000
  Fe  Fe18      1.0  0.04703  0.05300  0.84483  1.0000
  S   S35       1.0  0.01901  0.05125  0.83093  1.0000
  S   S36       1.0  0.06173  0.02794  0.86015  1.0000
  Fe  Fe19      1.0  0.02591  0.06931  0.79422  1.0000
  S   S37       1.0  0.02239  0.06443  0.74616  1.0000
  Fe  Fe20      1.0  0.01482  0.07560  0.85760  1.0000
  S   S38       1.0  0.02059  0.43414  0.57684  1.0000
  S   S39       1.0  0.05464  0.06931  0.80614  1.0000
  S   S40       1.0  0.04280  0.07696  0.87267  1.0000
  Fe  Fe21      1.0  0.04889  0.43059  0.59010  1.0000
  H   H119      1.0  0.01897  0.06385  0.68489  1.0000
  S   S41       1.0  0.06934  0.45018  0.60252  1.0000
  Fe  Fe22      1.0  0.04955  0.39055  0.58185  1.0000
  S   S42       1.0  0.02088  0.39085  0.56901  1.0000
  S   S43       1.0  0.06606  0.36483  0.58608  1.0000
  Fe  Fe23      1.0  0.02699  0.41460  0.54187  1.0000
  N   N9        1.0  0.10334  0.40324  0.61889  1.0000
  Fe  Fe24      1.0  0.01644  0.41018  0.60517  1.0000
  H   H120      1.0  0.06340  0.37037  0.95262  1.0000
  S   S44       1.0  0.05590  0.41310  0.55280  1.0000
  S   S45       1.0  0.04444  0.40782  0.62030  1.0000
  Fe  Fe25      1.0  0.18279  0.19508  0.78300  1.0000
  S   S46       1.0  0.17140  0.22183  0.77108  1.0000
  S   S47       1.0  0.21179  0.18680  0.78557  1.0000
  Fe  Fe26      1.0  0.14639  0.17932  0.79433  1.0000
  S   S48       1.0  0.13227  0.20487  0.78304  1.0000
  S   S49       1.0  0.13519  0.15340  0.81091  1.0000
  Fe  Fe27      1.0  0.15149  0.20703  0.74621  1.0000
  S   S50       1.0  0.14043  0.21536  0.70247  1.0000
  Fe  Fe28      1.0  0.15312  0.21790  0.80877  1.0000
  S   S51       1.0  0.14387  0.24112  0.83580  1.0000
  S   S52       1.0  0.16413  0.18032  0.75533  1.0000
  S   S53       1.0  0.16606  0.19229  0.82283  1.0000
  Fe  Fe29      1.0  0.16668  0.27620  0.56684  1.0000
  S   S54       1.0  0.17703  0.30274  0.55408  1.0000
  S   S55       1.0  0.17543  0.26752  0.61211  1.0000
  H   H121      1.0  0.19770  0.24194  0.94149  1.0000
  N   N10       1.0  0.02413  0.03375  0.94632  1.0000
  S   S56       1.0  0.16114  0.24501  0.96984  1.0000
  H   H122      1.0  0.02507  0.05784  0.92175  1.0000
  C   C77       1.0  0.05110  0.48229  0.61341  1.0000
  Fe  Fe30      1.0  0.15058  0.30775  0.53288  1.0000
  S   S57       1.0  0.13824  0.33574  0.52941  1.0000
  S   S58       1.0  0.17743  0.26282  0.52706  1.0000
  S   S59       1.0  0.13958  0.28200  0.54792  1.0000
  C   C78       1.0  0.16546  0.25282  0.63663  1.0000
  C   C79       1.0  0.17360  0.24945  0.66343  1.0000
  C   C80       1.0  0.16617  0.23794  0.68375  1.0000
  C   C81       1.0  0.15049  0.22968  0.67742  1.0000
  C   C82       1.0  0.14235  0.23302  0.65066  1.0000
  C   C83       1.0  0.14979  0.24453  0.63031  1.0000
  H   H123      1.0  0.18570  0.25586  0.66849  1.0000
  H   H124      1.0  0.17254  0.23557  0.70429  1.0000
  H   H125      1.0  0.13020  0.22669  0.64556  1.0000
  H   H126      1.0  0.14341  0.24700  0.60977  1.0000
  C   C84       1.0  0.14911  0.24240  0.87291  1.0000
  C   C85       1.0  0.14319  0.25710  0.88875  1.0000
  C   C86       1.0  0.14685  0.25829  0.91843  1.0000
  C   C87       1.0  0.15632  0.24465  0.93254  1.0000
  C   C88       1.0  0.16232  0.23002  0.91662  1.0000
  C   C89       1.0  0.15884  0.22893  0.88695  1.0000
  H   H127      1.0  0.13565  0.26760  0.87809  1.0000
  H   H128      1.0  0.14214  0.26961  0.93046  1.0000
  H   H129      1.0  0.16974  0.21945  0.92734  1.0000
  H   H130      1.0  0.16370  0.21768  0.87497  1.0000
  H   H131      1.0  0.12233  0.38375  0.60389  1.0000
  H   H132      1.0  0.08205  0.41772  0.63938  1.0000
  H   H133      1.0  0.12261  0.41493  0.64588  1.0000
  H   H134      1.0  0.19516  0.29050  0.94976  1.0000
  H   H135      1.0  0.22222  0.18315  0.65316  1.0000
  H   H136      1.0  0.17485  0.19831  0.69743  1.0000
  C   C90       1.0  0.05045  0.36825  0.96315  1.0000
  C   C91       1.0  0.22680  0.21149  0.74948  1.0000
  C   C92       1.0  0.22935  0.19631  0.76646  1.0000
  H   H137      1.0  0.01977  0.39973  0.67595  1.0000
  H   H138      1.0  0.21398  0.21811  0.74880  1.0000
  H   H139      1.0  0.10538  0.28102  0.76121  1.0000
  C   C93       1.0  0.08572  0.35683  0.56888  1.0000
  C   C94       1.0  0.09476  0.36673  0.54833  1.0000
  C   C95       1.0  0.11074  0.36006  0.53642  1.0000
  C   C96       1.0  0.11774  0.34331  0.54443  1.0000
  C   C97       1.0  0.10853  0.33331  0.56457  1.0000
  C   C98       1.0  0.09270  0.34008  0.57678  1.0000
  H   H140      1.0  0.08950  0.37952  0.54162  1.0000
  H   H141      1.0  0.09486  0.47615  0.59957  1.0000
  H   H142      1.0  0.11370  0.32042  0.57098  1.0000
  H   H143      1.0  0.08583  0.33225  0.59256  1.0000
  C   C99       1.0  0.06708  0.47332  0.60679  1.0000
  C   C100      1.0  0.08245  0.48287  0.60453  1.0000
  C   C101      1.0  0.00544  0.07277  0.72317  1.0000
  C   C102      1.0  0.11479  0.24675  0.75751  1.0000
  H   H144      1.0  0.20467  0.27640  0.99457  1.0000
  H   H145      1.0  0.02379  0.10224  0.75562  1.0000
  H   H146      1.0  0.11770  0.36789  0.52077  1.0000
  H   H147      1.0  0.20089  0.18804  0.72493  1.0000
  H   H148      1.0  0.00204  0.47864  0.72782  1.0000
  H   H149      1.0  0.08516  0.39673  0.58585  1.0000
  H   H150      1.0  0.23024  0.27638  0.92554  1.0000
  N   N11       1.0  0.05258  0.36456  0.99429  1.0000
  C   C103      1.0  0.11378  0.14442  0.81285  1.0000
  C   C104      1.0  0.11229  0.12656  0.82060  1.0000
  C   C105      1.0  0.09564  0.11898  0.82389  1.0000
  C   C106      1.0  0.08020  0.12928  0.81993  1.0000
  C   C107      1.0  0.08169  0.14716  0.81217  1.0000
  C   C108      1.0  0.09834  0.15468  0.80849  1.0000
  H   H151      1.0  0.12412  0.11849  0.82419  1.0000
  H   H152      1.0  0.09479  0.10525  0.82995  1.0000
  H   H153      1.0  0.06985  0.15529  0.80916  1.0000
  H   H154      1.0  0.09920  0.16844  0.80269  1.0000
  H   H155      1.0  0.11032  0.43022  0.62320  1.0000
  C   C109      1.0  0.03232  0.00806  0.87058  1.0000
  H   H156      1.0  0.01584  0.38022  0.50591  1.0000
  H   H157      1.0  0.14777  0.16674  0.90564  1.0000
  C   C110      1.0  0.11651  0.41670  0.62422  1.0000
  H   H158      1.0  0.07109  0.09853  0.73534  1.0000
  N   N12       1.0  0.12650  0.18250  0.88711  1.0000
  H   H159      1.0  0.10945  0.19920  0.86087  1.0000
  C   C111      1.0  0.00420  0.40983  0.97299  1.0000
  H   H160      1.0  0.20248  0.16820  0.70471  1.0000
  H   H161      1.0  0.18263  0.27144  0.94325  1.0000
  H   H162      1.0  0.02869  0.00821  0.96594  1.0000
  H   H163      1.0  0.01520  0.09964  0.97657  1.0000
  C   C112      1.0  0.08921  0.40467  0.64077  1.0000
  H   H164      1.0  0.12267  0.27570  0.78660  1.0000
  H   H165      1.0  0.10018  0.17273  0.88763  1.0000
  H   H166      1.0  0.22109  0.18216  0.70688  1.0000
  H   H167      1.0  0.11809  0.23462  0.74511  1.0000
  H   H168      1.0  0.12705  0.28932  0.75565  1.0000
  H   H169      1.0  0.01433  0.03422  0.98987  1.0000
  H   H170      1.0  0.12726  0.41612  0.60790  1.0000
  H   H171      1.0  0.13290  0.20470  0.91296  1.0000
  C   C113      1.0  0.14382  0.25793  0.75013  1.0000
  H   H172      1.0  0.11608  0.15919  0.86877  1.0000
  C   C114      1.0  0.00496  0.09193  0.96729  1.0000
  H   H173      1.0  0.11018  0.19899  0.91431  1.0000
  C   C115      1.0  0.09567  0.40618  0.58997  1.0000
  C   C116      1.0  0.11181  0.38545  0.62045  1.0000
  H   H174      1.0  0.04198  0.38035  0.95933  1.0000
  H   H175      1.0  0.01544  0.09379  0.92399  1.0000
  H   H176      1.0  0.11616  0.15938  0.90735  1.0000
  H   H177      1.0  0.01829  0.45003  0.73235  1.0000
  H   H178      1.0  0.15183  0.26894  0.74198  1.0000
  H   H179      1.0  0.14734  0.25551  0.77318  1.0000
  H   H180      1.0  0.22097  0.23970  0.94819  1.0000
  H   H181      1.0  0.22704  0.28756  0.95903  1.0000
  H   H182      1.0  0.01021  0.46702  0.77659  1.0000
  H   H183      1.0  0.07933  0.39433  0.63784  1.0000
  H   H184      1.0  0.00026  0.01908  0.66786  1.0000
  H   H185      1.0  0.10647  0.26804  0.71230  1.0000
  C   C117      1.0  0.23621  0.30853  0.51490  1.0000
  H   H186      1.0  0.19623  0.32313  0.51096  1.0000
  H   H187      1.0  0.00876  0.02226  0.91308  1.0000
  H   H188      1.0  0.19766  0.27902  0.91627  1.0000
  H   H189      1.0  0.04414  0.35720  0.95210  1.0000
  C   C118      1.0  0.14482  0.17525  0.88647  1.0000
  H   H190      1.0  0.01747  0.41915  0.93496  1.0000
  H   H191      1.0  0.22627  0.31203  0.53071  1.0000
  C   C119      1.0  0.00514  0.08862  0.93750  1.0000
  C   C120      1.0  0.20645  0.18216  0.70492  1.0000
  C   C121      1.0  0.00666  0.39843  0.71736  1.0000
  H   H192      1.0  0.13227  0.20459  0.85965  1.0000
  H   H193      1.0  0.02452  0.01946  0.86372  1.0000
  C   C122      1.0  0.12390  0.19341  0.91301  1.0000
  C   C123      1.0  0.11417  0.16784  0.88781  1.0000
  H   H194      1.0  0.12834  0.27590  0.70660  1.0000
  C   C124      1.0  0.05053  0.37394  0.50575  1.0000
  H   H195      1.0  0.06262  0.10236  0.77087  1.0000
  H   H196      1.0  0.08962  0.41966  0.58764  1.0000
  C   C125      1.0  0.12312  0.19346  0.86106  1.0000
  H   H197      1.0  0.11783  0.24384  0.78061  1.0000
  H   H198      1.0  0.10576  0.40454  0.57273  1.0000
  H   H199      1.0  0.04699  0.38825  0.50648  1.0000
  C   C126      1.0  0.11973  0.27769  0.76323  1.0000
  C   C127      1.0  0.20653  0.26354  0.98380  1.0000
  H   H200      1.0  0.17546  0.19951  0.65891  1.0000
  H   H201      1.0  0.20310  0.19057  0.63303  1.0000
  H   H202      1.0  0.01855  0.39450  0.72889  1.0000
  H   H203      1.0  0.19889  0.34450  0.52571  1.0000
  H   H204      1.0  0.11781  0.38273  0.64195  1.0000
  C   C128      1.0  0.24089  0.21805  0.73325  1.0000
  C   C129      1.0  0.00741  0.40144  0.68735  1.0000
  C   C130      1.0  0.24621  0.18811  0.76776  1.0000
  C   C131      1.0  0.12073  0.26488  0.71578  1.0000
  H   H205      1.0  0.12653  0.18564  0.93312  1.0000
  H   H206      1.0  0.15451  0.18591  0.88609  1.0000
  C   C132      1.0  0.03522  0.01764  0.95119  1.0000
  H   H207      1.0  0.09454  0.40311  0.66298  1.0000
  H   H208      1.0  0.14726  0.16706  0.86702  1.0000
  H   H209      1.0  0.20331  0.16960  0.65139  1.0000
  H   H210      1.0  0.12484  0.18557  0.84117  1.0000
  H   H211      1.0  0.10031  0.24929  0.75564  1.0000
  Fe  Fe31      1.0  0.18590  0.28966  0.51322  1.0000
  N   N13       1.0  0.20999  0.26593  0.95273  1.0000
  N   N14       1.0  0.04666  0.11372  0.73677  1.0000
  C   C133      1.0  0.05876  0.09971  0.74825  1.0000
  C   C134      1.0  0.05557  0.13071  0.73715  1.0000
  C   C135      1.0  0.03064  0.11495  0.75486  1.0000
  C   C136      1.0  0.04166  0.10946  0.70698  1.0000
  H   H212      1.0  0.05254  0.08667  0.74810  1.0000
  H   H213      1.0  0.05950  0.13411  0.75950  1.0000
  H   H214      1.0  0.03496  0.09664  0.70625  1.0000
  H   H215      1.0  0.19436  0.25614  0.98771  1.0000
  H   H216      1.0  0.04681  0.14163  0.72881  1.0000
  H   H217      1.0  0.03916  0.47500  0.61555  1.0000
  H   H218      1.0  0.02104  0.12514  0.74653  1.0000
  H   H219      1.0  0.03389  0.11845  0.77740  1.0000
  H   H220      1.0  0.04412  0.33961  0.51009  1.0000
  H   H221      1.0  0.21304  0.24982  0.91521  1.0000
  C   C137      1.0  0.00562  0.41340  0.94329  1.0000
  H   H222      1.0  0.05339  0.10842  0.69263  1.0000
  H   H223      1.0  0.10205  0.37508  0.61660  1.0000
  H   H224      1.0  0.05151  0.36899  0.52838  1.0000
  C   C138      1.0  0.02001  0.36614  0.50374  1.0000
  C   C139      1.0  0.03315  0.04562  0.92609  1.0000
  H   H225      1.0  0.23880  0.22971  0.71994  1.0000
  H   H226      1.0  0.00144  0.43880  0.71345  1.0000
  C   C140      1.0  0.22709  0.27442  0.94873  1.0000
  C   C141      1.0  0.05073  0.00850  0.86998  1.0000
  H   H227      1.0  0.06777  0.13028  0.72381  1.0000
  H   H228      1.0  0.03801  0.01066  0.93069  1.0000
  H   H229      1.0  0.12417  0.25299  0.70284  1.0000
  H   H230      1.0  0.14797  0.24600  0.73796  1.0000
  H   H231      1.0  0.04819  0.02074  0.96067  1.0000
  N   N15       1.0  0.12475  0.26184  0.74664  1.0000
  C   C142      1.0  0.00700  0.02905  0.93398  1.0000
  H   H232      1.0  0.23811  0.26643  0.95862  1.0000
  H   H233      1.0  0.20141  0.21816  0.66105  1.0000
  N   N16       1.0  0.20021  0.19197  0.67900  1.0000
  C   C143      1.0  0.20609  0.21029  0.68012  1.0000
  C   C144      1.0  0.18074  0.19203  0.67799  1.0000
  H   H234      1.0  0.01269  0.05490  0.97107  1.0000
  C   C145      1.0  0.20753  0.18344  0.65297  1.0000
  C   C146      1.0  0.21049  0.24858  0.93873  1.0000
  H   H235      1.0  0.22074  0.21076  0.68072  1.0000
  H   H236      1.0  0.20093  0.21706  0.69964  1.0000
  H   H237      1.0  0.03237  0.11964  0.69767  1.0000
  H   H238      1.0  0.00796  0.43155  0.74886  1.0000
  H   H239      1.0  0.17575  0.17846  0.67710  1.0000
  H   H240      1.0  0.04612  0.04955  0.93457  1.0000
  C   C147      1.0  0.02111  0.04277  0.97400  1.0000
  C   C148      1.0  0.00719  0.07034  0.69331  1.0000
  C   C149      1.0  0.00551  0.44346  0.73504  1.0000
  C   C150      1.0  0.19577  0.27722  0.93986  1.0000
  H   H241      1.0  0.24279  0.32524  0.98740  1.0000
  H   H242      1.0  0.03567  0.03927  0.90497  1.0000
  H   H243      1.0  0.05823  0.33693  0.98798  1.0000
  Fe  Fe32      1.0  0.15138  0.27059  0.50691  1.0000
  H   H244      1.0  0.21754  0.25621  0.99493  1.0000
  H   H245      1.0  0.17715  0.33674  0.51913  1.0000
  C   C151      1.0  0.19087  0.33690  0.51053  1.0000
  H   H246      1.0  0.02038  0.36025  0.52582  1.0000
  H   H247      1.0  0.07741  0.35015  0.99041  1.0000
  H   H248      1.0  0.03370  0.04678  0.98380  1.0000
  H   H249      1.0  0.24830  0.17638  0.78093  1.0000
  S   S60       1.0  0.02191  0.41516  0.99582  1.0000
  H   H250      1.0  0.99971  0.02020  0.94868  1.0000
  Fe  Fe33      1.0  0.01884  0.91551  0.38092  1.0000
  S   S61       1.0  0.04755  0.91840  0.39107  1.0000
  C   C152      1.0  0.24812  0.79918  0.00308  1.0000
  S   S62       1.0  0.00988  0.93262  0.41740  1.0000
  S   S63       1.0  0.03848  0.90994  0.45876  1.0000
  H   H251      1.0  0.05168  0.58318  0.22886  1.0000
  Fe  Fe34      1.0  0.03827  0.93389  0.42924  1.0000
  S   S64       1.0  0.04655  0.96107  0.44260  1.0000
  Fe  Fe35      1.0  0.04507  0.89410  0.41896  1.0000
  S   S65       1.0  0.06282  0.86987  0.40885  1.0000
  C   C153      1.0  0.19248  0.72845  0.16004  1.0000
  S   S66       1.0  0.01649  0.89063  0.40709  1.0000
  Fe  Fe36      1.0  0.02523  0.56652  0.18389  1.0000
  S   S67       1.0  0.05382  0.56762  0.17086  1.0000
  H   H252      1.0  0.22655  0.73352  0.14824  1.0000
  Fe  Fe37      1.0  0.01258  0.57563  0.12229  1.0000
  S   S68       1.0  0.04014  0.57825  0.10584  1.0000
  H   H253      1.0  0.21927  0.68504  0.30128  1.0000
  Fe  Fe38      1.0  0.04572  0.55315  0.13120  1.0000
  S   S69       1.0  0.06134  0.53127  0.10860  1.0000
  Fe  Fe39      1.0  0.04565  0.59253  0.14720  1.0000
  S   S70       1.0  0.05733  0.61983  0.15218  1.0000
  S   S71       1.0  0.01793  0.54999  0.14608  1.0000
  S   S72       1.0  0.01724  0.59185  0.16166  1.0000
  Fe  Fe40      1.0  0.14388  0.80587  0.46301  1.0000
  S   S73       1.0  0.13138  0.78249  0.44328  1.0000
  S   S74       1.0  0.12870  0.83168  0.47289  1.0000
  H   H254      1.0  0.07813  0.50143  0.08220  1.0000
  S   S75       1.0  0.16815  0.76021  0.45766  1.0000
  C   C154      1.0  0.05037  0.99492  0.42167  1.0000
  Fe  Fe41      1.0  0.15782  0.77768  0.42189  1.0000
  S   S76       1.0  0.16416  0.77218  0.37478  1.0000
  H   H255      1.0  0.04258  0.54426  0.01653  1.0000
  S   S77       1.0  0.15414  0.74162  0.02601  1.0000
  S   S78       1.0  0.16993  0.80205  0.43971  1.0000
  C   C155      1.0  0.18624  0.70216  0.34327  1.0000
  Fe  Fe42      1.0  0.17794  0.69257  0.21246  1.0000
  S   S79       1.0  0.16624  0.71884  0.22473  1.0000
  S   S80       1.0  0.20735  0.68692  0.20702  1.0000
  Fe  Fe43      1.0  0.14152  0.67612  0.20460  1.0000
  S   S81       1.0  0.12717  0.70148  0.21605  1.0000
  S   S82       1.0  0.13046  0.64875  0.19805  1.0000
  Fe  Fe44      1.0  0.14735  0.71473  0.18826  1.0000
  S   S83       1.0  0.14128  0.73943  0.16169  1.0000
  Fe  Fe45      1.0  0.14717  0.70368  0.25143  1.0000
  S   S84       1.0  0.13772  0.71017  0.29673  1.0000
  S   S85       1.0  0.16035  0.68933  0.17402  1.0000
  S   S86       1.0  0.16035  0.67747  0.24205  1.0000
  C   C156      1.0  0.15082  0.74156  0.06379  1.0000
  C   C157      1.0  0.14769  0.75704  0.07921  1.0000
  C   C158      1.0  0.14479  0.75622  0.10920  1.0000
  C   C159      1.0  0.14511  0.73997  0.12402  1.0000
  C   C160      1.0  0.14844  0.72453  0.10864  1.0000
  C   C161      1.0  0.15126  0.72534  0.07869  1.0000
  H   H256      1.0  0.14731  0.76961  0.06799  1.0000
  H   H257      1.0  0.14221  0.76825  0.12091  1.0000
  H   H258      1.0  0.14844  0.71192  0.11968  1.0000
  H   H259      1.0  0.15356  0.71329  0.06692  1.0000
  C   C162      1.0  0.15708  0.75442  0.35399  1.0000
  C   C163      1.0  0.14452  0.74281  0.36412  1.0000
  C   C164      1.0  0.13883  0.72924  0.34636  1.0000
  C   C165      1.0  0.14573  0.72708  0.31848  1.0000
  C   C166      1.0  0.15852  0.73850  0.30852  1.0000
  C   C167      1.0  0.16408  0.75216  0.32616  1.0000
  H   H260      1.0  0.13903  0.74444  0.38548  1.0000
  H   H261      1.0  0.12894  0.72045  0.35426  1.0000
  H   H262      1.0  0.16406  0.73695  0.28722  1.0000
  H   H263      1.0  0.17383  0.76110  0.31824  1.0000
  Fe  Fe46      1.0  0.17878  0.78464  0.47697  1.0000
  C   C168      1.0  0.22370  0.69518  0.22986  1.0000
  C   C169      1.0  0.22056  0.71029  0.24616  1.0000
  H   H264      1.0  0.21846  0.70539  0.32030  1.0000
  H   H265      1.0  0.06176  0.59925  0.20600  1.0000
  H   H266      1.0  0.20821  0.71767  0.24389  1.0000
  H   H267      1.0  0.22397  0.71126  0.16057  1.0000
  C   C170      1.0  0.03672  0.54541  0.03842  1.0000
  N   N17       1.0  0.04702  0.61002  0.24152  1.0000
  H   H268      1.0  0.01407  0.53429  0.99959  1.0000
  H   H269      1.0  0.03473  0.51121  0.13986  1.0000
  H   H270      1.0  0.20679  0.72951  0.09065  1.0000
  C   C171      1.0  0.07787  0.62747  0.16477  1.0000
  C   C172      1.0  0.08029  0.64574  0.16598  1.0000
  C   C173      1.0  0.09620  0.65252  0.17615  1.0000
  C   C174      1.0  0.10995  0.64108  0.18528  1.0000
  C   C175      1.0  0.10746  0.62281  0.18433  1.0000
  C   C176      1.0  0.09155  0.61603  0.17417  1.0000
  H   H271      1.0  0.06981  0.65473  0.15878  1.0000
  H   H272      1.0  0.09787  0.66658  0.17668  1.0000
  H   H273      1.0  0.11802  0.61382  0.19123  1.0000
  H   H274      1.0  0.09000  0.60196  0.17326  1.0000
  H   H275      1.0  0.00181  0.54757  0.02459  1.0000
  H   H276      1.0  0.04249  0.51241  0.05615  1.0000
  H   H277      1.0  0.19465  0.71967  0.17913  1.0000
  H   H278      1.0  0.03510  0.59235  0.27170  1.0000
  C   C177      1.0  0.00510  0.56919  0.25493  1.0000
  Fe  Fe47      1.0  0.01021  0.90809  0.44501  1.0000
  C   C178      1.0  0.22146  0.72053  0.14208  1.0000
  H   H279      1.0  0.01373  0.90648  0.00808  1.0000
  H   H280      1.0  0.00906  0.96095  0.46334  1.0000
  H   H281      1.0  0.03635  0.98363  0.34416  1.0000
  H   H282      1.0  0.09541  0.78322  0.47497  1.0000
  C   C179      1.0  0.08106  0.85951  0.42727  1.0000
  C   C180      1.0  0.08886  0.84403  0.41581  1.0000
  C   C181      1.0  0.10346  0.83541  0.42930  1.0000
  C   C182      1.0  0.11053  0.84220  0.45448  1.0000
  C   C183      1.0  0.10268  0.85762  0.46603  1.0000
  C   C184      1.0  0.08804  0.86621  0.45257  1.0000
  H   H283      1.0  0.08361  0.83871  0.39625  1.0000
  H   H284      1.0  0.10935  0.82361  0.42006  1.0000
  H   H285      1.0  0.19817  0.69472  0.14545  1.0000
  H   H286      1.0  0.08225  0.87811  0.46165  1.0000
  C   C185      1.0  0.04577  0.97762  0.41534  1.0000
  C   C186      1.0  0.04055  0.97373  0.38736  1.0000
  C   C187      1.0  0.04022  0.98689  0.36582  1.0000
  C   C188      1.0  0.00385  0.58325  0.04129  1.0000
  H   H287      1.0  0.03696  0.96049  0.38214  1.0000
  H   H288      1.0  0.21808  0.68494  0.33994  1.0000
  C   C189      1.0  0.00418  0.58308  0.01093  1.0000
  H   H289      1.0  0.07099  0.59405  0.24068  1.0000
  C   C190      1.0  0.06526  0.85752  0.01491  1.0000
  H   H290      1.0  0.03379  0.61669  0.20181  1.0000
  H   H291      1.0  0.04479  0.86547  0.06099  1.0000
  H   H292      1.0  0.01550  0.58654  0.05316  1.0000
  C   C191      1.0  0.18804  0.70116  0.29151  1.0000
  H   H293      1.0  0.02163  0.62261  0.23363  1.0000
  H   H294      1.0  0.20366  0.69884  0.10839  1.0000
  C   C192      1.0  0.19633  0.70429  0.12722  1.0000
  H   H295      1.0  0.19122  0.66708  0.33927  1.0000
  H   H296      1.0  0.09857  0.76123  0.28685  1.0000
  H   H297      1.0  0.17155  0.70244  0.34290  1.0000
  H   H298      1.0  0.11597  0.74521  0.29371  1.0000
  H   H299      1.0  0.17267  0.67414  0.31745  1.0000
  C   C193      1.0  0.01571  0.53441  0.07272  1.0000
  H   H300      1.0  0.01450  0.55366  0.29126  1.0000
  H   H301      1.0  0.02599  0.53220  0.08948  1.0000
  H   H302      1.0  0.19032  0.71611  0.34298  1.0000
  H   H303      1.0  0.17346  0.70191  0.28981  1.0000
  S   S87       1.0  0.02077  0.55944  0.23120  1.0000
  C   C194      1.0  0.03077  0.61246  0.22429  1.0000
  S   S88       1.0  0.15268  0.79487  0.99852  1.0000
  C   C195      1.0  0.00505  0.56372  0.28396  1.0000
  N   N18       1.0  0.05335  0.88623  0.31825  1.0000
  C   C196      1.0  0.05491  0.87440  0.29333  1.0000
  C   C197      1.0  0.05176  0.90469  0.30792  1.0000
  C   C198      1.0  0.06915  0.88390  0.33667  1.0000
  C   C199      1.0  0.03750  0.88192  0.33510  1.0000
  H   H304      1.0  0.05602  0.86037  0.30044  1.0000
  H   H305      1.0  0.06675  0.87725  0.28013  1.0000
  H   H306      1.0  0.04315  0.87592  0.27906  1.0000
  H   H307      1.0  0.05059  0.91401  0.32621  1.0000
  H   H308      1.0  0.06339  0.90844  0.29490  1.0000
  H   H309      1.0  0.03974  0.90703  0.29447  1.0000
  H   H310      1.0  0.06831  0.89259  0.35578  1.0000
  H   H311      1.0  0.08140  0.88705  0.32480  1.0000
  H   H312      1.0  0.07065  0.87017  0.34520  1.0000
  H   H313      1.0  0.03570  0.89091  0.35354  1.0000
  H   H314      1.0  0.03842  0.86829  0.34415  1.0000
  H   H315      1.0  0.02529  0.88333  0.32187  1.0000
  Fe  Fe48      1.0  0.14310  0.76730  0.48113  1.0000
  H   H316      1.0  0.03371  0.85061  0.03786  1.0000
  C   C200      1.0  0.21321  0.69188  0.32015  1.0000
  C   C201      1.0  0.05837  0.59600  0.22874  1.0000
  H   H317      1.0  0.19307  0.69386  0.27239  1.0000
  H   H318      1.0  0.03363  0.61508  0.28159  1.0000
  H   H319      1.0  0.13788  0.71043  0.99860  1.0000
  N   N19       1.0  0.02315  0.53221  0.04349  1.0000
  H   H320      1.0  0.05428  0.60285  0.28494  1.0000
  H   H321      1.0  0.02354  0.60000  0.22313  1.0000
  C   C202      1.0  0.23340  0.71582  0.26559  1.0000
  H   H322      1.0  0.01621  0.58601  0.99960  1.0000
  C   C203      1.0  0.05680  0.50856  0.11089  1.0000
  C   C204      1.0  0.24285  0.81366  0.48977  1.0000
  H   H323      1.0  0.19647  0.74186  0.16607  1.0000
  H   H324      1.0  0.19054  0.69613  0.36414  1.0000
  H   H325      1.0  0.19275  0.71485  0.29014  1.0000
  H   H326      1.0  0.23071  0.72727  0.27869  1.0000
  H   H327      1.0  0.02580  0.87297  0.04082  1.0000
  H   H328      1.0  0.04355  0.89716  0.02034  1.0000
  C   C205      1.0  0.18733  0.67419  0.31907  1.0000
  N   N20       1.0  0.19373  0.69234  0.31856  1.0000
  H   H329      1.0  0.21507  0.81250  0.47939  1.0000
  C   C206      1.0  0.04233  0.60489  0.27130  1.0000
  C   C207      1.0  0.03798  0.86441  0.03992  1.0000
  N   N21       1.0  0.04949  0.86948  0.01569  1.0000
  H   H330      1.0  0.00999  0.54793  0.07572  1.0000
  S   S89       1.0  0.01268  0.92251  0.33407  1.0000
  H   H331      1.0  0.19275  0.66646  0.30063  1.0000
  H   H332      1.0  0.06171  0.84369  0.01073  1.0000
  C   C208      1.0  0.05658  0.62664  0.24156  1.0000
  H   H333      1.0  0.04845  0.63754  0.25108  1.0000
  H   H334      1.0  0.06012  0.63080  0.21922  1.0000
  H   H335      1.0  0.06910  0.62525  0.25394  1.0000
  C   C209      1.0  0.24022  0.68634  0.23174  1.0000
  C   C210      1.0  0.19964  0.73416  0.11022  1.0000
  N   N22       1.0  0.11519  0.75545  0.25033  1.0000
  C   C211      1.0  0.10435  0.74100  0.24007  1.0000
  C   C212      1.0  0.11002  0.77195  0.23494  1.0000
  C   C213      1.0  0.13396  0.75112  0.24455  1.0000
  C   C214      1.0  0.11253  0.75762  0.28166  1.0000
  H   H336      1.0  0.10769  0.72843  0.25179  1.0000
  H   H337      1.0  0.10649  0.73861  0.21665  1.0000
  H   H338      1.0  0.09004  0.74393  0.24342  1.0000
  H   H339      1.0  0.11803  0.78308  0.24211  1.0000
  H   H340      1.0  0.11199  0.77063  0.21123  1.0000
  H   H341      1.0  0.09590  0.77563  0.23867  1.0000
  H   H342      1.0  0.13655  0.74975  0.22106  1.0000
  H   H343      1.0  0.13806  0.73846  0.25510  1.0000
  H   H344      1.0  0.14267  0.76141  0.25277  1.0000
  H   H345      1.0  0.12096  0.76800  0.29041  1.0000
  H   H346      1.0  0.01243  0.90839  0.06150  1.0000
  H   H347      1.0  0.07266  0.85761  0.03557  1.0000
  C   C215      1.0  0.00262  0.90141  0.01969  1.0000
  H   H348      1.0  0.20427  0.74753  0.11513  1.0000
  H   H349      1.0  0.24287  0.67478  0.21887  1.0000
  H   H350      1.0  0.18540  0.73564  0.10454  1.0000
  H   H351      1.0  0.10163  0.80554  0.46922  1.0000
  H   H352      1.0  0.18206  0.70480  0.12163  1.0000
  H   H353      1.0  0.07880  0.80038  0.46923  1.0000
  H   H354      1.0  0.06272  0.88914  0.03965  1.0000
  C   C216      1.0  0.04300  0.50215  0.12766  1.0000
  H   H355      1.0  0.03115  0.55902  0.04048  1.0000
  H   H356      1.0  0.24403  0.82691  0.48132  1.0000
  H   H357      1.0  0.17807  0.72920  0.15563  1.0000
  H   H358      1.0  0.00436  0.93150  0.27563  1.0000
  C   C217      1.0  0.05508  0.88776  0.01944  1.0000
  N   N23       1.0  0.20249  0.72187  0.13485  1.0000
  H   H359      1.0  0.22947  0.71563  0.12357  1.0000
  C   C218      1.0  0.00177  0.90259  0.04991  1.0000
  H   H360      1.0  0.04765  0.54392  0.05434  1.0000
  C   C219      1.0  0.00889  0.53466  0.02202  1.0000
  C   C220      1.0  0.03128  0.51437  0.04092  1.0000
  H   H361      1.0  0.06361  0.89203  0.00122  1.0000
  H   H362      1.0  0.22302  0.78637  0.99882  1.0000
  H   H363      1.0  0.03656  0.51208  0.01888  1.0000
  H   H364      1.0  0.03149  0.94322  0.49192  1.0000
  H   H365      1.0  0.10802  0.86303  0.48547  1.0000
  H   H366      1.0  0.07457  0.86147  0.99763  1.0000
  H   H367      1.0  0.02168  0.50402  0.04592  1.0000
  C   C221      1.0  0.22643  0.80552  0.48859  1.0000
  H   H368      1.0  0.00509  0.52503  0.07716  1.0000
  H   H369      1.0  0.05459  0.99801  0.44319  1.0000
  C   C222      1.0  0.09168  0.79717  0.47976  1.0000
  Fe  Fe49      1.0  0.02573  0.89837  0.87526  1.0000
  S   S90       1.0  0.04895  0.91477  0.88551  1.0000
  S   S91       1.0  0.02429  0.88992  0.82858  1.0000
  Fe  Fe50      1.0  0.01273  0.89907  0.93804  1.0000
  S   S92       1.0  0.03486  0.91564  0.95236  1.0000
  S   S93       1.0  0.15408  0.79075  0.50209  1.0000
  Fe  Fe51      1.0  0.02986  0.93137  0.91136  1.0000
  S   S94       1.0  0.02237  0.96057  0.90663  1.0000
  Fe  Fe52      1.0  0.05186  0.89733  0.92507  1.0000
  S   S95       1.0  0.07875  0.88650  0.94031  1.0000
  C   C223      1.0  0.10845  0.79627  0.52386  1.0000
  S   S96       1.0  0.02995  0.87984  0.91302  1.0000
  Fe  Fe53      1.0  0.02458  0.56545  0.68654  1.0000
  S   S97       1.0  0.05338  0.56874  0.67669  1.0000
  C   C224      1.0  0.06061  0.99340  0.87885  1.0000
  Fe  Fe54      1.0  0.01372  0.57391  0.62398  1.0000
  S   S98       1.0  0.04155  0.57836  0.61017  1.0000
  C   C225      1.0  0.02242  0.93848  0.83089  1.0000
  Fe  Fe55      1.0  0.04792  0.55374  0.63630  1.0000
  S   S99       1.0  0.06717  0.53345  0.61754  1.0000
  Fe  Fe56      1.0  0.04454  0.59302  0.65191  1.0000
  S   S100      1.0  0.05473  0.62097  0.65675  1.0000
  S   S101      1.0  0.02000  0.54853  0.64800  1.0000
  S   S102      1.0  0.01581  0.59041  0.66380  1.0000
  Fe  Fe57      1.0  0.13672  0.79443  0.95739  1.0000
  S   S103      1.0  0.13731  0.76469  0.95663  1.0000
  S   S104      1.0  0.10915  0.80698  0.94869  1.0000
  Fe  Fe58      1.0  0.17635  0.79475  0.96871  1.0000
  S   S105      1.0  0.17974  0.76551  0.96842  1.0000
  H   H370      1.0  0.07486  0.99357  0.87843  1.0000
  Fe  Fe59      1.0  0.16180  0.76631  0.92990  1.0000
  S   S106      1.0  0.16984  0.74553  0.89680  1.0000
  H   H371      1.0  0.01238  0.89548  0.57073  1.0000
  H   H372      1.0  0.01234  0.52308  0.52151  1.0000
  S   S107      1.0  0.16024  0.79591  0.92769  1.0000
  H   H373      1.0  0.16867  0.66102  0.69792  1.0000
  Fe  Fe60      1.0  0.17291  0.69736  0.70756  1.0000
  S   S108      1.0  0.16199  0.72490  0.71117  1.0000
  S   S109      1.0  0.20210  0.69058  0.70252  1.0000
  Fe  Fe61      1.0  0.13645  0.68184  0.70116  1.0000
  S   S110      1.0  0.12255  0.70855  0.70428  1.0000
  S   S111      1.0  0.12742  0.65332  0.69830  1.0000
  Fe  Fe62      1.0  0.14390  0.71838  0.67478  1.0000
  S   S112      1.0  0.14275  0.74135  0.64275  1.0000
  Fe  Fe63      1.0  0.14159  0.71362  0.74036  1.0000
  S   S113      1.0  0.13169  0.72987  0.77834  1.0000
  S   S114      1.0  0.15640  0.69151  0.66891  1.0000
  S   S115      1.0  0.15394  0.68634  0.73968  1.0000
  C   C226      1.0  0.13192  0.74542  0.54553  1.0000
  C   C227      1.0  0.13776  0.75977  0.56095  1.0000
  C   C228      1.0  0.14037  0.75835  0.59083  1.0000
  C   C229      1.0  0.13756  0.74248  0.60565  1.0000
  C   C230      1.0  0.13156  0.72811  0.59039  1.0000
  C   C231      1.0  0.12862  0.72964  0.56043  1.0000
  H   H374      1.0  0.14017  0.77203  0.55000  1.0000
  H   H375      1.0  0.14490  0.76956  0.60251  1.0000
  H   H376      1.0  0.12925  0.71584  0.60161  1.0000
  H   H377      1.0  0.12398  0.71849  0.54873  1.0000
  C   C232      1.0  0.15862  0.74106  0.86448  1.0000
  C   C233      1.0  0.14429  0.75151  0.85486  1.0000
  C   C234      1.0  0.13606  0.74772  0.82860  1.0000
  C   C235      1.0  0.14211  0.73355  0.81169  1.0000
  C   C236      1.0  0.15626  0.72289  0.82160  1.0000
  C   C237      1.0  0.16445  0.72663  0.84791  1.0000
  H   H378      1.0  0.13962  0.76259  0.86749  1.0000
  H   H379      1.0  0.12503  0.75595  0.82119  1.0000
  H   H380      1.0  0.16082  0.71176  0.80901  1.0000
  H   H381      1.0  0.17539  0.71834  0.85546  1.0000
  H   H382      1.0  0.01616  0.58752  0.55436  1.0000
  C   C238      1.0  0.21829  0.69304  0.72939  1.0000
  C   C239      1.0  0.21400  0.69286  0.75868  1.0000
  H   H383      1.0  0.18474  0.74327  0.50810  1.0000
  N   N24       1.0  0.19863  0.74467  0.77913  1.0000
  H   H384      1.0  0.20048  0.69129  0.76536  1.0000
  H   H385      1.0  0.01518  0.93986  0.77453  1.0000
  H   H386      1.0  0.22367  0.84013  0.96966  1.0000
  C   C240      1.0  0.17772  0.74232  0.52908  1.0000
  H   H387      1.0  0.13031  0.72915  0.97809  1.0000
  H   H388      1.0  0.03677  0.50577  0.54617  1.0000
  C   C241      1.0  0.02195  0.96738  0.80891  1.0000
  C   C242      1.0  0.07516  0.62955  0.66823  1.0000
  C   C243      1.0  0.07705  0.64792  0.66812  1.0000
  C   C244      1.0  0.09285  0.65543  0.67725  1.0000
  C   C245      1.0  0.10703  0.64464  0.68673  1.0000
  C   C246      1.0  0.10508  0.62626  0.68712  1.0000
  C   C247      1.0  0.08927  0.61875  0.67797  1.0000
  H   H389      1.0  0.06625  0.65644  0.66070  1.0000
  H   H390      1.0  0.09407  0.66956  0.67680  1.0000
  H   H391      1.0  0.11591  0.61775  0.69439  1.0000
  H   H392      1.0  0.08807  0.60461  0.67825  1.0000
  H   H393      1.0  0.17701  0.75973  0.76001  1.0000
  H   H394      1.0  0.15424  0.68589  0.97456  1.0000
  C   C248      1.0  0.17959  0.73359  0.57920  1.0000
  C   C249      1.0  0.17623  0.64885  0.69217  1.0000
  H   H395      1.0  0.05472  0.54927  0.56136  1.0000
  H   H396      1.0  0.08486  0.82159  0.53983  1.0000
  H   H397      1.0  0.18251  0.61399  0.69627  1.0000
  C   C250      1.0  0.20874  0.76042  0.78551  1.0000
  C   C251      1.0  0.06631  0.51019  0.61529  1.0000
  H   H398      1.0  0.22312  0.75709  0.78719  1.0000
  H   H399      1.0  0.01464  0.92693  0.83727  1.0000
  C   C252      1.0  0.08708  0.86432  0.94153  1.0000
  C   C253      1.0  0.07617  0.85005  0.93773  1.0000
  C   C254      1.0  0.08319  0.83266  0.94002  1.0000
  C   C255      1.0  0.10119  0.82925  0.94602  1.0000
  C   C256      1.0  0.11208  0.84352  0.94977  1.0000
  C   C257      1.0  0.10503  0.86092  0.94765  1.0000
  H   H400      1.0  0.06230  0.85236  0.93346  1.0000
  H   H401      1.0  0.07463  0.82171  0.93726  1.0000
  H   H402      1.0  0.12592  0.84115  0.95447  1.0000
  H   H403      1.0  0.11360  0.87182  0.95084  1.0000
  C   C258      1.0  0.03380  0.97817  0.89075  1.0000
  H   H404      1.0  0.19398  0.71942  0.79850  1.0000
  H   H405      1.0  0.12007  0.70845  0.97338  1.0000
  C   C259      1.0  0.05219  0.97822  0.88895  1.0000
  H   H406      1.0  0.01532  0.52279  0.57515  1.0000
  H   H407      1.0  0.03708  0.56197  0.54488  1.0000
  H   H408      1.0  0.05997  0.96687  0.89636  1.0000
  C   C260      1.0  0.19090  0.62228  0.70987  1.0000
  N   N25       1.0  0.03361  0.53403  0.54516  1.0000
  C   C261      1.0  0.17966  0.74963  0.77713  1.0000
  H   H409      1.0  0.17447  0.75500  0.79782  1.0000
  H   H410      1.0  0.20510  0.65289  0.72447  1.0000
  C   C262      1.0  0.23597  0.69470  0.72109  1.0000
  H   H411      1.0  0.20169  0.75834  0.56018  1.0000
  H   H412      1.0  0.16740  0.72594  0.57749  1.0000
  H   H413      1.0  0.05156  0.51679  0.52211  1.0000
  H   H414      1.0  0.06452  0.79105  0.51508  1.0000
  C   C263      1.0  0.16257  0.71879  0.95987  1.0000
  H   H415      1.0  0.00118  0.96301  0.85520  1.0000
  H   H416      1.0  0.01711  0.58890  0.50082  1.0000
  H   H417      1.0  0.03328  0.53373  0.59136  1.0000
  H   H418      1.0  0.21886  0.73274  0.75243  1.0000
  S   S116      1.0  0.12900  0.74675  0.50769  1.0000
  C   C264      1.0  0.04496  0.54943  0.54341  1.0000
  C   C265      1.0  0.16532  0.63432  0.73472  1.0000
  C   C266      1.0  0.19292  0.64927  0.73630  1.0000
  H   H419      1.0  0.15780  0.64642  0.74140  1.0000
  H   H420      1.0  0.16856  0.62649  0.75450  1.0000
  H   H421      1.0  0.18620  0.66186  0.74272  1.0000
  H   H422      1.0  0.19703  0.64210  0.75633  1.0000
  C   C267      1.0  0.14896  0.69092  0.95355  1.0000
  H   H423      1.0  0.20309  0.74680  0.73344  1.0000
  H   H424      1.0  0.01827  0.88981  0.76732  1.0000
  H   H425      1.0  0.20135  0.71580  0.52198  1.0000
  C   C268      1.0  0.02944  0.61261  0.77140  1.0000
  H   H426      1.0  0.05507  0.51722  0.56018  1.0000
  N   N26       1.0  0.18135  0.63867  0.71830  1.0000
  C   C269      1.0  0.04470  0.51772  0.54326  1.0000
  S   S117      1.0  0.01814  0.55671  0.73234  1.0000
  C   C270      1.0  0.22734  0.69445  0.77943  1.0000
  H   H427      1.0  0.15610  0.62668  0.72147  1.0000
  H   H428      1.0  0.18793  0.65292  0.67955  1.0000
  H   H429      1.0  0.21401  0.73881  0.57168  1.0000
  H   H430      1.0  0.18774  0.72736  0.59667  1.0000
  H   H431      1.0  0.20288  0.70926  0.55933  1.0000
  H   H432      1.0  0.24048  0.79901  0.56828  1.0000
  C   C271      1.0  0.23951  0.77971  0.51197  1.0000
  H   H433      1.0  0.11847  0.80522  0.51493  1.0000
  C   C272      1.0  0.13292  0.71468  0.97696  1.0000
  C   C273      1.0  0.07789  0.78855  0.52438  1.0000
  C   C274      1.0  0.02204  0.62056  0.72231  1.0000
  H   H434      1.0  0.23189  0.79263  0.60283  1.0000
  H   H435      1.0  0.16754  0.64130  0.67789  1.0000
  H   H436      1.0  0.02380  0.96959  0.53780  1.0000
  H   H437      1.0  0.06030  0.62753  0.75764  1.0000
  H   H438      1.0  0.02756  0.97311  0.82873  1.0000
  H   H439      1.0  0.20447  0.76636  0.80631  1.0000
  C   C275      1.0  0.00597  0.58319  0.51161  1.0000
  C   C276      1.0  0.22467  0.78855  0.50002  1.0000
  C   C277      1.0  0.00226  0.56171  0.78482  1.0000
  H   H440      1.0  0.04223  0.64295  0.75087  1.0000
  N   N27       1.0  0.06800  0.85530  0.84800  1.0000
  C   C278      1.0  0.05173  0.84813  0.86036  1.0000
  C   C279      1.0  0.07071  0.87297  0.85978  1.0000
  C   C280      1.0  0.06624  0.85667  0.81634  1.0000
  C   C281      1.0  0.08326  0.84352  0.85550  1.0000
  H   H441      1.0  0.04918  0.83486  0.85177  1.0000
  H   H442      1.0  0.03999  0.85681  0.85524  1.0000
  H   H443      1.0  0.05259  0.84686  0.88420  1.0000
  H   H444      1.0  0.05961  0.88226  0.85397  1.0000
  H   H445      1.0  0.07167  0.87255  0.88367  1.0000
  H   H446      1.0  0.08306  0.87868  0.85147  1.0000
  H   H447      1.0  0.06422  0.84357  0.80665  1.0000
  H   H448      1.0  0.07818  0.86223  0.80626  1.0000
  H   H449      1.0  0.05473  0.86541  0.81008  1.0000
  H   H450      1.0  0.08159  0.82997  0.84735  1.0000
  H   H451      1.0  0.08511  0.84243  0.87925  1.0000
  H   H452      1.0  0.09574  0.84847  0.84633  1.0000
  H   H453      1.0  0.12605  0.71032  0.92075  1.0000
  N   N28       1.0  0.09092  0.80021  0.51112  1.0000
  H   H454      1.0  0.01558  0.54639  0.57513  1.0000
  H   H455      1.0  0.17260  0.71593  0.94288  1.0000
  H   H456      1.0  0.22402  0.69407  0.80210  1.0000
  H   H457      1.0  0.01185  0.54660  0.52258  1.0000
  H   H458      1.0  0.10832  0.79789  0.54763  1.0000
  H   H459      1.0  0.13658  0.68399  0.94917  1.0000
  N   N29       1.0  0.03665  0.61595  0.74231  1.0000
  C   C282      1.0  0.00287  0.56724  0.75583  1.0000
  H   H460      1.0  0.02701  0.62304  0.70008  1.0000
  H   H461      1.0  0.01416  0.92842  0.49927  1.0000
  H   H462      1.0  0.19503  0.61428  0.72908  1.0000
  H   H463      1.0  0.02191  0.62432  0.77964  1.0000
  C   C283      1.0  0.03969  0.86828  0.98836  1.0000
  H   H464      1.0  0.05440  0.63351  0.72136  1.0000
  H   H465      1.0  0.17336  0.75595  0.53493  1.0000
  H   H466      1.0  0.15868  0.68712  0.93656  1.0000
  H   H467      1.0  0.03324  0.96376  0.79458  1.0000
  H   H468      1.0  0.03728  0.58869  0.73059  1.0000
  S   S118      1.0  0.00645  0.91577  0.89887  1.0000
  H   H469      1.0  0.03850  0.50758  0.62347  1.0000
  C   C284      1.0  0.19420  0.71592  0.54294  1.0000
  H   H470      1.0  0.09407  0.50822  0.60598  1.0000
  H   H471      1.0  0.01359  0.89730  0.51728  1.0000
  H   H472      1.0  0.03346  0.93354  0.81707  1.0000
  C   C285      1.0  0.20470  0.73714  0.75149  1.0000
  H   H473      1.0  0.01255  0.60976  0.72110  1.0000
  C   C286      1.0  0.00435  0.94459  0.78899  1.0000
  H   H474      1.0  0.02030  0.60143  0.77138  1.0000
  C   C287      1.0  0.08202  0.50110  0.60832  1.0000
  C   C288      1.0  0.04892  0.63064  0.74317  1.0000
  H   H475      1.0  0.05714  0.59585  0.74697  1.0000
  H   H476      1.0  0.04010  0.60919  0.78712  1.0000
  C   C289      1.0  0.20516  0.74443  0.55461  1.0000
  H   H477      1.0  0.14821  0.71317  0.90807  1.0000
  S   S119      1.0  0.19862  0.81388  0.97245  1.0000
  C   C290      1.0  0.23036  0.82860  0.97888  1.0000
  C   C291      1.0  0.20145  0.73149  0.80248  1.0000
  Fe  Fe64      1.0  0.15508  0.76527  0.99526  1.0000
  H   H478      1.0  0.05209  0.60211  0.71051  1.0000
  H   H479      1.0  0.01458  0.63264  0.72917  1.0000
  C   C292      1.0  0.00552  0.58232  0.54193  1.0000
  H   H480      1.0  0.13656  0.73090  0.92528  1.0000
  H   H481      1.0  0.01119  0.55125  0.79233  1.0000
  H   H482      1.0  0.18234  0.70781  0.54044  1.0000
  H   H483      1.0  0.17166  0.73810  0.77185  1.0000
  H   H484      1.0  0.17556  0.74705  0.58634  1.0000
  H   H485      1.0  0.05246  0.54976  0.52282  1.0000
  H   H486      1.0  0.20300  0.62516  0.69728  1.0000
  H   H487      1.0  0.21565  0.72743  0.80455  1.0000
  C   C293      1.0  0.24193  0.80073  0.59196  1.0000
  H   H488      1.0  0.11308  0.78251  0.51938  1.0000
  H   H489      1.0  0.19703  0.72546  0.74574  1.0000
  C   C294      1.0  0.13880  0.71635  0.92584  1.0000
  N   N30       1.0  0.18917  0.73406  0.55149  1.0000
  C   C295      1.0  0.08571  0.81881  0.51640  1.0000
  H   H490      1.0  0.20693  0.77070  0.76841  1.0000
  C   C296      1.0  0.04621  0.59995  0.73218  1.0000
  H   H491      1.0  0.23944  0.69466  0.69848  1.0000
  H   H492      1.0  0.03544  0.85464  0.98452  1.0000
  C   C297      1.0  0.24817  0.82939  0.98630  1.0000
  H   H493      1.0  0.16064  0.73332  0.96042  1.0000
  H   H494      1.0  0.00970  0.99317  0.88252  1.0000
  N   N31       1.0  0.14580  0.71019  0.95405  1.0000
  H   H495      1.0  0.02822  0.94376  0.85087  1.0000
  H   H496      1.0  0.21277  0.74488  0.53409  1.0000
  H   H497      1.0  0.02649  0.93706  0.52846  1.0000
  C   C298      1.0  0.02055  0.94037  0.50711  1.0000
  H   H498      1.0  0.19709  0.73678  0.82368  1.0000
  H   H499      1.0  0.07693  0.79055  0.54805  1.0000
  N   N32       1.0  0.00771  0.95536  0.50877  1.0000
  H   H500      1.0  0.16566  0.73470  0.52554  1.0000
  C   C299      1.0  0.02079  0.53476  0.52121  1.0000
  H   H501      1.0  0.23834  0.76653  0.52062  1.0000
  H   H502      1.0  0.01394  0.97800  0.79793  1.0000
  C   C300      1.0  0.02401  0.53421  0.57287  1.0000
  C   C301      1.0  0.02394  0.99308  0.88124  1.0000
  H   H503      1.0  0.02730  0.97452  0.50032  1.0000
  N   N33       1.0  0.01128  0.95197  0.81584  1.0000
  C   C302      1.0  0.05074  0.50074  0.61800  1.0000
  C   C303      1.0  0.00125  0.89989  0.52837  1.0000
  C   C304      1.0  0.00514  0.89479  0.80779  1.0000
  H   H504      1.0  0.02750  0.53532  0.49990  1.0000
  H   H505      1.0  0.07270  0.82241  0.50655  1.0000
  C   C305      1.0  0.00597  0.89369  0.77761  1.0000
  C   C306      1.0  0.01703  0.97135  0.51666  1.0000
  H   H506      1.0  0.08164  0.77443  0.52096  1.0000
  C   C307      1.0  0.22113  0.81317  0.98309  1.0000
  H   H507      1.0  0.04795  0.87225  0.96976  1.0000
  S   S120      1.0  0.20430  0.77793  0.50136  1.0000
  H   H508      1.0  0.09547  0.82788  0.50694  1.0000
  C   C308      1.0  0.24501  0.69639  0.77113  1.0000
  H   H509      1.0  0.16820  0.71467  0.98112  1.0000
  H   H510      1.0  0.00778  0.98296  0.51818  1.0000
  H   H511      1.0  0.23861  0.81480  0.59650  1.0000
  H   H512      1.0  0.02760  0.87701  0.98824  1.0000
  C   C309      1.0  0.00053  0.89884  0.55868  1.0000
  C   C310      1.0  0.23005  0.79833  0.99524  1.0000
  C   C311      1.0  0.24928  0.69652  0.74185  1.0000
  H   H513      1.0  0.00016  0.94863  0.55220  1.0000
  Fe  Fe65      1.0  0.31561  0.21660  0.18660  1.0000
  S   S121      1.0  0.31250  0.18724  0.18947  1.0000
  S   S122      1.0  0.30290  0.23016  0.14749  1.0000
  Fe  Fe66      1.0  0.33479  0.21754  0.24473  1.0000
  S   S123      1.0  0.33346  0.18830  0.25071  1.0000
  S   S124      1.0  0.34924  0.23138  0.28040  1.0000
  Fe  Fe67      1.0  0.34097  0.18592  0.20400  1.0000
  S   S125      1.0  0.36447  0.17116  0.18256  1.0000
  Fe  Fe68      1.0  0.30522  0.19230  0.23591  1.0000
  S   S126      1.0  0.28381  0.18314  0.26659  1.0000
  S   S127      1.0  0.34420  0.21524  0.19883  1.0000
  S   S128      1.0  0.30645  0.22166  0.23204  1.0000
  C   C312      1.0  0.47616  0.39020  0.05406  1.0000
  H   H514      1.0  0.46348  0.05042  0.08711  1.0000
  S   S129      1.0  0.34468  0.27014  0.04902  1.0000
  Fe  Fe69      1.0  0.32277  0.28371  0.42341  1.0000
  S   S130      1.0  0.32409  0.31224  0.43556  1.0000
  S   S131      1.0  0.31301  0.27805  0.37823  1.0000
  Fe  Fe70      1.0  0.34948  0.30410  0.45765  1.0000
  S   S132      1.0  0.37613  0.31626  0.44702  1.0000
  C   C313      1.0  0.46201  0.03596  0.08934  1.0000
  H   H515      1.0  0.30729  0.21243  0.29841  1.0000
  S   S133      1.0  0.34855  0.27566  0.44388  1.0000
  S   S134      1.0  0.30715  0.27650  0.46264  1.0000
  Fe  Fe71      1.0  0.43108  0.40365  0.42053  1.0000
  S   S135      1.0  0.45536  0.38697  0.41180  1.0000
  S   S136      1.0  0.40372  0.39473  0.43413  1.0000
  Fe  Fe72      1.0  0.45089  0.43816  0.41148  1.0000
  S   S137      1.0  0.47669  0.42374  0.40224  1.0000
  S   S138      1.0  0.44920  0.46781  0.41876  1.0000
  Fe  Fe73      1.0  0.46044  0.40604  0.37523  1.0000
  S   S139      1.0  0.46654  0.39457  0.33107  1.0000
  Fe  Fe74      1.0  0.46958  0.40604  0.43953  1.0000
  C   C314      1.0  0.28546  0.19788  0.33703  1.0000
  S   S140      1.0  0.43497  0.42159  0.38211  1.0000
  S   S141      1.0  0.44501  0.42154  0.45067  1.0000
  Fe  Fe75      1.0  0.42869  0.08345  0.17544  1.0000
  S   S142      1.0  0.45127  0.09991  0.16114  1.0000
  S   S143      1.0  0.40075  0.09386  0.18646  1.0000
  Fe  Fe76      1.0  0.45022  0.04849  0.16614  1.0000
  S   S144      1.0  0.47380  0.06290  0.15070  1.0000
  S   S145      1.0  0.45573  0.01901  0.17125  1.0000
  Fe  Fe77      1.0  0.46816  0.08092  0.18791  1.0000
  H   H516      1.0  0.25368  0.18764  0.30369  1.0000
  Fe  Fe78      1.0  0.45479  0.08019  0.12558  1.0000
  S   S146      1.0  0.45504  0.08716  0.07779  1.0000
  S   S147      1.0  0.44546  0.06568  0.20472  1.0000
  S   S148      1.0  0.43140  0.06450  0.13847  1.0000
  C   C315      1.0  0.47419  0.08418  0.05632  1.0000
  H   H517      1.0  0.31401  0.19000  0.30539  1.0000
  H   H518      1.0  0.26342  0.17819  0.21403  1.0000
  H   H519      1.0  0.41505  0.33309  0.01228  1.0000
  H   H520      1.0  0.26474  0.29268  0.07384  1.0000
  H   H521      1.0  0.38668  0.43071  0.45659  1.0000
  C   C316      1.0  0.49236  0.41678  0.31093  1.0000
  H   H522      1.0  0.32734  0.20748  0.31772  1.0000
  H   H523      1.0  0.43003  0.11047  0.10527  1.0000
  H   H524      1.0  0.47463  0.46629  0.03307  1.0000
  H   H525      1.0  0.39104  0.08655  0.07993  1.0000
  C   C317      1.0  0.30287  0.22170  0.35362  1.0000
  Fe  Fe79      1.0  0.33312  0.27095  0.48460  1.0000
  H   H526      1.0  0.41225  0.37230  0.99879  1.0000
  H   H527      1.0  0.41718  0.36301  0.03359  1.0000
  C   C318      1.0  0.26216  0.29966  0.47394  1.0000
  H   H528      1.0  0.42923  0.01901  0.12537  1.0000
  C   C319      1.0  0.47570  0.39206  0.02379  1.0000
  S   S149      1.0  0.49367  0.07225  0.34974  1.0000
  H   H529      1.0  0.29300  0.29952  0.11916  1.0000
  H   H530      1.0  0.46035  0.08977  0.01656  1.0000
  H   H531      1.0  0.40470  0.13264  0.06918  1.0000
  Fe  Fe80      1.0  0.31055  0.30419  0.47671  1.0000
  H   H532      1.0  0.46547  0.07624  0.30961  1.0000
  H   H533      1.0  0.46375  0.00299  0.07055  1.0000
  H   H534      1.0  0.29632  0.23112  0.33818  1.0000
  C   C320      1.0  0.48131  0.40293  0.30496  1.0000
  H   H535      1.0  0.27171  0.27667  0.00369  1.0000
  H   H536      1.0  0.49048  0.02793  0.12148  1.0000
  H   H537      1.0  0.39887  0.45033  0.46252  1.0000
  H   H538      1.0  0.48377  0.04511  0.04670  1.0000
  H   H539      1.0  0.46436  0.08176  0.25687  1.0000
  C   C321      1.0  0.44503  0.48507  0.39336  1.0000
  C   C322      1.0  0.43471  0.48283  0.36883  1.0000
  H   H540      1.0  0.41744  0.12904  0.11869  1.0000
  H   H541      1.0  0.43026  0.46990  0.36359  1.0000
  C   C323      1.0  0.38326  0.33826  0.44310  1.0000
  C   C324      1.0  0.37237  0.35293  0.44936  1.0000
  C   C325      1.0  0.37882  0.37007  0.44639  1.0000
  C   C326      1.0  0.39617  0.37281  0.43693  1.0000
  C   C327      1.0  0.40700  0.35816  0.43032  1.0000
  C   C328      1.0  0.40059  0.34102  0.43351  1.0000
  H   H542      1.0  0.35904  0.35106  0.45683  1.0000
  H   H543      1.0  0.41478  0.45226  0.40219  1.0000
  H   H544      1.0  0.42027  0.36002  0.42265  1.0000
  H   H545      1.0  0.40912  0.32979  0.42848  1.0000
  C   C329      1.0  0.44777  0.00233  0.14888  1.0000
  C   C330      1.0  0.49239  0.08426  0.25249  1.0000
  H   H546      1.0  0.29546  0.22246  0.37428  1.0000
  H   H547      1.0  0.26796  0.31327  0.09126  1.0000
  C   C331      1.0  0.37474  0.14985  0.18722  1.0000
  C   C332      1.0  0.39260  0.14738  0.17950  1.0000
  C   C333      1.0  0.40103  0.13054  0.18061  1.0000
  C   C334      1.0  0.39152  0.11576  0.18847  1.0000
  C   C335      1.0  0.37367  0.11823  0.19626  1.0000
  C   C336      1.0  0.36536  0.13516  0.19593  1.0000
  H   H548      1.0  0.40005  0.15864  0.17294  1.0000
  H   H549      1.0  0.41487  0.12903  0.17532  1.0000
  H   H550      1.0  0.36615  0.10694  0.20241  1.0000
  H   H551      1.0  0.35159  0.13675  0.20171  1.0000
  H   H552      1.0  0.44914  0.35299  0.45117  1.0000
  H   H553      1.0  0.45895  0.03315  0.11234  1.0000
  H   H554      1.0  0.27865  0.20634  0.32042  1.0000
  H   H555      1.0  0.31540  0.31563  0.07083  1.0000
  C   C337      1.0  0.33862  0.24371  0.30783  1.0000
  C   C338      1.0  0.32222  0.25221  0.30343  1.0000
  C   C339      1.0  0.31461  0.26268  0.32525  1.0000
  C   C340      1.0  0.32306  0.26436  0.35193  1.0000
  C   C341      1.0  0.33923  0.25543  0.35665  1.0000
  C   C342      1.0  0.34711  0.24540  0.33449  1.0000
  H   H556      1.0  0.31562  0.25110  0.28292  1.0000
  H   H557      1.0  0.30209  0.26954  0.32142  1.0000
  H   H558      1.0  0.34568  0.25617  0.37731  1.0000
  H   H559      1.0  0.35976  0.23876  0.33808  1.0000
  C   C343      1.0  0.31469  0.24131  0.12040  1.0000
  C   C344      1.0  0.30761  0.24272  0.09251  1.0000
  C   C345      1.0  0.31671  0.25135  0.07031  1.0000
  C   C346      1.0  0.33282  0.25898  0.07602  1.0000
  C   C347      1.0  0.33983  0.25769  0.10398  1.0000
  C   C348      1.0  0.33083  0.24887  0.12609  1.0000
  H   H560      1.0  0.29512  0.23687  0.08795  1.0000
  H   H561      1.0  0.31135  0.25195  0.04874  1.0000
  H   H562      1.0  0.35228  0.26360  0.10857  1.0000
  H   H563      1.0  0.33625  0.24812  0.14763  1.0000
  N   N34       1.0  0.35492  0.19991  0.10805  1.0000
  C   C349      1.0  0.36493  0.21072  0.12812  1.0000
  C   C350      1.0  0.36553  0.18390  0.10094  1.0000
  C   C351      1.0  0.35099  0.21017  0.08143  1.0000
  C   C352      1.0  0.33824  0.19483  0.12181  1.0000
  H   H564      1.0  0.36826  0.20329  0.14834  1.0000
  H   H565      1.0  0.35722  0.22276  0.13439  1.0000
  H   H566      1.0  0.37751  0.21501  0.11839  1.0000
  H   H567      1.0  0.35830  0.17535  0.08608  1.0000
  H   H568      1.0  0.37821  0.18727  0.09050  1.0000
  H   H569      1.0  0.36875  0.17597  0.12071  1.0000
  H   H570      1.0  0.34370  0.20235  0.06556  1.0000
  H   H571      1.0  0.36321  0.21474  0.07084  1.0000
  H   H572      1.0  0.34261  0.22207  0.08604  1.0000
  H   H573      1.0  0.33007  0.18703  0.10714  1.0000
  H   H574      1.0  0.33013  0.20657  0.12824  1.0000
  H   H575      1.0  0.34069  0.18679  0.14165  1.0000
  H   H576      1.0  0.32619  0.19561  0.36743  1.0000
  C   C353      1.0  0.47755  0.07842  0.29785  1.0000
  H   H577      1.0  0.29733  0.32545  0.05087  1.0000
  H   H578      1.0  0.39998  0.08418  0.11556  1.0000
  H   H579      1.0  0.49416  0.39539  0.23525  1.0000
  H   H580      1.0  0.41457  0.08519  0.08505  1.0000
  C   C354      1.0  0.31351  0.20340  0.31480  1.0000
  H   H581      1.0  0.42113  0.49577  0.33316  1.0000
  H   H582      1.0  0.46716  0.44775  0.05353  1.0000
  C   C355      1.0  0.49912  0.43545  0.07021  1.0000
  C   C356      1.0  0.31247  0.19160  0.36316  1.0000
  C   C357      1.0  0.45803  0.35339  0.47017  1.0000
  N   N35       1.0  0.30357  0.20365  0.34218  1.0000
  H   H583      1.0  0.37394  0.11364  0.09639  1.0000
  H   H584      1.0  0.30531  0.19139  0.38410  1.0000
  H   H585      1.0  0.46397  0.38965  0.06609  1.0000
  C   C358      1.0  0.44210  0.37869  0.48905  1.0000
  H   H586      1.0  0.42402  0.34915  0.48494  1.0000
  H   H587      1.0  0.37030  0.38128  0.45159  1.0000
  N   N36       1.0  0.49508  0.44756  0.04575  1.0000
  H   H588      1.0  0.45665  0.35671  0.02426  1.0000
  H   H589      1.0  0.49173  0.07835  0.09174  1.0000
  N   N37       1.0  0.47813  0.02619  0.08002  1.0000
  C   C359      1.0  0.47688  0.08147  0.26792  1.0000
  H   H590      1.0  0.47362  0.38454  0.27275  1.0000
  H   H591      1.0  0.27735  0.19831  0.35699  1.0000
  C   C360      1.0  0.48214  0.39524  0.27757  1.0000
  C   C361      1.0  0.47293  0.08617  0.02624  1.0000
  H   H592      1.0  0.45535  0.33518  0.00917  1.0000
  H   H593      1.0  0.31633  0.22643  0.35769  1.0000
  H   H594      1.0  0.31327  0.17787  0.35501  1.0000
  N   N38       1.0  0.36191  0.30694  0.35831  1.0000
  C   C362      1.0  0.35027  0.32058  0.37155  1.0000
  C   C363      1.0  0.36359  0.29158  0.37796  1.0000
  C   C364      1.0  0.37952  0.31409  0.35319  1.0000
  C   C365      1.0  0.35418  0.30143  0.33077  1.0000
  H   H595      1.0  0.33674  0.31568  0.37504  1.0000
  H   H596      1.0  0.34905  0.33260  0.35772  1.0000
  H   H597      1.0  0.35540  0.32456  0.39291  1.0000
  H   H598      1.0  0.37017  0.29496  0.39845  1.0000
  H   H599      1.0  0.35041  0.28663  0.38363  1.0000
  H   H600      1.0  0.37140  0.28055  0.36815  1.0000
  H   H601      1.0  0.38870  0.30404  0.34359  1.0000
  H   H602      1.0  0.38553  0.31843  0.37373  1.0000
  H   H603      1.0  0.37882  0.32568  0.33830  1.0000
  H   H604      1.0  0.36244  0.29090  0.32039  1.0000
  H   H605      1.0  0.35275  0.31265  0.31525  1.0000
  H   H606      1.0  0.34084  0.29603  0.33414  1.0000
  N   N39       1.0  0.29147  0.30133  0.07295  1.0000
  C   C366      1.0  0.29653  0.29175  0.09974  1.0000
  C   C367      1.0  0.27222  0.30504  0.07272  1.0000
  C   C368      1.0  0.29640  0.29043  0.04797  1.0000
  C   C369      1.0  0.30083  0.31804  0.07106  1.0000
  H   H607      1.0  0.31100  0.28870  0.10043  1.0000
  H   H608      1.0  0.28984  0.27895  0.10156  1.0000
  C   C370      1.0  0.47388  0.01617  0.24379  1.0000
  H   H609      1.0  0.26799  0.31217  0.05264  1.0000
  C   C371      1.0  0.26084  0.18336  0.25929  1.0000
  S   S150      1.0  0.49007  0.39570  0.47188  1.0000
  H   H610      1.0  0.29303  0.29734  0.02738  1.0000
  H   H611      1.0  0.28954  0.27773  0.04836  1.0000
  H   H612      1.0  0.37470  0.46871  0.44056  1.0000
  H   H613      1.0  0.45312  0.38733  0.48317  1.0000
  H   H614      1.0  0.31081  0.28738  0.04745  1.0000
  S   S151      1.0  0.49250  0.38759  0.10699  1.0000
  N   N40       1.0  0.38900  0.44769  0.41940  1.0000
  C   C372      1.0  0.39602  0.44001  0.44659  1.0000
  C   C373      1.0  0.40210  0.45948  0.40664  1.0000
  C   C374      1.0  0.37247  0.45785  0.42529  1.0000
  C   C375      1.0  0.38541  0.43341  0.39911  1.0000
  C   C376      1.0  0.48304  0.03484  0.28230  1.0000
  H   H615      1.0  0.48853  0.42586  0.07360  1.0000
  H   H616      1.0  0.40852  0.43236  0.44279  1.0000
  H   H617      1.0  0.39740  0.46546  0.38592  1.0000
  H   H618      1.0  0.49547  0.04537  0.09670  1.0000
  H   H619      1.0  0.47989  0.02484  0.29907  1.0000
  C   C377      1.0  0.49379  0.40135  0.25627  1.0000
  S   S152      1.0  0.49667  0.08453  0.48311  1.0000
  H   H620      1.0  0.36232  0.44931  0.43496  1.0000
  H   H621      1.0  0.46333  0.33978  0.47435  1.0000
  H   H622      1.0  0.38008  0.43864  0.37829  1.0000
  H   H623      1.0  0.37581  0.42407  0.40828  1.0000
  H   H624      1.0  0.28550  0.18416  0.32887  1.0000
  C   C378      1.0  0.49307  0.03104  0.09835  1.0000
  H   H625      1.0  0.40526  0.47037  0.42137  1.0000
  C   C379      1.0  0.40429  0.11805  0.06789  1.0000
  C   C380      1.0  0.38553  0.11644  0.11002  1.0000
  H   H626      1.0  0.41681  0.11330  0.05750  1.0000
  H   H627      1.0  0.38556  0.13086  0.11380  1.0000
  H   H628      1.0  0.41641  0.10804  0.13645  1.0000
  N   N41       1.0  0.40220  0.10995  0.09673  1.0000
  C   C381      1.0  0.40193  0.09061  0.09412  1.0000
  H   H629      1.0  0.39325  0.11480  0.05336  1.0000
  H   H630      1.0  0.38337  0.10998  0.13136  1.0000
  C   C382      1.0  0.41717  0.11462  0.11504  1.0000
  H   H631      1.0  0.43270  0.37899  0.47066  1.0000
  C   C383      1.0  0.48196  0.03073  0.04964  1.0000
  C   C384      1.0  0.49370  0.07790  0.31265  1.0000
  H   H632      1.0  0.27198  0.29634  0.45781  1.0000
  C   C385      1.0  0.43499  0.00587  0.12773  1.0000
  H   H633      1.0  0.47757  0.00961  0.22323  1.0000
  H   H634      1.0  0.47329  0.00315  0.10575  1.0000
  H   H635      1.0  0.36682  0.46383  0.40518  1.0000
  H   H636      1.0  0.48296  0.42799  0.02012  1.0000
  C   C386      1.0  0.42320  0.36729  0.01291  1.0000
  H   H637      1.0  0.49367  0.04297  0.29112  1.0000
  H   H638      1.0  0.29751  0.32670  0.08955  1.0000
  C   C387      1.0  0.26007  0.28504  0.00664  1.0000
  S   S153      1.0  0.49216  0.08712  0.21457  1.0000
  H   H639      1.0  0.45034  0.03243  0.07645  1.0000
  H   H640      1.0  0.44182  0.34117  0.03956  1.0000
  C   C388      1.0  0.25433  0.18009  0.23178  1.0000
  H   H641      1.0  0.48713  0.99924  0.07507  1.0000
  H   H642      1.0  0.49190  0.42278  0.33192  1.0000
  H   H643      1.0  0.47101  0.02709  0.03521  1.0000
  C   C389      1.0  0.49053  0.07961  0.06859  1.0000
  C   C390      1.0  0.49232  0.38940  0.06891  1.0000
  H   H644      1.0  0.39758  0.42544  0.39423  1.0000
  H   H645      1.0  0.47861  0.46485  0.07125  1.0000
  H   H646      1.0  0.46192  0.02466  0.23922  1.0000
  C   C391      1.0  0.48786  0.08351  0.00851  1.0000
  H   H647      1.0  0.49426  0.02389  0.04196  1.0000
  C   C392      1.0  0.42961  0.49751  0.35155  1.0000
  N   N42       1.0  0.48845  0.02659  0.25488  1.0000
  H   H648      1.0  0.47114  0.04365  0.27943  1.0000
  C   C393      1.0  0.44740  0.34614  0.01894  1.0000
  H   H649      1.0  0.46323  0.39305  0.01259  1.0000
  C   C394      1.0  0.47548  0.00706  0.08288  1.0000
  C   C395      1.0  0.47811  0.45706  0.05113  1.0000
  H   H650      1.0  0.48120  0.04965  0.22974  1.0000
  H   H651      1.0  0.43165  0.37863  0.01733  1.0000
  H   H652      1.0  0.49117  0.44613  0.99986  1.0000
  C   C396      1.0  0.49146  0.39270  0.00814  1.0000
  Fe  Fe81      1.0  0.33409  0.27793  0.00453  1.0000
  H   H653      1.0  0.46939  0.36160  0.46398  1.0000
  H   H654      1.0  0.47008  0.00576  0.25943  1.0000
  C   C397      1.0  0.49382  0.43742  0.01892  1.0000
  N   N43       1.0  0.44870  0.36059  0.49563  1.0000
  N   N44       1.0  0.43335  0.35273  0.99918  1.0000
  C   C398      1.0  0.49269  0.04043  0.23358  1.0000
  H   H655      1.0  0.49648  0.03476  0.21241  1.0000
  Fe  Fe82      1.0  0.33657  0.22309  0.68117  1.0000
  S   S154      1.0  0.31944  0.19988  0.67623  1.0000
  S   S155      1.0  0.34718  0.24153  0.64674  1.0000
  Fe  Fe83      1.0  0.33736  0.21918  0.74755  1.0000
  S   S156      1.0  0.32044  0.19538  0.74735  1.0000
  S   S157      1.0  0.34783  0.23535  0.78437  1.0000
  Fe  Fe84      1.0  0.33748  0.18671  0.70943  1.0000
  S   S158      1.0  0.34703  0.15833  0.70113  1.0000
  Fe  Fe85      1.0  0.30402  0.21044  0.71423  1.0000
  S   S159      1.0  0.27470  0.21816  0.71261  1.0000
  S   S160      1.0  0.35546  0.20946  0.71212  1.0000
  S   S161      1.0  0.32009  0.23461  0.71666  1.0000
  H   H656      1.0  0.31128  0.27426  0.54025  1.0000
  H   H657      1.0  0.40806  0.12342  0.77830  1.0000
  H   H658      1.0  0.29900  0.24442  0.53841  1.0000
  Fe  Fe86      1.0  0.32542  0.26771  0.94223  1.0000
  S   S162      1.0  0.31914  0.29577  0.92925  1.0000
  S   S163      1.0  0.32064  0.24408  0.91371  1.0000
  Fe  Fe87      1.0  0.34356  0.30268  0.95419  1.0000
  S   S164      1.0  0.36624  0.31823  0.93425  1.0000
  Fe  Fe88      1.0  0.30465  0.29735  0.97169  1.0000
  H   H659      1.0  0.48310  0.06519  0.85192  1.0000
  S   S165      1.0  0.35062  0.27419  0.96464  1.0000
  C   C399      1.0  0.48899  0.09556  0.79871  1.0000
  Fe  Fe89      1.0  0.42988  0.40192  0.92681  1.0000
  S   S166      1.0  0.45324  0.38458  0.91464  1.0000
  S   S167      1.0  0.40457  0.39174  0.94738  1.0000
  Fe  Fe90      1.0  0.45012  0.43607  0.91465  1.0000
  S   S168      1.0  0.47468  0.42062  0.90235  1.0000
  S   S169      1.0  0.45494  0.46557  0.91571  1.0000
  Fe  Fe91      1.0  0.45672  0.40368  0.87762  1.0000
  S   S170      1.0  0.46086  0.39512  0.83121  1.0000
  Fe  Fe92      1.0  0.46903  0.40325  0.94065  1.0000
  H   H660      1.0  0.25816  0.26648  0.56713  1.0000
  S   S171      1.0  0.43211  0.41995  0.88787  1.0000
  S   S172      1.0  0.44575  0.41973  0.95479  1.0000
  Fe  Fe93      1.0  0.43674  0.09817  0.67310  1.0000
  S   S173      1.0  0.46515  0.09542  0.68782  1.0000
  S   S174      1.0  0.42509  0.12602  0.68109  1.0000
  Fe  Fe94      1.0  0.43702  0.05948  0.65380  1.0000
  S   S175      1.0  0.46483  0.05441  0.66816  1.0000
  S   S176      1.0  0.42239  0.03824  0.63030  1.0000
  Fe  Fe95      1.0  0.45737  0.06979  0.70753  1.0000
  S   S177      1.0  0.46443  0.05860  0.75188  1.0000
  Fe  Fe96      1.0  0.47012  0.08036  0.64685  1.0000
  H   H661      1.0  0.29784  0.29250  0.55289  1.0000
  S   S178      1.0  0.42876  0.07299  0.69494  1.0000
  S   S179      1.0  0.44254  0.08499  0.63048  1.0000
  H   H662      1.0  0.47187  0.05506  0.53644  1.0000
  C   C400      1.0  0.49054  0.40000  0.50930  1.0000
  H   H663      1.0  0.46591  0.34736  0.52636  1.0000
  H   H664      1.0  0.49829  0.45805  0.60917  1.0000
  H   H665      1.0  0.46739  0.38815  0.77155  1.0000
  H   H666      1.0  0.37057  0.19994  0.58457  1.0000
  H   H667      1.0  0.42852  0.32723  0.98169  1.0000
  C   C401      1.0  0.47439  0.07014  0.77996  1.0000
  H   H668      1.0  0.44425  0.42428  0.80339  1.0000
  H   H669      1.0  0.41033  0.49782  0.85659  1.0000
  H   H670      1.0  0.46524  0.41557  0.56477  1.0000
  C   C402      1.0  0.47653  0.40971  0.55378  1.0000
  H   H671      1.0  0.45282  0.14017  0.76435  1.0000
  C   C403      1.0  0.43016  0.01597  0.63095  1.0000
  H   H672      1.0  0.29412  0.24510  0.83772  1.0000
  C   C404      1.0  0.41940  0.12983  0.76777  1.0000
  C   C405      1.0  0.46569  0.44993  0.78851  1.0000
  C   C406      1.0  0.47618  0.40795  0.52361  1.0000
  H   H673      1.0  0.28153  0.25327  0.51628  1.0000
  C   C407      1.0  0.44601  0.03559  0.55659  1.0000
  H   H674      1.0  0.26243  0.27777  0.53379  1.0000
  C   C408      1.0  0.46103  0.36085  0.52024  1.0000
  C   C409      1.0  0.29754  0.27977  0.54137  1.0000
  H   H675      1.0  0.46972  0.09361  0.57783  1.0000
  H   H676      1.0  0.44431  0.09287  0.75426  1.0000
  C   C410      1.0  0.42213  0.00357  0.61343  1.0000
  C   C411      1.0  0.47845  0.40098  0.80815  1.0000
  C   C412      1.0  0.47804  0.39599  0.77910  1.0000
  H   H677      1.0  0.41550  0.13283  0.74508  1.0000
  H   H678      1.0  0.46477  0.43386  0.84094  1.0000
  H   H679      1.0  0.45073  0.01978  0.66176  1.0000
  H   H680      1.0  0.44334  0.12714  0.81087  1.0000
  C   C413      1.0  0.44731  0.48221  0.89131  1.0000
  H   H681      1.0  0.44146  0.04935  0.55145  1.0000
  H   H682      1.0  0.27654  0.24121  0.54875  1.0000
  H   H683      1.0  0.30539  0.25787  0.58542  1.0000
  C   C414      1.0  0.37649  0.33886  0.93834  1.0000
  C   C415      1.0  0.37077  0.35137  0.95848  1.0000
  C   C416      1.0  0.37938  0.36751  0.96066  1.0000
  C   C417      1.0  0.39385  0.37138  0.94289  1.0000
  C   C418      1.0  0.39967  0.35883  0.92294  1.0000
  C   C419      1.0  0.39103  0.34273  0.92070  1.0000
  S   S180      1.0  0.49188  0.39532  0.97024  1.0000
  S   S181      1.0  0.33349  0.24574  0.51165  1.0000
  H   H684      1.0  0.41071  0.36156  0.90900  1.0000
  H   H685      1.0  0.39555  0.33321  0.90497  1.0000
  H   H686      1.0  0.29325  0.28282  0.51899  1.0000
  H   H687      1.0  0.44875  0.44887  0.85627  1.0000
  H   H688      1.0  0.46250  0.11918  0.75474  1.0000
  H   H689      1.0  0.44691  0.13009  0.73113  1.0000
  C   C420      1.0  0.36887  0.14948  0.69633  1.0000
  C   C421      1.0  0.38373  0.15961  0.70003  1.0000
  C   C422      1.0  0.40076  0.15221  0.69511  1.0000
  C   C423      1.0  0.40322  0.13451  0.68690  1.0000
  C   C424      1.0  0.38839  0.12428  0.68378  1.0000
  C   C425      1.0  0.37134  0.13177  0.68836  1.0000
  H   H690      1.0  0.38207  0.17311  0.70684  1.0000
  H   H691      1.0  0.41214  0.16022  0.69786  1.0000
  H   H692      1.0  0.39001  0.11066  0.67756  1.0000
  H   H693      1.0  0.35995  0.12376  0.68559  1.0000
  C   C426      1.0  0.49134  0.40388  0.56987  1.0000
  H   H694      1.0  0.48689  0.46476  0.57666  1.0000
  C   C427      1.0  0.44448  0.01048  0.64807  1.0000
  H   H695      1.0  0.27320  0.18817  0.75263  1.0000
  C   C428      1.0  0.34054  0.23716  0.82059  1.0000
  C   C429      1.0  0.34457  0.25229  0.83606  1.0000
  C   C430      1.0  0.33860  0.25460  0.86456  1.0000
  C   C431      1.0  0.32871  0.24167  0.87805  1.0000
  C   C432      1.0  0.32487  0.22642  0.86271  1.0000
  C   C433      1.0  0.33076  0.22415  0.83414  1.0000
  H   H696      1.0  0.35226  0.26236  0.82588  1.0000
  H   H697      1.0  0.34173  0.26636  0.87614  1.0000
  H   H698      1.0  0.31740  0.21626  0.87311  1.0000
  H   H699      1.0  0.32799  0.21223  0.82279  1.0000
  C   C434      1.0  0.34183  0.24293  0.60970  1.0000
  C   C435      1.0  0.34684  0.25782  0.59385  1.0000
  C   C436      1.0  0.34406  0.25901  0.56392  1.0000
  C   C437      1.0  0.33664  0.24509  0.54943  1.0000
  C   C438      1.0  0.33156  0.23019  0.56526  1.0000
  C   C439      1.0  0.33390  0.22920  0.59535  1.0000
  H   H700      1.0  0.35309  0.26844  0.60476  1.0000
  H   H701      1.0  0.34812  0.27050  0.55199  1.0000
  H   H702      1.0  0.32579  0.21935  0.55418  1.0000
  H   H703      1.0  0.32998  0.21766  0.60727  1.0000
  N   N45       1.0  0.37829  0.19502  0.62861  1.0000
  C   C440      1.0  0.37781  0.20621  0.60233  1.0000
  C   C441      1.0  0.38813  0.17834  0.62274  1.0000
  C   C442      1.0  0.36011  0.19116  0.63748  1.0000
  C   C443      1.0  0.38705  0.20445  0.65197  1.0000
  H   H704      1.0  0.37106  0.21917  0.60646  1.0000
  H   H705      1.0  0.38198  0.17104  0.60494  1.0000
  H   H706      1.0  0.40206  0.18065  0.61664  1.0000
  H   H707      1.0  0.38838  0.16944  0.64197  1.0000
  H   H708      1.0  0.35995  0.18290  0.65745  1.0000
  H   H709      1.0  0.35304  0.18397  0.62056  1.0000
  H   H710      1.0  0.35233  0.20348  0.64190  1.0000
  H   H711      1.0  0.38767  0.19642  0.67216  1.0000
  H   H712      1.0  0.37979  0.21704  0.65706  1.0000
  H   H713      1.0  0.40077  0.20772  0.64603  1.0000
  N   N46       1.0  0.46454  0.03484  0.56642  1.0000
  H   H714      1.0  0.29180  0.27586  0.59815  1.0000
  H   H715      1.0  0.48007  0.04596  0.60001  1.0000
  S   S182      1.0  0.49105  0.40629  0.60778  1.0000
  C   C444      1.0  0.46622  0.04587  0.59215  1.0000
  H   H716      1.0  0.45793  0.04104  0.61014  1.0000
  H   H717      1.0  0.26710  0.28811  0.56725  1.0000
  C   C445      1.0  0.48198  0.08959  0.53625  1.0000
  H   H718      1.0  0.48674  0.08504  0.98539  1.0000
  C   C446      1.0  0.45898  0.44747  0.83921  1.0000
  H   H719      1.0  0.43180  0.44038  0.78275  1.0000
  S   S183      1.0  0.28804  0.31822  0.50059  1.0000
  H   H720      1.0  0.43810  0.33565  0.50777  1.0000
  S   S184      1.0  0.27737  0.31075  0.97554  1.0000
  H   H721      1.0  0.26624  0.23290  0.81823  1.0000
  H   H722      1.0  0.43122  0.36427  0.95687  1.0000
  H   H723      1.0  0.46194  0.05976  0.58765  1.0000
  N   N47       1.0  0.28669  0.24446  0.79297  1.0000
  C   C447      1.0  0.28836  0.25560  0.76686  1.0000
  C   C448      1.0  0.26788  0.24145  0.79883  1.0000
  C   C449      1.0  0.29458  0.25334  0.81774  1.0000
  C   C450      1.0  0.29600  0.22736  0.78833  1.0000
  C   C451      1.0  0.49635  0.45480  0.58609  1.0000
  H   H724      1.0  0.46470  0.41248  0.51155  1.0000
  C   C452      1.0  0.25348  0.31462  0.51759  1.0000
  H   H725      1.0  0.35960  0.34866  0.97214  1.0000
  C   C453      1.0  0.49687  0.08318  0.52115  1.0000
  H   H726      1.0  0.45470  0.36686  0.53958  1.0000
  C   C454      1.0  0.43008  0.48271  0.88064  1.0000
  H   H727      1.0  0.28284  0.24914  0.74761  1.0000
  H   H728      1.0  0.29549  0.21872  0.80781  1.0000
  H   H729      1.0  0.25678  0.32279  0.53558  1.0000
  C   C455      1.0  0.43367  0.34948  0.50297  1.0000
  H   H730      1.0  0.28135  0.26856  0.76936  1.0000
  C   C456      1.0  0.45009  0.12737  0.75421  1.0000
  C   C457      1.0  0.25918  0.30184  0.99401  1.0000
  C   C458      1.0  0.28562  0.25083  0.53905  1.0000
  H   H731      1.0  0.48373  0.01547  0.58164  1.0000
  H   H732      1.0  0.46976  0.04957  0.81112  1.0000
  H   H733      1.0  0.47208  0.43655  0.78816  1.0000
  C   C459      1.0  0.48148  0.08670  0.77551  1.0000
  N   N48       1.0  0.43556  0.11843  0.76900  1.0000
  H   H734      1.0  0.37471  0.37710  0.97615  1.0000
  C   C460      1.0  0.48291  0.07113  0.83061  1.0000
  C   C461      1.0  0.43230  0.10167  0.75450  1.0000
  N   N49       1.0  0.28559  0.26736  0.55546  1.0000
  H   H735      1.0  0.45235  0.10595  0.80102  1.0000
  H   H736      1.0  0.42130  0.14262  0.77855  1.0000
  H   H737      1.0  0.30868  0.25612  0.81366  1.0000
  H   H738      1.0  0.47280  0.36865  0.51497  1.0000
  H   H739      1.0  0.42165  0.09433  0.76529  1.0000
  C   C462      1.0  0.49562  0.08149  0.58202  1.0000
  H   H740      1.0  0.47166  0.49595  0.89292  1.0000
  C   C463      1.0  0.44144  0.35919  0.97227  1.0000
  S   S185      1.0  0.30946  0.26892  0.98336  1.0000
  N   N50       1.0  0.45148  0.45102  0.81029  1.0000
  H   H741      1.0  0.49298  0.41480  0.84001  1.0000
  C   C464      1.0  0.43819  0.43782  0.80399  1.0000
  H   H742      1.0  0.44917  0.34859  0.96115  1.0000
  C   C465      1.0  0.45831  0.49622  0.88472  1.0000
  S   S186      1.0  0.49532  0.08019  0.62012  1.0000
  H   H743      1.0  0.47620  0.45938  0.79297  1.0000
  C   C466      1.0  0.26752  0.27525  0.55601  1.0000
  H   H744      1.0  0.29015  0.22015  0.77020  1.0000
  H   H745      1.0  0.49001  0.04194  0.55038  1.0000
  H   H746      1.0  0.43159  0.46968  0.82453  1.0000
  H   H747      1.0  0.30245  0.25816  0.76206  1.0000
  H   H748      1.0  0.45236  0.47903  0.81604  1.0000
  H   H749      1.0  0.42821  0.10401  0.73174  1.0000
  C   C467      1.0  0.44302  0.46881  0.80953  1.0000
  H   H750      1.0  0.28769  0.26614  0.82229  1.0000
  C   C468      1.0  0.44041  0.11482  0.79937  1.0000
  H   H751      1.0  0.47564  0.03313  0.52378  1.0000
  H   H752      1.0  0.26159  0.23481  0.78044  1.0000
  C   C469      1.0  0.48127  0.08861  0.56650  1.0000
  C   C470      1.0  0.26035  0.19476  0.75175  1.0000
  H   H753      1.0  0.47084  0.09524  0.52444  1.0000
  H   H754      1.0  0.42640  0.35451  0.52219  1.0000
  H   H755      1.0  0.39131  0.20894  0.59447  1.0000
  H   H756      1.0  0.46953  0.45671  0.84448  1.0000
  C   C471      1.0  0.46987  0.01646  0.57383  1.0000
  H   H757      1.0  0.43700  0.03058  0.57352  1.0000
  H   H758      1.0  0.43799  0.47236  0.78767  1.0000
  C   C472      1.0  0.47603  0.04148  0.54325  1.0000
  H   H759      1.0  0.42964  0.10828  0.81124  1.0000
  C   C473      1.0  0.29170  0.26364  0.58520  1.0000
  H   H760      1.0  0.26039  0.25405  0.80253  1.0000
  H   H761      1.0  0.46056  0.45269  0.76644  1.0000
  H   H762      1.0  0.48997  0.44184  0.58568  1.0000
  C   C474      1.0  0.48984  0.08775  0.82631  1.0000
  H   H763      1.0  0.42136  0.47217  0.88598  1.0000
  C   C475      1.0  0.47526  0.06236  0.80752  1.0000
  H   H764      1.0  0.42768  0.43767  0.82075  1.0000
  C   C476      1.0  0.49234  0.41105  0.81766  1.0000
  H   H765      1.0  0.46137  0.01108  0.59121  1.0000
  H   H766      1.0  0.31012  0.22917  0.78301  1.0000
  H   H767      1.0  0.41060  0.34297  0.97776  1.0000
  C   C477      1.0  0.49127  0.40111  0.75965  1.0000
  H   H768      1.0  0.43514  0.38468  0.50782  1.0000
  H   H769      1.0  0.46878  0.00769  0.55497  1.0000
  C   C478      1.0  0.25767  0.20963  0.73413  1.0000
  H   H770      1.0  0.45050  0.37010  0.97638  1.0000
  H   H771      1.0  0.44423  0.02757  0.53703  1.0000
  C   C479      1.0  0.42141  0.33835  0.99252  1.0000
  H   H772      1.0  0.41101  0.00768  0.60013  1.0000
  S   S187      1.0  0.33613  0.29848  0.50035  1.0000
  H   H773      1.0  0.28315  0.25415  0.59648  1.0000
  H   H774      1.0  0.49075  0.39721  0.73735  1.0000
  C   C480      1.0  0.42383  0.49732  0.86415  1.0000
  H   H775      1.0  0.48122  0.09261  0.75421  1.0000
  S   S188      1.0  0.49828  0.09967  0.85535  1.0000
  C   C481      1.0  0.26652  0.31021  0.49708  1.0000
  H   H776      1.0  0.49425  0.10847  0.79527  1.0000
  S   S189      1.0  0.32844  0.30677  0.99554  1.0000
  Fe  Fe97      1.0  0.34216  0.79817  0.03546  1.0000
  S   S190      1.0  0.34153  0.76956  0.04916  1.0000
  S   S191      1.0  0.36962  0.81005  0.03800  1.0000
  Fe  Fe98      1.0  0.30209  0.79911  0.02262  1.0000
  S   S192      1.0  0.29889  0.77122  0.03687  1.0000
  H   H777      1.0  0.48836  0.93924  0.40836  1.0000
  Fe  Fe99      1.0  0.31702  0.77744  0.07351  1.0000
  S   S193      1.0  0.31125  0.77318  0.12125  1.0000
  C   C482      1.0  0.45393  0.55013  0.44039  1.0000
  C   C483      1.0  0.47429  0.51248  0.25323  1.0000
  S   S194      1.0  0.31823  0.80614  0.06118  1.0000
  C   C484      1.0  0.47332  0.58728  0.23215  1.0000
  Fe  Fe100     1.0  0.32755  0.71325  0.25746  1.0000
  S   S195      1.0  0.31098  0.68977  0.26688  1.0000
  S   S196      1.0  0.33974  0.71579  0.21276  1.0000
  Fe  Fe101     1.0  0.32616  0.72511  0.32056  1.0000
  S   S197      1.0  0.30958  0.70264  0.33390  1.0000
  S   S198      1.0  0.33594  0.74577  0.35117  1.0000
  Fe  Fe102     1.0  0.32802  0.68607  0.30638  1.0000
  S   S199      1.0  0.33874  0.65958  0.32371  1.0000
  Fe  Fe103     1.0  0.29425  0.70858  0.29317  1.0000
  S   S200      1.0  0.26440  0.71261  0.29570  1.0000
  S   S201      1.0  0.34557  0.70825  0.29549  1.0000
  S   S202      1.0  0.30986  0.73231  0.28140  1.0000
  Fe  Fe104     1.0  0.43139  0.60027  0.32806  1.0000
  S   S203      1.0  0.45968  0.60568  0.33896  1.0000
  S   S204      1.0  0.41597  0.62439  0.30964  1.0000
  Fe  Fe105     1.0  0.43783  0.56039  0.34083  1.0000
  S   S205      1.0  0.46602  0.56359  0.35301  1.0000
  S   S206      1.0  0.42753  0.53273  0.33706  1.0000
  Fe  Fe106     1.0  0.45618  0.58747  0.37699  1.0000
  C   C485      1.0  0.47838  0.59331  0.47579  1.0000
  Fe  Fe107     1.0  0.46680  0.58137  0.31372  1.0000
  S   S207      1.0  0.28019  0.81704  0.00447  1.0000
  S   S208      1.0  0.42746  0.58314  0.36746  1.0000
  S   S209      1.0  0.43899  0.57704  0.30037  1.0000
  Fe  Fe108     1.0  0.43087  0.89223  0.08592  1.0000
  S   S210      1.0  0.45924  0.88202  0.08345  1.0000
  S   S211      1.0  0.40367  0.87959  0.08799  1.0000
  Fe  Fe109     1.0  0.44145  0.93057  0.09058  1.0000
  S   S212      1.0  0.47014  0.92346  0.08811  1.0000
  S   S213      1.0  0.42905  0.95831  0.09032  1.0000
  Fe  Fe110     1.0  0.46358  0.90480  0.05283  1.0000
  S   S214      1.0  0.48537  0.90624  0.01884  1.0000
  Fe  Fe111     1.0  0.46476  0.90122  0.11885  1.0000
  S   S215      1.0  0.48791  0.89624  0.14965  1.0000
  S   S216      1.0  0.43502  0.91372  0.05276  1.0000
  S   S217      1.0  0.43625  0.90972  0.12393  1.0000
  C   C486      1.0  0.43660  0.97505  0.11297  1.0000
  C   C487      1.0  0.44945  0.97155  0.13399  1.0000
  C   C488      1.0  0.48987  0.90551  0.43576  1.0000
  H   H778      1.0  0.45503  0.95835  0.13666  1.0000
  C   C489      1.0  0.47692  0.90819  0.48390  1.0000
  C   C490      1.0  0.47532  0.89424  0.23530  1.0000
  C   C491      1.0  0.47374  0.89516  0.20504  1.0000
  C   C492      1.0  0.48879  0.89664  0.18787  1.0000
  H   H779      1.0  0.43900  0.52856  0.47845  1.0000
  H   H780      1.0  0.26218  0.76039  0.43516  1.0000
  H   H781      1.0  0.46095  0.89427  0.19503  1.0000
  C   C493      1.0  0.49303  0.57717  0.43762  1.0000
  C   C494      1.0  0.47557  0.91016  0.45382  1.0000
  S   S218      1.0  0.46170  0.59526  0.42338  1.0000
  C   C495      1.0  0.25320  0.69204  0.25083  1.0000
  H   H782      1.0  0.49371  0.57310  0.41540  1.0000
  H   H783      1.0  0.46337  0.91523  0.44441  1.0000
  C   C496      1.0  0.43477  0.54269  0.47982  1.0000
  H   H784      1.0  0.49384  0.53864  0.30177  1.0000
  H   H785      1.0  0.39794  0.91752  0.49368  1.0000
  C   C497      1.0  0.47905  0.58817  0.44680  1.0000
  H   H786      1.0  0.45125  0.52933  0.38619  1.0000
  H   H787      1.0  0.46253  0.59221  0.24537  1.0000
  C   C498      1.0  0.49187  0.89514  0.24874  1.0000
  N   N51       1.0  0.28191  0.77973  0.42893  1.0000
  H   H788      1.0  0.35832  0.91929  0.11501  1.0000
  C   C499      1.0  0.39271  0.92587  0.11888  1.0000
  H   H789      1.0  0.27647  0.80625  0.44285  1.0000
  C   C500      1.0  0.41625  0.89178  0.46628  1.0000
  Fe  Fe112     1.0  0.32368  0.76596  0.01106  1.0000
  C   C501      1.0  0.29152  0.77451  0.45550  1.0000
  C   C502      1.0  0.25725  0.81480  0.99837  1.0000
  H   H790      1.0  0.29117  0.76007  0.45966  1.0000
  H   H791      1.0  0.46952  0.52224  0.32417  1.0000
  C   C503      1.0  0.37440  0.94846  0.09605  1.0000
  H   H792      1.0  0.41686  0.57197  0.46378  1.0000
  C   C504      1.0  0.36036  0.65012  0.32007  1.0000
  C   C505      1.0  0.36447  0.63376  0.33333  1.0000
  C   C506      1.0  0.38145  0.62575  0.33076  1.0000
  C   C507      1.0  0.39450  0.63399  0.31470  1.0000
  C   C508      1.0  0.39038  0.65043  0.30159  1.0000
  C   C509      1.0  0.37347  0.65850  0.30438  1.0000
  H   H793      1.0  0.35443  0.62716  0.34554  1.0000
  H   H794      1.0  0.38439  0.61310  0.34089  1.0000
  H   H795      1.0  0.40041  0.65695  0.28923  1.0000
  H   H796      1.0  0.37058  0.67118  0.29441  1.0000
  C   C510      1.0  0.46942  0.51390  0.30462  1.0000
  H   H797      1.0  0.42687  0.52878  0.42921  1.0000
  H   H798      1.0  0.46334  0.55602  0.45557  1.0000
  C   C511      1.0  0.45493  0.98512  0.15193  1.0000
  C   C512      1.0  0.37860  0.82978  0.05137  1.0000
  C   C513      1.0  0.36835  0.84268  0.06550  1.0000
  C   C514      1.0  0.37628  0.85774  0.07653  1.0000
  C   C515      1.0  0.39450  0.86030  0.07332  1.0000
  C   C516      1.0  0.40472  0.84746  0.05906  1.0000
  C   C517      1.0  0.39683  0.83230  0.04833  1.0000
  H   H799      1.0  0.35431  0.84112  0.06778  1.0000
  H   H800      1.0  0.36818  0.86755  0.08747  1.0000
  H   H801      1.0  0.41872  0.84915  0.05640  1.0000
  H   H802      1.0  0.46762  0.60183  0.48310  1.0000
  H   H803      1.0  0.46325  0.54823  0.29304  1.0000
  H   H804      1.0  0.42471  0.54898  0.40896  1.0000
  H   H805      1.0  0.32957  0.65978  0.19203  1.0000
  C   C518      1.0  0.36606  0.91801  0.09473  1.0000
  C   C519      1.0  0.32855  0.74601  0.44946  1.0000
  C   C520      1.0  0.33695  0.75974  0.43527  1.0000
  C   C521      1.0  0.33900  0.75951  0.40514  1.0000
  C   C522      1.0  0.33242  0.74575  0.38884  1.0000
  C   C523      1.0  0.32372  0.73218  0.40295  1.0000
  C   C524      1.0  0.32198  0.73223  0.43316  1.0000
  H   H806      1.0  0.34222  0.77034  0.44757  1.0000
  H   H807      1.0  0.34583  0.77001  0.39440  1.0000
  H   H808      1.0  0.31844  0.72161  0.39063  1.0000
  H   H809      1.0  0.31543  0.72157  0.44398  1.0000
  C   C525      1.0  0.33157  0.73160  0.18724  1.0000
  C   C526      1.0  0.31855  0.74419  0.19459  1.0000
  C   C527      1.0  0.31248  0.75671  0.17400  1.0000
  C   C528      1.0  0.31917  0.75669  0.14576  1.0000
  C   C529      1.0  0.33218  0.74407  0.13831  1.0000
  C   C530      1.0  0.33839  0.73163  0.15903  1.0000
  H   H810      1.0  0.31318  0.74436  0.21618  1.0000
  H   H811      1.0  0.30244  0.76643  0.17998  1.0000
  H   H812      1.0  0.33739  0.74385  0.11662  1.0000
  H   H813      1.0  0.34845  0.72192  0.15312  1.0000
  H   H814      1.0  0.36650  0.78570  0.08919  1.0000
  N   N52       1.0  0.35274  0.66227  0.21823  1.0000
  C   C531      1.0  0.34592  0.65144  0.24220  1.0000
  C   C532      1.0  0.36330  0.67649  0.22997  1.0000
  C   C533      1.0  0.33783  0.67006  0.20142  1.0000
  C   C534      1.0  0.36395  0.65111  0.19930  1.0000
  H   H815      1.0  0.33786  0.65952  0.25750  1.0000
  H   H816      1.0  0.35682  0.64498  0.25489  1.0000
  H   H817      1.0  0.33744  0.64088  0.23427  1.0000
  H   H818      1.0  0.36804  0.68540  0.21258  1.0000
  H   H819      1.0  0.35536  0.68487  0.24496  1.0000
  H   H820      1.0  0.37502  0.67114  0.24194  1.0000
  H   H821      1.0  0.34249  0.67862  0.18350  1.0000
  H   H822      1.0  0.32910  0.67857  0.21502  1.0000
  H   H823      1.0  0.37535  0.64502  0.21133  1.0000
  H   H824      1.0  0.36934  0.65891  0.18105  1.0000
  H   H825      1.0  0.35640  0.64024  0.19004  1.0000
  H   H826      1.0  0.29663  0.80321  0.42312  1.0000
  N   N53       1.0  0.38099  0.93000  0.09417  1.0000
  H   H827      1.0  0.30562  0.77794  0.45411  1.0000
  H   H828      1.0  0.25490  0.78783  0.01265  1.0000
  S   S219      1.0  0.48604  0.58793  0.14690  1.0000
  H   H829      1.0  0.48328  0.50069  0.25576  1.0000
  H   H830      1.0  0.49771  0.87907  0.09921  1.0000
  H   H831      1.0  0.29024  0.75608  0.40699  1.0000
  H   H832      1.0  0.40432  0.93445  0.11886  1.0000
  H   H833      1.0  0.37081  0.90399  0.09323  1.0000
  H   H834      1.0  0.46142  0.59634  0.19220  1.0000
  C   C535      1.0  0.47272  0.58962  0.20199  1.0000
  C   C536      1.0  0.39091  0.92765  0.06700  1.0000
  H   H835      1.0  0.47837  0.51968  0.23338  1.0000
  H   H836      1.0  0.39610  0.91386  0.06486  1.0000
  H   H837      1.0  0.49743  0.62604  0.15248  1.0000
  H   H838      1.0  0.46620  0.54707  0.25494  1.0000
  H   H839      1.0  0.47830  0.50220  0.30874  1.0000
  H   H840      1.0  0.49265  0.96004  0.46357  1.0000
  H   H841      1.0  0.38239  0.88995  0.48297  1.0000
  S   S220      1.0  0.49326  0.89292  0.28682  1.0000
  C   C537      1.0  0.43027  0.57031  0.45431  1.0000
  H   H842      1.0  0.45529  0.55718  0.41938  1.0000
  H   H843      1.0  0.48013  0.96133  0.41423  1.0000
  S   S221      1.0  0.48981  0.57641  0.28302  1.0000
  H   H844      1.0  0.40492  0.82245  0.03745  1.0000
  H   H845      1.0  0.36557  0.95211  0.07768  1.0000
  H   H846      1.0  0.41940  0.99506  0.09381  1.0000
  C   C538      1.0  0.42942  0.99227  0.10991  1.0000
  C   C539      1.0  0.48806  0.57900  0.24512  1.0000
  H   H847      1.0  0.25565  0.77852  0.41188  1.0000
  H   H848      1.0  0.42928  0.89815  0.46521  1.0000
  N   N54       1.0  0.47485  0.52387  0.27873  1.0000
  C   C540      1.0  0.44644  0.51647  0.38152  1.0000
  H   H849      1.0  0.46076  0.50777  0.24955  1.0000
  C   C541      1.0  0.28275  0.79899  0.42461  1.0000
  H   H850      1.0  0.40708  0.89934  0.45172  1.0000
  H   H851      1.0  0.28305  0.77393  0.38364  1.0000
  H   H852      1.0  0.35010  0.77517  0.11077  1.0000
  H   H853      1.0  0.27584  0.80341  0.40455  1.0000
  H   H854      1.0  0.46366  0.89270  0.24840  1.0000
  H   H855      1.0  0.30409  0.77439  0.40107  1.0000
  H   H856      1.0  0.26568  0.68482  0.25275  1.0000
  H   H857      1.0  0.40238  0.93639  0.06591  1.0000
  H   H858      1.0  0.35694  0.92068  0.07634  1.0000
  C   C542      1.0  0.43523  0.51443  0.35808  1.0000
  C   C543      1.0  0.49297  0.52998  0.28267  1.0000
  H   H859      1.0  0.36687  0.95076  0.11633  1.0000
  C   C544      1.0  0.49180  0.95332  0.40696  1.0000
  C   C545      1.0  0.29014  0.77065  0.40407  1.0000
  H   H860      1.0  0.39775  0.91196  0.11836  1.0000
  H   H861      1.0  0.38575  0.92772  0.13977  1.0000
  H   H862      1.0  0.46480  0.98223  0.16825  1.0000
  H   H863      1.0  0.28587  0.78128  0.47464  1.0000
  N   N55       1.0  0.36750  0.69436  0.38449  1.0000
  C   C546      1.0  0.37874  0.68536  0.36280  1.0000
  C   C547      1.0  0.37345  0.68906  0.41371  1.0000
  C   C548      1.0  0.34902  0.68936  0.38055  1.0000
  C   C549      1.0  0.36873  0.71362  0.38083  1.0000
  H   H864      1.0  0.37456  0.68916  0.34055  1.0000
  H   H865      1.0  0.37797  0.67078  0.36471  1.0000
  H   H866      1.0  0.39283  0.68868  0.36511  1.0000
  H   H867      1.0  0.38736  0.69263  0.41743  1.0000
  H   H868      1.0  0.36519  0.69563  0.43056  1.0000
  H   H869      1.0  0.37266  0.67458  0.41714  1.0000
  H   H870      1.0  0.34010  0.69583  0.39656  1.0000
  H   H871      1.0  0.34759  0.67487  0.38265  1.0000
  H   H872      1.0  0.34413  0.69324  0.35876  1.0000
  H   H873      1.0  0.36067  0.72083  0.39720  1.0000
  H   H874      1.0  0.36387  0.71816  0.35927  1.0000
  H   H875      1.0  0.38254  0.71788  0.38298  1.0000
  N   N56       1.0  0.36119  0.79778  0.13001  1.0000
  C   C550      1.0  0.36279  0.78208  0.11168  1.0000
  C   C551      1.0  0.37812  0.80686  0.12992  1.0000
  C   C552      1.0  0.35658  0.79233  0.15967  1.0000
  C   C553      1.0  0.34718  0.80985  0.11852  1.0000
  C   C554      1.0  0.26329  0.77482  0.43161  1.0000
  H   H876      1.0  0.37299  0.77247  0.11993  1.0000
  H   H877      1.0  0.38250  0.93065  0.04788  1.0000
  H   H878      1.0  0.38182  0.81107  0.10766  1.0000
  H   H879      1.0  0.37739  0.81889  0.14331  1.0000
  H   H880      1.0  0.38904  0.79814  0.13833  1.0000
  H   H881      1.0  0.35514  0.80385  0.17412  1.0000
  H   H882      1.0  0.36678  0.78309  0.16902  1.0000
  H   H883      1.0  0.34382  0.78543  0.16015  1.0000
  H   H884      1.0  0.34593  0.82214  0.13117  1.0000
  H   H885      1.0  0.33412  0.80359  0.11903  1.0000
  H   H886      1.0  0.34994  0.81366  0.09576  1.0000
  N   N57       1.0  0.43565  0.55156  0.45137  1.0000
  H   H887      1.0  0.48632  0.58825  0.01593  1.0000
  C   C555      1.0  0.42370  0.54312  0.43102  1.0000
  H   H888      1.0  0.42114  0.54335  0.48872  1.0000
  C   C556      1.0  0.45100  0.50194  0.39943  1.0000
  S   S222      1.0  0.32620  0.74546  0.48740  1.0000
  H   H889      1.0  0.43960  0.57738  0.46820  1.0000
  H   H890      1.0  0.25668  0.78157  0.45004  1.0000
  H   H891      1.0  0.38553  0.95770  0.09573  1.0000
  H   H892      1.0  0.41812  0.87828  0.45754  1.0000
  H   H893      1.0  0.45574  0.50919  0.30242  1.0000
  H   H894      1.0  0.45917  0.50373  0.41815  1.0000
  C   C557      1.0  0.48672  0.58352  0.18449  1.0000
  H   H895      1.0  0.49407  0.95648  0.38375  1.0000
  H   H896      1.0  0.45835  0.53619  0.43730  1.0000
  H   H897      1.0  0.43007  0.57724  0.43304  1.0000
  C   C558      1.0  0.46269  0.53924  0.27444  1.0000
  H   H898      1.0  0.48860  0.90681  0.41262  1.0000
  H   H899      1.0  0.44876  0.53530  0.27230  1.0000
  H   H900      1.0  0.40969  0.54466  0.43791  1.0000
  H   H901      1.0  0.39333  0.86892  0.48971  1.0000
  H   H902      1.0  0.49732  0.53790  0.26374  1.0000
  C   C559      1.0  0.49157  0.58760  0.49545  1.0000
  C   C560      1.0  0.24970  0.70660  0.26827  1.0000
  H   H903      1.0  0.44355  0.54894  0.49565  1.0000
  H   H904      1.0  0.49756  0.88189  0.06088  1.0000
  C   C561      1.0  0.49270  0.90152  0.49581  1.0000
  Fe  Fe113     1.0  0.34255  0.80399  0.53659  1.0000
  S   S223      1.0  0.34345  0.77590  0.55319  1.0000
  S   S224      1.0  0.36943  0.81674  0.53962  1.0000
  Fe  Fe114     1.0  0.30278  0.80219  0.52282  1.0000
  S   S225      1.0  0.30138  0.77473  0.53995  1.0000
  H   H905      1.0  0.48280  0.97231  0.94399  1.0000
  Fe  Fe115     1.0  0.31836  0.78345  0.57616  1.0000
  S   S226      1.0  0.31137  0.78092  0.62363  1.0000
  H   H906      1.0  0.25201  0.79052  0.64540  1.0000
  C   C562      1.0  0.28094  0.77277  0.96219  1.0000
  S   S227      1.0  0.31797  0.81171  0.56092  1.0000
  H   H907      1.0  0.46117  0.96401  0.93826  1.0000
  Fe  Fe116     1.0  0.32189  0.71148  0.75300  1.0000
  S   S228      1.0  0.30976  0.68541  0.76400  1.0000
  S   S229      1.0  0.33180  0.71625  0.70719  1.0000
  Fe  Fe117     1.0  0.31985  0.72389  0.81541  1.0000
  S   S230      1.0  0.30754  0.69909  0.83017  1.0000
  S   S231      1.0  0.32668  0.74629  0.84512  1.0000
  Fe  Fe118     1.0  0.32786  0.68488  0.80260  1.0000
  S   S232      1.0  0.34207  0.66140  0.82532  1.0000
  Fe  Fe119     1.0  0.29063  0.70186  0.79044  1.0000
  S   S233      1.0  0.26113  0.69882  0.79813  1.0000
  S   S234      1.0  0.34117  0.70977  0.79001  1.0000
  S   S235      1.0  0.30173  0.72786  0.77727  1.0000
  Fe  Fe120     1.0  0.43052  0.59637  0.82199  1.0000
  S   S236      1.0  0.45782  0.60345  0.83573  1.0000
  S   S237      1.0  0.41439  0.61845  0.79895  1.0000
  Fe  Fe121     1.0  0.43842  0.55697  0.83692  1.0000
  S   S238      1.0  0.46612  0.56162  0.85107  1.0000
  S   S239      1.0  0.42604  0.53003  0.83864  1.0000
  Fe  Fe122     1.0  0.45425  0.58516  0.87369  1.0000
  S   S240      1.0  0.45813  0.59244  0.92081  1.0000
  Fe  Fe123     1.0  0.46723  0.57941  0.81166  1.0000
  H   H908      1.0  0.34354  0.81343  0.63093  1.0000
  S   S241      1.0  0.42618  0.57968  0.86155  1.0000
  S   S242      1.0  0.44033  0.57310  0.79590  1.0000
  Fe  Fe124     1.0  0.42415  0.90030  0.59095  1.0000
  S   S243      1.0  0.44853  0.88563  0.57603  1.0000
  S   S244      1.0  0.39614  0.88997  0.58706  1.0000
  Fe  Fe125     1.0  0.44543  0.93330  0.60760  1.0000
  S   S245      1.0  0.47088  0.92060  0.59208  1.0000
  S   S246      1.0  0.45036  0.95818  0.63310  1.0000
  Fe  Fe126     1.0  0.45539  0.91120  0.55419  1.0000
  H   H909      1.0  0.45303  0.54735  0.98429  1.0000
  Fe  Fe127     1.0  0.46157  0.89657  0.61550  1.0000
  S   S247      1.0  0.47703  0.88051  0.64919  1.0000
  S   S248      1.0  0.43049  0.92572  0.56816  1.0000
  S   S249      1.0  0.43660  0.90936  0.63199  1.0000
  C   C563      1.0  0.44248  0.98037  0.63072  1.0000
  N   N58       1.0  0.36803  0.79844  0.62785  1.0000
  C   C564      1.0  0.42827  0.98583  0.61325  1.0000
  H   H910      1.0  0.29413  0.75956  0.91357  1.0000
  H   H911      1.0  0.42183  0.97636  0.60003  1.0000
  H   H912      1.0  0.48607  0.95206  0.87178  1.0000
  Fe  Fe128     1.0  0.32644  0.77001  0.51486  1.0000
  H   H913      1.0  0.27241  0.80453  0.56272  1.0000
  C   C565      1.0  0.42212  0.88116  0.51451  1.0000
  S   S250      1.0  0.32621  0.79372  0.99517  1.0000
  H   H914      1.0  0.46359  0.53162  0.91151  1.0000
  H   H915      1.0  0.26071  0.79602  0.90784  1.0000
  H   H916      1.0  0.41708  0.54558  0.92939  1.0000
  C   C566      1.0  0.49276  0.59147  0.68531  1.0000
  C   C567      1.0  0.47377  0.89218  0.96723  1.0000
  H   H917      1.0  0.46667  0.96342  0.88529  1.0000
  H   H918      1.0  0.44192  0.96276  0.69534  1.0000
  H   H919      1.0  0.46161  0.88922  0.97818  1.0000
  C   C568      1.0  0.43473  0.51150  0.85810  1.0000
  H   H920      1.0  0.48432  0.87075  0.70835  1.0000
  C   C569      1.0  0.48062  0.95969  0.89028  1.0000
  H   H921      1.0  0.43160  0.53897  0.90067  1.0000
  H   H922      1.0  0.47233  0.53809  0.94548  1.0000
  C   C570      1.0  0.47694  0.58685  0.69885  1.0000
  C   C571      1.0  0.47637  0.58338  0.72876  1.0000
  C   C572      1.0  0.25590  0.78774  0.51273  1.0000
  N   N59       1.0  0.44401  0.54024  0.94220  1.0000
  H   H923      1.0  0.46516  0.58566  0.68603  1.0000
  H   H924      1.0  0.46423  0.57945  0.73882  1.0000
  C   C573      1.0  0.47203  0.93329  0.91512  1.0000
  H   H925      1.0  0.44251  0.92312  0.74315  1.0000
  H   H926      1.0  0.46528  0.96500  0.69544  1.0000
  C   C574      1.0  0.47596  0.88826  0.93775  1.0000
  S   S251      1.0  0.32403  0.74198  0.98214  1.0000
  H   H927      1.0  0.43553  0.88657  0.51324  1.0000
  H   H928      1.0  0.38250  0.81853  0.64858  1.0000
  C   C575      1.0  0.36219  0.64960  0.81740  1.0000
  C   C576      1.0  0.36810  0.63604  0.83633  1.0000
  C   C577      1.0  0.38405  0.62644  0.83123  1.0000
  C   C578      1.0  0.39429  0.63026  0.80702  1.0000
  C   C579      1.0  0.38846  0.64394  0.78824  1.0000
  C   C580      1.0  0.37256  0.65360  0.79341  1.0000
  H   H929      1.0  0.36021  0.63281  0.85496  1.0000
  H   H930      1.0  0.38828  0.61595  0.84586  1.0000
  H   H931      1.0  0.39619  0.64701  0.76937  1.0000
  H   H932      1.0  0.36822  0.66397  0.77864  1.0000
  C   C581      1.0  0.25764  0.80486  0.50207  1.0000
  C   C582      1.0  0.49156  0.89237  0.92305  1.0000
  H   H933      1.0  0.26285  0.69790  0.73522  1.0000
  C   C583      1.0  0.37592  0.80600  0.65380  1.0000
  C   C584      1.0  0.37638  0.83693  0.55418  1.0000
  C   C585      1.0  0.39456  0.83952  0.55720  1.0000
  C   C586      1.0  0.40084  0.85537  0.56812  1.0000
  C   C587      1.0  0.38899  0.86904  0.57570  1.0000
  C   C588      1.0  0.37079  0.86637  0.57303  1.0000
  C   C589      1.0  0.36450  0.85040  0.56247  1.0000
  H   H934      1.0  0.40390  0.82917  0.55101  1.0000
  H   H935      1.0  0.41485  0.85701  0.57052  1.0000
  H   H936      1.0  0.36147  0.87682  0.57885  1.0000
  H   H937      1.0  0.35048  0.84867  0.56025  1.0000
  H   H938      1.0  0.44548  0.56551  0.96210  1.0000
  H   H939      1.0  0.49390  0.89995  0.51893  1.0000
  H   H940      1.0  0.28644  0.80355  0.59373  1.0000
  N   N60       1.0  0.27971  0.78103  0.93324  1.0000
  C   C590      1.0  0.32480  0.74344  0.94409  1.0000
  C   C591      1.0  0.31905  0.72930  0.92776  1.0000
  C   C592      1.0  0.31930  0.73007  0.89743  1.0000
  C   C593      1.0  0.32558  0.74491  0.88316  1.0000
  C   C594      1.0  0.33147  0.75899  0.89949  1.0000
  C   C595      1.0  0.33107  0.75828  0.92982  1.0000
  H   H941      1.0  0.31417  0.71777  0.93865  1.0000
  H   H942      1.0  0.31459  0.71921  0.88514  1.0000
  H   H943      1.0  0.33649  0.77046  0.88863  1.0000
  H   H944      1.0  0.33584  0.76911  0.94215  1.0000
  C   C596      1.0  0.32551  0.73414  0.68414  1.0000
  C   C597      1.0  0.31511  0.74842  0.69378  1.0000
  C   C598      1.0  0.31080  0.76258  0.67491  1.0000
  C   C599      1.0  0.31671  0.76253  0.64620  1.0000
  C   C600      1.0  0.32700  0.74822  0.63646  1.0000
  C   C601      1.0  0.33144  0.73414  0.65541  1.0000
  H   H945      1.0  0.31054  0.74861  0.71586  1.0000
  H   H946      1.0  0.30292  0.77363  0.68272  1.0000
  H   H947      1.0  0.33160  0.74796  0.61440  1.0000
  H   H948      1.0  0.33947  0.72313  0.64779  1.0000
  C   C602      1.0  0.38195  0.79494  0.60613  1.0000
  C   C603      1.0  0.27276  0.80666  0.58634  1.0000
  S   S252      1.0  0.45861  0.91457  0.50549  1.0000
  H   H949      1.0  0.42865  0.93847  0.72312  1.0000
  H   H950      1.0  0.41803  0.88160  0.53744  1.0000
  H   H951      1.0  0.42979  0.55126  0.97819  1.0000
  C   C604      1.0  0.26151  0.79851  0.63303  1.0000
  C   C605      1.0  0.43073  0.54661  0.92094  1.0000
  H   H952      1.0  0.49093  0.59174  0.51764  1.0000
  S   S253      1.0  0.49323  0.88889  0.88542  1.0000
  H   H953      1.0  0.45067  0.51642  0.96579  1.0000
  H   H954      1.0  0.46538  0.88232  0.92615  1.0000
  C   C606      1.0  0.48732  0.90004  0.98228  1.0000
  C   C607      1.0  0.48796  0.89149  0.67704  1.0000
  C   C608      1.0  0.26246  0.79046  0.92995  1.0000
  H   H955      1.0  0.38673  0.88263  0.51920  1.0000
  N   N61       1.0  0.36507  0.69770  0.87827  1.0000
  C   C609      1.0  0.34737  0.69056  0.88240  1.0000
  C   C610      1.0  0.37555  0.69464  0.90475  1.0000
  C   C611      1.0  0.36337  0.71680  0.87208  1.0000
  C   C612      1.0  0.37395  0.68879  0.85385  1.0000
  H   H956      1.0  0.33906  0.69291  0.86298  1.0000
  H   H957      1.0  0.34033  0.69674  0.90093  1.0000
  H   H958      1.0  0.34805  0.67605  0.88615  1.0000
  H   H959      1.0  0.36915  0.70121  0.92358  1.0000
  H   H960      1.0  0.37701  0.68034  0.91000  1.0000
  H   H961      1.0  0.38900  0.69988  0.90242  1.0000
  H   H962      1.0  0.37640  0.72263  0.86815  1.0000
  H   H963      1.0  0.35701  0.72399  0.89029  1.0000
  H   H964      1.0  0.35512  0.71959  0.85263  1.0000
  H   H965      1.0  0.38732  0.69385  0.84989  1.0000
  H   H966      1.0  0.36624  0.69069  0.83358  1.0000
  H   H967      1.0  0.37535  0.67432  0.85772  1.0000
  H   H968      1.0  0.42019  0.91619  0.50686  1.0000
  H   H969      1.0  0.49189  0.57322  0.91232  1.0000
  H   H970      1.0  0.27006  0.82094  0.58988  1.0000
  C   C613      1.0  0.35471  0.81105  0.61574  1.0000
  N   N62       1.0  0.48222  0.94943  0.91744  1.0000
  C   C614      1.0  0.44052  0.52186  0.95056  1.0000
  H   H971      1.0  0.26713  0.78061  0.52159  1.0000
  H   H972      1.0  0.47722  0.92470  0.89753  1.0000
  C   C615      1.0  0.45801  0.93091  0.69299  1.0000
  C   C616      1.0  0.47261  0.94033  0.73600  1.0000
  H   H973      1.0  0.34893  0.78396  0.65205  1.0000
  H   H974      1.0  0.46905  0.93486  0.67874  1.0000
  H   H975      1.0  0.49403  0.91410  0.65107  1.0000
  C   C617      1.0  0.45060  0.99284  0.64787  1.0000
  H   H976      1.0  0.46076  0.52132  0.86279  1.0000
  H   H977      1.0  0.34913  0.80604  0.59548  1.0000
  H   H978      1.0  0.47270  0.92541  0.93545  1.0000
  C   C618      1.0  0.44302  0.55153  0.96788  1.0000
  H   H979      1.0  0.43945  0.94540  0.75528  1.0000
  C   C619      1.0  0.44107  0.93710  0.73583  1.0000
  H   H980      1.0  0.45271  0.96992  0.72740  1.0000
  C   C620      1.0  0.49060  0.57652  0.93483  1.0000
  H   H981      1.0  0.40238  0.90952  0.52959  1.0000
  H   H982      1.0  0.36915  0.77187  0.64471  1.0000
  H   H983      1.0  0.29354  0.80016  0.90816  1.0000
  H   H984      1.0  0.43263  0.56067  0.91513  1.0000
  C   C621      1.0  0.45396  0.96083  0.70889  1.0000
  H   H985      1.0  0.29372  0.76537  0.96523  1.0000
  N   N63       1.0  0.45494  0.63283  0.74712  1.0000
  C   C622      1.0  0.44855  0.64231  0.77291  1.0000
  C   C623      1.0  0.44443  0.61704  0.74304  1.0000
  C   C624      1.0  0.47370  0.62748  0.75101  1.0000
  C   C625      1.0  0.45303  0.64447  0.72150  1.0000
  H   H986      1.0  0.44969  0.63381  0.79258  1.0000
  H   H987      1.0  0.43437  0.64640  0.77085  1.0000
  H   H988      1.0  0.45613  0.65431  0.77677  1.0000
  H   H989      1.0  0.44855  0.60978  0.72339  1.0000
  H   H990      1.0  0.44581  0.60779  0.76174  1.0000
  H   H991      1.0  0.43011  0.62053  0.74094  1.0000
  H   H992      1.0  0.47912  0.62083  0.73153  1.0000
  H   H993      1.0  0.47551  0.61813  0.76955  1.0000
  H   H994      1.0  0.48196  0.63899  0.75513  1.0000
  H   H995      1.0  0.46078  0.65654  0.72380  1.0000
  H   H996      1.0  0.43899  0.64867  0.71796  1.0000
  H   H997      1.0  0.45775  0.63767  0.70166  1.0000
  C   C626      1.0  0.45212  0.51070  0.86794  1.0000
  H   H998      1.0  0.48447  0.94405  0.72345  1.0000
  H   H999      1.0  0.36053  0.82394  0.61038  1.0000
  N   N64       1.0  0.45642  0.94230  0.71846  1.0000
  H   H1000     1.0  0.27071  0.75773  0.91289  1.0000
  S   S254      1.0  0.27805  0.81553  0.50383  1.0000
  H   H1001     1.0  0.38599  0.79678  0.66360  1.0000
  C   C627      1.0  0.47438  0.59045  0.97365  1.0000
  C   C628      1.0  0.46179  0.54107  0.92934  1.0000
  H   H1002     1.0  0.35322  0.77587  0.61667  1.0000
  H   H1003     1.0  0.38836  0.80729  0.59928  1.0000
  H   H1004     1.0  0.44586  0.93187  0.67964  1.0000
  H   H1005     1.0  0.28005  0.78282  0.97933  1.0000
  H   H1006     1.0  0.42739  0.52080  0.96103  1.0000
  C   C629      1.0  0.35952  0.78182  0.63568  1.0000
  H   H1007     1.0  0.25900  0.81257  0.63854  1.0000
  H   H1008     1.0  0.46036  0.91683  0.69913  1.0000
  C   C630      1.0  0.47573  0.58616  0.94432  1.0000
  S   S255      1.0  0.32737  0.79734  0.49638  1.0000
  H   H1009     1.0  0.39238  0.78562  0.61451  1.0000
  H   H1010     1.0  0.47492  0.92649  0.74354  1.0000
  H   H1011     1.0  0.36572  0.80890  0.67051  1.0000
  H   H1012     1.0  0.37645  0.78916  0.58628  1.0000
  H   H1013     1.0  0.28128  0.77296  0.88899  1.0000
  H   H1014     1.0  0.47196  0.94878  0.75537  1.0000
  H   H1015     1.0  0.46409  0.55435  0.92012  1.0000
  H   H1016     1.0  0.29299  0.80418  0.94625  1.0000
  H   H1017     1.0  0.45788  0.93634  0.91052  1.0000
  N   N65       1.0  0.25997  0.79570  0.60170  1.0000
  H   H1018     1.0  0.46173  0.98887  0.66118  1.0000
  C   C631      1.0  0.49154  0.58490  0.74549  1.0000
  H   H1019     1.0  0.49938  0.88602  0.74806  1.0000
  H   H1020     1.0  0.26116  0.80167  0.94501  1.0000
  H   H1021     1.0  0.44058  0.51314  0.93146  1.0000
  H   H1022     1.0  0.25458  0.76825  0.60716  1.0000
  C   C632      1.0  0.28150  0.76724  0.91117  1.0000
  C   C633      1.0  0.48980  0.88352  0.70444  1.0000
  H   H1023     1.0  0.27500  0.79466  0.64092  1.0000
  H   H1024     1.0  0.47626  0.95260  0.96236  1.0000
  H   H1025     1.0  0.26262  0.77425  0.57209  1.0000
  H   H1026     1.0  0.42325  0.86710  0.50824  1.0000
  C   C634      1.0  0.26377  0.77693  0.59546  1.0000
  C   C635      1.0  0.47528  0.96009  0.94158  1.0000
  C   C636      1.0  0.48760  0.58497  0.99340  1.0000
  H   H1027     1.0  0.27740  0.77279  0.60210  1.0000
  H   H1028     1.0  0.27021  0.76342  0.96602  1.0000
  C   C637      1.0  0.29398  0.79365  0.92974  1.0000
  S   S256      1.0  0.49308  0.59570  0.64770  1.0000
  H   H1029     1.0  0.30717  0.78703  0.93224  1.0000
  H   H1030     1.0  0.25499  0.84148  0.98250  1.0000
  H   H1031     1.0  0.49022  0.52620  0.70557  1.0000
  H   H1032     1.0  0.49652  0.54587  0.74583  1.0000
  H   H1033     1.0  0.25130  0.78169  0.93449  1.0000
  S   S257      1.0  0.49166  0.58051  0.78305  1.0000
  H   H1034     1.0  0.48815  0.97199  0.89126  1.0000
  H   H1035     1.0  0.46294  0.59795  0.98119  1.0000
  C   C638      1.0  0.49840  0.89212  0.72693  1.0000
  C   C639      1.0  0.49516  0.90793  0.67214  1.0000
  C   C640      1.0  0.40739  0.90944  0.50699  1.0000
  N   N66       1.0  0.40948  0.89130  0.49613  1.0000
  C   C641      1.0  0.39223  0.88282  0.49694  1.0000
  Fe  Fe129     1.0  0.64780  0.20424  0.42975  1.0000
  S   S258      1.0  0.65384  0.17520  0.43399  1.0000
  S   S259      1.0  0.63571  0.21747  0.38985  1.0000
  C   C642      1.0  0.56685  0.13548  0.00869  1.0000
  N   N67       1.0  0.62845  0.26022  0.44648  1.0000
  S   S260      1.0  0.64435  0.24158  0.02843  1.0000
  Fe  Fe130     1.0  0.67628  0.18262  0.46288  1.0000
  C   C643      1.0  0.54595  0.14029  0.48242  1.0000
  Fe  Fe131     1.0  0.63728  0.17597  0.47394  1.0000
  H   H1036     1.0  0.65603  0.25621  0.45648  1.0000
  S   S261      1.0  0.67178  0.21157  0.45467  1.0000
  S   S262      1.0  0.62959  0.20465  0.46812  1.0000
  Fe  Fe132     1.0  0.66185  0.26899  0.18964  1.0000
  S   S263      1.0  0.66217  0.29749  0.17636  1.0000
  S   S264      1.0  0.65898  0.24420  0.16346  1.0000
  Fe  Fe133     1.0  0.66601  0.27705  0.25424  1.0000
  S   S265      1.0  0.66609  0.30632  0.24592  1.0000
  S   S266      1.0  0.67504  0.26394  0.29638  1.0000
  Fe  Fe134     1.0  0.64396  0.30225  0.21420  1.0000
  S   S267      1.0  0.61612  0.31520  0.21214  1.0000
  Fe  Fe135     1.0  0.68426  0.29937  0.20901  1.0000
  S   S268      1.0  0.71046  0.31214  0.20010  1.0000
  S   S269      1.0  0.64260  0.27335  0.22583  1.0000
  S   S270      1.0  0.68518  0.27059  0.21880  1.0000
  Fe  Fe136     1.0  0.53577  0.43178  0.13289  1.0000
  N   N68       1.0  0.59210  0.44152  0.10850  1.0000
  S   S271      1.0  0.53846  0.45463  0.10143  1.0000
  Fe  Fe137     1.0  0.55350  0.39662  0.15392  1.0000
  S   S272      1.0  0.52821  0.38709  0.17329  1.0000
  S   S273      1.0  0.58185  0.38529  0.15443  1.0000
  Fe  Fe138     1.0  0.51511  0.39836  0.13278  1.0000
  H   H1037     1.0  0.53630  0.48668  0.06843  1.0000
  Fe  Fe139     1.0  0.52462  0.41464  0.19027  1.0000
  H   H1038     1.0  0.52060  0.08627  0.25557  1.0000
  S   S274      1.0  0.54063  0.40551  0.11229  1.0000
  S   S275      1.0  0.55060  0.42364  0.17278  1.0000
  Fe  Fe140     1.0  0.54841  0.08665  0.41365  1.0000
  S   S276      1.0  0.51955  0.09450  0.41293  1.0000
  S   S277      1.0  0.56757  0.10932  0.40807  1.0000
  Fe  Fe141     1.0  0.54009  0.04759  0.41842  1.0000
  S   S278      1.0  0.51090  0.05306  0.41944  1.0000
  S   S279      1.0  0.55089  0.01935  0.42325  1.0000
  Fe  Fe142     1.0  0.51578  0.07204  0.38296  1.0000
  H   H1039     1.0  0.68112  0.20008  0.27754  1.0000
  Fe  Fe143     1.0  0.51665  0.07509  0.44935  1.0000
  H   H1040     1.0  0.66871  0.09462  0.45125  1.0000
  S   S280      1.0  0.54491  0.06542  0.38028  1.0000
  S   S281      1.0  0.54575  0.06824  0.45175  1.0000
  C   C644      1.0  0.58981  0.45719  0.08952  1.0000
  H   H1041     1.0  0.53160  0.02035  0.36885  1.0000
  H   H1042     1.0  0.56148  0.11217  0.05188  1.0000
  H   H1043     1.0  0.58753  0.42298  0.07488  1.0000
  H   H1044     1.0  0.64633  0.11411  0.42636  1.0000
  H   H1045     1.0  0.52052  0.38931  0.06427  1.0000
  C   C645      1.0  0.53997  0.48996  0.09012  1.0000
  H   H1046     1.0  0.57743  0.10176  0.00752  1.0000
  S   S282      1.0  0.71208  0.19178  0.02055  1.0000
  H   H1047     1.0  0.73026  0.14158  0.45584  1.0000
  H   H1048     1.0  0.54683  0.10760  0.46071  1.0000
  H   H1049     1.0  0.67835  0.11908  0.41949  1.0000
  H   H1050     1.0  0.56162  0.35755  0.28132  1.0000
  H   H1051     1.0  0.56343  0.39729  0.29137  1.0000
  H   H1052     1.0  0.74092  0.28680  0.28566  1.0000
  C   C646      1.0  0.74770  0.18388  0.49009  1.0000
  H   H1053     1.0  0.51168  0.42777  0.06670  1.0000
  N   N69       1.0  0.55529  0.12021  0.00842  1.0000
  C   C647      1.0  0.54987  0.11572  0.03813  1.0000
  C   C648      1.0  0.54687  0.48109  0.13912  1.0000
  C   C649      1.0  0.54173  0.47667  0.11131  1.0000
  C   C650      1.0  0.50922  0.08083  0.29729  1.0000
  H   H1054     1.0  0.54817  0.47102  0.15570  1.0000
  H   H1055     1.0  0.52173  0.08045  0.30845  1.0000
  C   C651      1.0  0.60701  0.33479  0.19581  1.0000
  C   C652      1.0  0.58865  0.33809  0.19734  1.0000
  C   C653      1.0  0.58069  0.35333  0.18462  1.0000
  C   C654      1.0  0.59105  0.36559  0.17032  1.0000
  C   C655      1.0  0.60938  0.36222  0.16861  1.0000
  C   C656      1.0  0.61733  0.34692  0.18119  1.0000
  H   H1056     1.0  0.58051  0.32872  0.20837  1.0000
  H   H1057     1.0  0.56656  0.35554  0.18572  1.0000
  H   H1058     1.0  0.61755  0.37156  0.15756  1.0000
  H   H1059     1.0  0.63145  0.34461  0.17978  1.0000
  C   C657      1.0  0.60513  0.14116  0.46433  1.0000
  C   C658      1.0  0.59690  0.12632  0.47597  1.0000
  C   C659      1.0  0.58557  0.11627  0.45912  1.0000
  C   C660      1.0  0.58213  0.12106  0.43040  1.0000
  C   C661      1.0  0.59043  0.13586  0.41879  1.0000
  C   C662      1.0  0.60189  0.14581  0.43554  1.0000
  H   H1060     1.0  0.57564  0.46137  0.08752  1.0000
  H   H1061     1.0  0.57968  0.10470  0.46823  1.0000
  H   H1062     1.0  0.58795  0.13969  0.39660  1.0000
  H   H1063     1.0  0.60812  0.15713  0.42617  1.0000
  C   C663      1.0  0.64683  0.23041  0.36415  1.0000
  C   C664      1.0  0.63727  0.23792  0.34090  1.0000
  C   C665      1.0  0.64559  0.24843  0.32007  1.0000
  C   C666      1.0  0.66359  0.25149  0.32238  1.0000
  C   C667      1.0  0.67312  0.24401  0.34568  1.0000
  C   C668      1.0  0.66480  0.23352  0.36650  1.0000
  H   H1064     1.0  0.62333  0.23560  0.33900  1.0000
  H   H1065     1.0  0.63808  0.25421  0.30237  1.0000
  H   H1066     1.0  0.68707  0.24629  0.34757  1.0000
  H   H1067     1.0  0.67231  0.22779  0.38426  1.0000
  C   C669      1.0  0.65655  0.24379  0.12544  1.0000
  C   C670      1.0  0.65573  0.25921  0.10863  1.0000
  C   C671      1.0  0.65241  0.25835  0.07880  1.0000
  C   C672      1.0  0.65033  0.24208  0.06535  1.0000
  C   C673      1.0  0.65181  0.22665  0.08204  1.0000
  C   C674      1.0  0.65475  0.22753  0.11192  1.0000
  H   H1068     1.0  0.65755  0.27177  0.11861  1.0000
  H   H1069     1.0  0.65148  0.27033  0.06599  1.0000
  H   H1070     1.0  0.65015  0.21405  0.07204  1.0000
  H   H1071     1.0  0.65545  0.21551  0.12462  1.0000
  H   H1072     1.0  0.54253  0.12691  0.04838  1.0000
  H   H1073     1.0  0.68157  0.10310  0.48014  1.0000
  C   C675      1.0  0.72861  0.30841  0.22376  1.0000
  C   C676      1.0  0.50800  0.39018  0.05320  1.0000
  C   C677      1.0  0.54735  0.00333  0.39664  1.0000
  C   C678      1.0  0.51902  0.12985  0.46215  1.0000
  S   S283      1.0  0.52334  0.07484  0.99976  1.0000
  C   C679      1.0  0.53715  0.00718  0.37217  1.0000
  S   S284      1.0  0.61973  0.15302  0.48638  1.0000
  S   S285      1.0  0.52040  0.42289  0.23687  1.0000
  H   H1074     1.0  0.57983  0.37107  0.27204  1.0000
  C   C680      1.0  0.68383  0.22567  0.23719  1.0000
  N   N70       1.0  0.55455  0.38102  0.25708  1.0000
  C   C681      1.0  0.61525  0.25246  0.42748  1.0000
  C   C682      1.0  0.56702  0.36626  0.26424  1.0000
  H   H1075     1.0  0.50375  0.04849  0.24102  1.0000
  H   H1076     1.0  0.56459  0.38466  0.21407  1.0000
  H   H1077     1.0  0.74600  0.17569  0.09597  1.0000
  H   H1078     1.0  0.63617  0.11857  0.46061  1.0000
  H   H1079     1.0  0.53136  0.36591  0.26368  1.0000
  H   H1080     1.0  0.51802  0.07329  0.06057  1.0000
  H   H1081     1.0  0.52822  0.38483  0.24072  1.0000
  H   H1082     1.0  0.50872  0.11973  0.46315  1.0000
  H   H1083     1.0  0.61674  0.43327  0.08923  1.0000
  C   C683      1.0  0.50417  0.07878  0.02079  1.0000
  H   H1084     1.0  0.69549  0.21641  0.23731  1.0000
  H   H1085     1.0  0.59484  0.45457  0.06741  1.0000
  C   C684      1.0  0.50924  0.46033  0.04283  1.0000
  H   H1086     1.0  0.54021  0.15386  0.48460  1.0000
  H   H1087     1.0  0.61307  0.42450  0.12474  1.0000
  C   C685      1.0  0.50418  0.01496  0.25987  1.0000
  H   H1088     1.0  0.52232  0.45353  0.03968  1.0000
  C   C686      1.0  0.66998  0.20994  0.27612  1.0000
  C   C687      1.0  0.58512  0.44566  0.13745  1.0000
  C   C688      1.0  0.62958  0.27921  0.43996  1.0000
  C   C689      1.0  0.56225  0.39213  0.23426  1.0000
  H   H1089     1.0  0.55336  0.40362  0.22887  1.0000
  H   H1090     1.0  0.74371  0.20963  0.03153  1.0000
  H   H1091     1.0  0.57917  0.13253  0.02106  1.0000
  H   H1092     1.0  0.65789  0.20356  0.28412  1.0000
  H   H1093     1.0  0.58336  0.41487  0.11069  1.0000
  C   C690      1.0  0.65261  0.22967  0.24563  1.0000
  H   H1094     1.0  0.61398  0.23814  0.43210  1.0000
  H   H1095     1.0  0.65023  0.23481  0.22337  1.0000
  H   H1096     1.0  0.66243  0.20727  0.20405  1.0000
  C   C691      1.0  0.55112  0.39172  0.28299  1.0000
  H   H1097     1.0  0.65506  0.24113  0.25954  1.0000
  C   C692      1.0  0.53779  0.37400  0.24679  1.0000
  H   H1098     1.0  0.63344  0.28152  0.41709  1.0000
  H   H1099     1.0  0.59685  0.46863  0.09807  1.0000
  C   C693      1.0  0.50853  0.08408  0.26733  1.0000
  C   C694      1.0  0.66420  0.20230  0.22664  1.0000
  H   H1100     1.0  0.60198  0.25889  0.43018  1.0000
  H   H1101     1.0  0.65049  0.25345  0.41899  1.0000
  H   H1102     1.0  0.67285  0.22069  0.29134  1.0000
  C   C695      1.0  0.50756  0.39162  0.02300  1.0000
  C   C696      1.0  0.61101  0.43640  0.11071  1.0000
  H   H1103     1.0  0.53987  0.36565  0.22749  1.0000
  H   H1104     1.0  0.50144  0.00432  0.27581  1.0000
  C   C697      1.0  0.66844  0.10400  0.46946  1.0000
  H   H1105     1.0  0.67530  0.19237  0.22656  1.0000
  N   N71       1.0  0.53229  0.12695  0.48513  1.0000
  N   N72       1.0  0.66416  0.12215  0.45942  1.0000
  N   N73       1.0  0.61069  0.28987  0.13302  1.0000
  C   C698      1.0  0.59355  0.29794  0.14181  1.0000
  C   C699      1.0  0.60863  0.28070  0.10540  1.0000
  C   C700      1.0  0.61684  0.27712  0.15540  1.0000
  C   C701      1.0  0.62372  0.30376  0.12955  1.0000
  H   H1106     1.0  0.59465  0.30479  0.16275  1.0000
  H   H1107     1.0  0.58336  0.28786  0.14449  1.0000
  H   H1108     1.0  0.58862  0.30787  0.12568  1.0000
  H   H1109     1.0  0.60413  0.28993  0.08792  1.0000
  H   H1110     1.0  0.62130  0.27437  0.09824  1.0000
  H   H1111     1.0  0.59892  0.27009  0.10721  1.0000
  H   H1112     1.0  0.62992  0.27101  0.14985  1.0000
  H   H1113     1.0  0.60753  0.26624  0.15829  1.0000
  H   H1114     1.0  0.61823  0.28358  0.17661  1.0000
  H   H1115     1.0  0.62570  0.31083  0.15011  1.0000
  H   H1116     1.0  0.61944  0.31376  0.11308  1.0000
  H   H1117     1.0  0.63680  0.29817  0.12273  1.0000
  H   H1118     1.0  0.66052  0.14780  0.47743  1.0000
  S   S286      1.0  0.50959  0.42509  0.15161  1.0000
  Fe  Fe144     1.0  0.65385  0.21062  0.49355  1.0000
  H   H1119     1.0  0.63294  0.26333  0.49188  1.0000
  H   H1120     1.0  0.56993  0.35799  0.24508  1.0000
  H   H1121     1.0  0.65201  0.19544  0.23282  1.0000
  H   H1122     1.0  0.53077  0.09883  0.48482  1.0000
  C   C702      1.0  0.50413  0.42278  0.28973  1.0000
  C   C703      1.0  0.72963  0.18308  0.48227  1.0000
  C   C704      1.0  0.50542  0.07685  0.05089  1.0000
  H   H1123     1.0  0.54512  0.38384  0.30059  1.0000
  H   H1124     1.0  0.58673  0.43416  0.15242  1.0000
  H   H1125     1.0  0.57510  0.39736  0.24097  1.0000
  H   H1126     1.0  0.64024  0.22370  0.25329  1.0000
  C   C705      1.0  0.74453  0.31675  0.21809  1.0000
  C   C706      1.0  0.73494  0.15343  0.46544  1.0000
  H   H1127     1.0  0.54105  0.10425  0.03842  1.0000
  N   N74       1.0  0.66766  0.21686  0.24642  1.0000
  H   H1128     1.0  0.56814  0.43036  0.09383  1.0000
  C   C707      1.0  0.74691  0.19911  0.01673  1.0000
  H   H1129     1.0  0.61672  0.28629  0.44365  1.0000
  H   H1130     1.0  0.51267  0.43344  0.29462  1.0000
  H   H1131     1.0  0.72072  0.19425  0.48576  1.0000
  C   C708      1.0  0.62324  0.25766  0.47691  1.0000
  H   H1132     1.0  0.52521  0.12911  0.44039  1.0000
  H   H1133     1.0  0.61908  0.25365  0.40437  1.0000
  H   H1134     1.0  0.61873  0.44714  0.12003  1.0000
  H   H1135     1.0  0.68243  0.23123  0.21494  1.0000
  H   H1136     1.0  0.68685  0.23672  0.25176  1.0000
  C   C709      1.0  0.66388  0.13408  0.48430  1.0000
  S   S287      1.0  0.66140  0.19214  0.01890  1.0000
  C   C710      1.0  0.58239  0.42678  0.09644  1.0000
  C   C711      1.0  0.50487  0.41516  0.26229  1.0000
  H   H1137     1.0  0.67483  0.14145  0.43060  1.0000
  H   H1138     1.0  0.69100  0.12775  0.44854  1.0000
  H   H1139     1.0  0.59192  0.45691  0.14710  1.0000
  H   H1140     1.0  0.71530  0.29104  0.25286  1.0000
  Fe  Fe145     1.0  0.65412  0.21877  0.00048  1.0000
  H   H1141     1.0  0.51025  0.46842  0.06254  1.0000
  H   H1142     1.0  0.57083  0.44937  0.13652  1.0000
  H   H1143     1.0  0.62264  0.24343  0.48269  1.0000
  H   H1144     1.0  0.63960  0.28535  0.45378  1.0000
  H   H1145     1.0  0.51980  0.39201  0.01103  1.0000
  H   H1146     1.0  0.54176  0.40299  0.27822  1.0000
  C   C712      1.0  0.72323  0.16775  0.46983  1.0000
  S   S288      1.0  0.70101  0.16517  0.45890  1.0000
  H   H1147     1.0  0.51221  0.14297  0.46386  1.0000
  H   H1148     1.0  0.51536  0.02245  0.26842  1.0000
  H   H1149     1.0  0.61009  0.26388  0.48152  1.0000
  H   H1150     1.0  0.64510  0.23706  0.44502  1.0000
  H   H1151     1.0  0.56011  0.14719  0.01840  1.0000
  C   C713      1.0  0.67766  0.12777  0.43855  1.0000
  C   C714      1.0  0.72752  0.29740  0.24803  1.0000
  H   H1152     1.0  0.55264  0.13956  0.46103  1.0000
  C   C715      1.0  0.64583  0.25145  0.44151  1.0000
  H   H1153     1.0  0.65850  0.09943  0.48532  1.0000
  C   C716      1.0  0.54061  0.10924  0.48226  1.0000
  C   C717      1.0  0.64665  0.12278  0.44545  1.0000
  H   H1154     1.0  0.64283  0.13638  0.43809  1.0000
  H   H1155     1.0  0.50872  0.00856  0.23962  1.0000
  H   H1156     1.0  0.74536  0.32558  0.19973  1.0000
  C   C718      1.0  0.74211  0.29495  0.26657  1.0000
  H   H1157     1.0  0.50062  0.44273  0.09066  1.0000
  C   C719      1.0  0.73331  0.18927  0.00543  1.0000
  H   H1158     1.0  0.50548  0.02387  0.09207  1.0000
  H   H1159     1.0  0.50689  0.46947  0.02424  1.0000
  H   H1160     1.0  0.50622  0.42965  0.01451  1.0000
  H   H1161     1.0  0.53179  0.13600  0.99977  1.0000
  H   H1162     1.0  0.67694  0.13427  0.49513  1.0000
  H   H1163     1.0  0.55687  0.09300  0.99648  1.0000
  Fe  Fe146     1.0  0.66751  0.20893  0.94006  1.0000
  S   S289      1.0  0.67653  0.18191  0.95560  1.0000
  S   S290      1.0  0.67486  0.21293  0.89274  1.0000
  H   H1164     1.0  0.58761  0.28700  0.78441  1.0000
  H   H1165     1.0  0.51729  0.39171  0.56759  1.0000
  S   S291      1.0  0.65498  0.23529  0.52082  1.0000
  H   H1166     1.0  0.55623  0.05694  0.78741  1.0000
  H   H1167     1.0  0.52797  0.44467  0.60684  1.0000
  Fe  Fe147     1.0  0.65022  0.18125  0.97798  1.0000
  H   H1168     1.0  0.57354  0.00360  0.86043  1.0000
  S   S292      1.0  0.67994  0.22223  0.97757  1.0000
  S   S293      1.0  0.64072  0.20786  0.96112  1.0000
  Fe  Fe148     1.0  0.65266  0.26223  0.68704  1.0000
  S   S294      1.0  0.66787  0.28638  0.67643  1.0000
  S   S295      1.0  0.64487  0.24030  0.65697  1.0000
  Fe  Fe149     1.0  0.65271  0.26968  0.75238  1.0000
  S   S296      1.0  0.66842  0.29396  0.74599  1.0000
  S   S297      1.0  0.64052  0.26375  0.79622  1.0000
  Fe  Fe150     1.0  0.64986  0.30009  0.70879  1.0000
  S   S298      1.0  0.63729  0.32798  0.70896  1.0000
  Fe  Fe151     1.0  0.68484  0.27813  0.71460  1.0000
  S   S299      1.0  0.71447  0.27230  0.71007  1.0000
  S   S300      1.0  0.63355  0.27642  0.71659  1.0000
  S   S301      1.0  0.67025  0.25335  0.72371  1.0000
  Fe  Fe152     1.0  0.54810  0.42471  0.64791  1.0000
  S   S302      1.0  0.52003  0.42853  0.66197  1.0000
  S   S303      1.0  0.56423  0.44552  0.62557  1.0000
  Fe  Fe153     1.0  0.54873  0.38505  0.66117  1.0000
  S   S304      1.0  0.52015  0.38589  0.67553  1.0000
  S   S305      1.0  0.56533  0.35961  0.65456  1.0000
  Fe  Fe154     1.0  0.51517  0.40398  0.63707  1.0000
  H   H1169     1.0  0.51314  0.11836  0.51598  1.0000
  Fe  Fe155     1.0  0.52716  0.41043  0.69918  1.0000
  H   H1170     1.0  0.52626  0.49259  0.66565  1.0000
  S   S306      1.0  0.54289  0.40119  0.62099  1.0000
  S   S307      1.0  0.55601  0.40853  0.68692  1.0000
  Fe  Fe156     1.0  0.55262  0.10055  0.91509  1.0000
  S   S308      1.0  0.52413  0.10429  0.92771  1.0000
  S   S309      1.0  0.56737  0.12641  0.91643  1.0000
  Fe  Fe157     1.0  0.54689  0.06129  0.90098  1.0000
  S   S310      1.0  0.51822  0.06266  0.91341  1.0000
  S   S311      1.0  0.56108  0.03695  0.88281  1.0000
  Fe  Fe158     1.0  0.51774  0.08843  0.88865  1.0000
  H   H1171     1.0  0.53039  0.04627  0.85298  1.0000
  Fe  Fe159     1.0  0.52731  0.07845  0.95130  1.0000
  H   H1172     1.0  0.54370  0.02715  0.78278  1.0000
  S   S312      1.0  0.54597  0.08634  0.87442  1.0000
  S   S313      1.0  0.55620  0.07529  0.94029  1.0000
  C   C720      1.0  0.59976  0.31396  0.75295  1.0000
  H   H1173     1.0  0.51710  0.06903  0.78491  1.0000
  H   H1174     1.0  0.72502  0.21779  0.63442  1.0000
  H   H1175     1.0  0.51718  0.14149  0.51664  1.0000
  C   C721      1.0  0.59850  0.31795  0.80441  1.0000
  C   C722      1.0  0.62590  0.30894  0.78175  1.0000
  H   H1176     1.0  0.52186  0.06990  0.57885  1.0000
  H   H1177     1.0  0.58523  0.31279  0.75129  1.0000
  C   C723      1.0  0.53326  0.01444  0.88823  1.0000
  C   C724      1.0  0.55074  0.01647  0.87968  1.0000
  H   H1178     1.0  0.52599  0.02528  0.89799  1.0000
  C   C725      1.0  0.50546  0.41632  0.79814  1.0000
  N   N75       1.0  0.53215  0.04856  0.80698  1.0000
  H   H1179     1.0  0.60276  0.32805  0.74944  1.0000
  H   H1180     1.0  0.53422  0.47174  0.56017  1.0000
  S   S314      1.0  0.52142  0.41912  0.74522  1.0000
  C   C726      1.0  0.52546  0.44121  0.58409  1.0000
  H   H1181     1.0  0.51249  0.48198  0.55992  1.0000
  N   N76       1.0  0.51327  0.45426  0.57024  1.0000
  C   C727      1.0  0.56231  0.48066  0.60955  1.0000
  C   C728      1.0  0.55600  0.46751  0.62810  1.0000
  C   C729      1.0  0.54292  0.47196  0.64815  1.0000
  H   H1182     1.0  0.57248  0.47734  0.59401  1.0000
  H   H1183     1.0  0.53814  0.46206  0.66284  1.0000
  C   C730      1.0  0.61690  0.33619  0.69435  1.0000
  C   C731      1.0  0.61028  0.35285  0.70285  1.0000
  C   C732      1.0  0.59416  0.35992  0.69195  1.0000
  C   C733      1.0  0.58466  0.35059  0.67171  1.0000
  C   C734      1.0  0.59126  0.33390  0.66332  1.0000
  C   C735      1.0  0.60717  0.32664  0.67476  1.0000
  H   H1184     1.0  0.61761  0.36029  0.71820  1.0000
  H   H1185     1.0  0.58917  0.37262  0.69911  1.0000
  H   H1186     1.0  0.58406  0.32654  0.64769  1.0000
  H   H1187     1.0  0.61204  0.31380  0.66801  1.0000
  C   C736      1.0  0.61724  0.14721  0.95961  1.0000
  C   C737      1.0  0.61420  0.12904  0.95971  1.0000
  C   C738      1.0  0.59914  0.12237  0.94646  1.0000
  C   C739      1.0  0.58688  0.13384  0.93292  1.0000
  C   C740      1.0  0.58991  0.15201  0.93283  1.0000
  C   C741      1.0  0.60491  0.15869  0.94622  1.0000
  H   H1188     1.0  0.62367  0.12003  0.96994  1.0000
  H   H1189     1.0  0.59717  0.10835  0.94645  1.0000
  H   H1190     1.0  0.58044  0.16103  0.92260  1.0000
  H   H1191     1.0  0.60681  0.17272  0.94645  1.0000
  C   C742      1.0  0.66522  0.22752  0.86664  1.0000
  C   C743      1.0  0.67327  0.22887  0.83944  1.0000
  C   C744      1.0  0.66597  0.24000  0.81776  1.0000
  C   C745      1.0  0.65040  0.24978  0.82300  1.0000
  C   C746      1.0  0.64224  0.24832  0.85013  1.0000
  C   C747      1.0  0.64963  0.23729  0.87192  1.0000
  H   H1192     1.0  0.68533  0.22135  0.83515  1.0000
  H   H1193     1.0  0.67239  0.24099  0.79701  1.0000
  H   H1194     1.0  0.63018  0.25583  0.85439  1.0000
  H   H1195     1.0  0.64329  0.23637  0.89273  1.0000
  C   C748      1.0  0.64794  0.23924  0.61913  1.0000
  C   C749      1.0  0.65366  0.25357  0.60289  1.0000
  C   C750      1.0  0.65589  0.25209  0.57286  1.0000
  C   C751      1.0  0.65260  0.23624  0.55881  1.0000
  C   C752      1.0  0.64717  0.22182  0.57513  1.0000
  C   C753      1.0  0.64476  0.22337  0.60511  1.0000
  H   H1196     1.0  0.65608  0.26588  0.61338  1.0000
  H   H1197     1.0  0.66007  0.26332  0.56041  1.0000
  H   H1198     1.0  0.64453  0.20958  0.56461  1.0000
  H   H1199     1.0  0.64031  0.21221  0.61749  1.0000
  H   H1200     1.0  0.50995  0.04393  0.83458  1.0000
  C   C754      1.0  0.73083  0.29945  0.73801  1.0000
  C   C755      1.0  0.73146  0.28168  0.73049  1.0000
  H   H1201     1.0  0.59944  0.12247  0.49812  1.0000
  H   H1202     1.0  0.55638  0.13832  0.49909  1.0000
  H   H1203     1.0  0.71912  0.30749  0.73342  1.0000
  C   C756      1.0  0.51066  0.07535  0.56696  1.0000
  C   C757      1.0  0.55552  0.49816  0.61108  1.0000
  C   C758      1.0  0.60209  0.28874  0.78500  1.0000
  C   C759      1.0  0.53675  0.02966  0.80351  1.0000
  H   H1204     1.0  0.50449  0.43588  0.53896  1.0000
  H   H1205     1.0  0.70175  0.25936  0.65567  1.0000
  C   C760      1.0  0.54844  0.05867  0.80755  1.0000
  H   H1206     1.0  0.60816  0.28037  0.76789  1.0000
  C   C761      1.0  0.71855  0.23113  0.63320  1.0000
  C   C762      1.0  0.50586  0.39636  0.55547  1.0000
  C   C763      1.0  0.52091  0.05484  0.78273  1.0000
  H   H1207     1.0  0.72764  0.24050  0.64319  1.0000
  S   S315      1.0  0.66003  0.18202  0.50337  1.0000
  N   N77       1.0  0.60655  0.30740  0.78103  1.0000
  H   H1208     1.0  0.63233  0.30111  0.76443  1.0000
  H   H1209     1.0  0.71719  0.23481  0.60999  1.0000
  H   H1210     1.0  0.60340  0.31330  0.82588  1.0000
  H   H1211     1.0  0.69537  0.20538  0.63440  1.0000
  C   C764      1.0  0.52247  0.05111  0.83430  1.0000
  H   H1212     1.0  0.60712  0.28333  0.80594  1.0000
  C   C765      1.0  0.53947  0.12459  0.99091  1.0000
  H   H1213     1.0  0.56837  0.10754  0.97289  1.0000
  H   H1214     1.0  0.53316  0.12586  0.53142  1.0000
  H   H1215     1.0  0.53848  0.44046  0.57303  1.0000
  C   C766      1.0  0.53626  0.48936  0.64981  1.0000
  H   H1216     1.0  0.60168  0.33209  0.80205  1.0000
  C   C767      1.0  0.51126  0.07606  0.53661  1.0000
  H   H1217     1.0  0.52273  0.44864  0.52755  1.0000
  H   H1218     1.0  0.51609  0.42420  0.80565  1.0000
  H   H1219     1.0  0.63161  0.30393  0.80248  1.0000
  C   C768      1.0  0.74688  0.27151  0.73637  1.0000
  C   C769      1.0  0.52358  0.12827  0.51357  1.0000
  H   H1220     1.0  0.52778  0.05324  0.76169  1.0000
  Fe  Fe160     1.0  0.68682  0.19520  0.99462  1.0000
  H   H1221     1.0  0.55709  0.05440  0.82591  1.0000
  N   N78       1.0  0.70124  0.23154  0.64785  1.0000
  H   H1222     1.0  0.52305  0.47620  0.59338  1.0000
  C   C770      1.0  0.68953  0.21899  0.63403  1.0000
  C   C771      1.0  0.69323  0.24948  0.64569  1.0000
  C   C772      1.0  0.70361  0.22661  0.67853  1.0000
  H   H1223     1.0  0.51650  0.38802  0.51453  1.0000
  H   H1224     1.0  0.71198  0.23610  0.68987  1.0000
  H   H1225     1.0  0.68676  0.22274  0.61117  1.0000
  H   H1226     1.0  0.54543  0.07301  0.81009  1.0000
  H   H1227     1.0  0.57086  0.13930  0.98646  1.0000
  H   H1228     1.0  0.67656  0.21858  0.64528  1.0000
  H   H1229     1.0  0.68033  0.25029  0.65699  1.0000
  H   H1230     1.0  0.54311  0.12804  0.96831  1.0000
  H   H1231     1.0  0.69085  0.25356  0.62290  1.0000
  H   H1232     1.0  0.69073  0.22654  0.69005  1.0000
  H   H1233     1.0  0.58389  0.31713  0.80447  1.0000
  C   C773      1.0  0.73747  0.17572  0.98624  1.0000
  H   H1234     1.0  0.72708  0.16785  0.97784  1.0000
  H   H1235     1.0  0.70992  0.21327  0.68109  1.0000
  H   H1236     1.0  0.51999  0.42782  0.58421  1.0000
  H   H1237     1.0  0.62985  0.32279  0.77840  1.0000
  H   H1238     1.0  0.60590  0.30652  0.73477  1.0000
  C   C774      1.0  0.52107  0.47181  0.57087  1.0000
  H   H1239     1.0  0.52282  0.07112  0.52525  1.0000
  C   C775      1.0  0.56494  0.10496  0.99581  1.0000
  H   H1240     1.0  0.54562  0.02470  0.82109  1.0000
  S   S316      1.0  0.63669  0.15468  0.97624  1.0000
  N   N79       1.0  0.60289  0.39648  0.62217  1.0000
  C   C776      1.0  0.58866  0.39533  0.60066  1.0000
  C   C777      1.0  0.59511  0.40119  0.65030  1.0000
  C   C778      1.0  0.61518  0.41017  0.61313  1.0000
  C   C779      1.0  0.61246  0.37926  0.62471  1.0000
  H   H1241     1.0  0.59398  0.39191  0.57904  1.0000
  H   H1242     1.0  0.58096  0.40803  0.59860  1.0000
  H   H1243     1.0  0.57922  0.38499  0.60691  1.0000
  H   H1244     1.0  0.58803  0.41427  0.64931  1.0000
  H   H1245     1.0  0.58542  0.39136  0.65729  1.0000
  H   H1246     1.0  0.60530  0.40170  0.66743  1.0000
  H   H1247     1.0  0.62603  0.41137  0.62901  1.0000
  H   H1248     1.0  0.60826  0.42331  0.61122  1.0000
  H   H1249     1.0  0.62126  0.40714  0.59186  1.0000
  H   H1250     1.0  0.62274  0.37931  0.64178  1.0000
  H   H1251     1.0  0.61900  0.37551  0.60412  1.0000
  H   H1252     1.0  0.60334  0.36859  0.63046  1.0000
  N   N80       1.0  0.64318  0.16966  0.88059  1.0000
  C   C780      1.0  0.63569  0.18242  0.90135  1.0000
  C   C781      1.0  0.66102  0.16378  0.89007  1.0000
  C   C782      1.0  0.64426  0.17820  0.85189  1.0000
  C   C783      1.0  0.63176  0.15431  0.87928  1.0000
  H   H1253     1.0  0.63566  0.17675  0.92354  1.0000
  H   H1254     1.0  0.62190  0.18654  0.89582  1.0000
  H   H1255     1.0  0.64350  0.19453  0.90186  1.0000
  H   H1256     1.0  0.66715  0.15416  0.87492  1.0000
  H   H1257     1.0  0.66995  0.17508  0.89147  1.0000
  H   H1258     1.0  0.66068  0.15739  0.91181  1.0000
  H   H1259     1.0  0.64985  0.16900  0.83556  1.0000
  H   H1260     1.0  0.65287  0.18982  0.85241  1.0000
  H   H1261     1.0  0.63105  0.18303  0.84427  1.0000
  H   H1262     1.0  0.63091  0.14757  0.90068  1.0000
  H   H1263     1.0  0.63688  0.14444  0.86362  1.0000
  H   H1264     1.0  0.61806  0.15827  0.87283  1.0000
  C   C784      1.0  0.51022  0.44916  0.54009  1.0000
  C   C785      1.0  0.50501  0.41139  0.76906  1.0000
  H   H1265     1.0  0.51929  0.06528  0.83807  1.0000
  H   H1266     1.0  0.52481  0.02156  0.80406  1.0000
  H   H1267     1.0  0.74750  0.25774  0.73074  1.0000
  C   C786      1.0  0.74572  0.30706  0.75032  1.0000
  H   H1268     1.0  0.74527  0.32093  0.75530  1.0000
  H   H1269     1.0  0.65378  0.13036  0.50051  1.0000
  H   H1270     1.0  0.50847  0.04750  0.78167  1.0000
  C   C787      1.0  0.50537  0.39430  0.52538  1.0000
  H   H1271     1.0  0.53053  0.11328  0.99010  1.0000
  C   C788      1.0  0.55999  0.00216  0.86714  1.0000
  H   H1272     1.0  0.55101  0.10667  0.49877  1.0000
  H   H1273     1.0  0.50092  0.45859  0.52896  1.0000
  Fe  Fe161     1.0  0.67982  0.78829  0.28443  1.0000
  S   S317      1.0  0.68052  0.75876  0.28616  1.0000
  S   S318      1.0  0.70222  0.80738  0.28488  1.0000
  Fe  Fe162     1.0  0.63961  0.79166  0.28472  1.0000
  S   S319      1.0  0.63735  0.76226  0.28653  1.0000
  S   S320      1.0  0.61469  0.80874  0.27559  1.0000
  Fe  Fe163     1.0  0.65899  0.76171  0.31943  1.0000
  S   S321      1.0  0.65727  0.74001  0.35357  1.0000
  Fe  Fe164     1.0  0.65878  0.76095  0.25325  1.0000
  S   S322      1.0  0.65557  0.73956  0.22004  1.0000
  S   S323      1.0  0.65971  0.79133  0.32041  1.0000
  S   S324      1.0  0.65970  0.79035  0.24890  1.0000
  Fe  Fe165     1.0  0.67682  0.69308  0.02863  1.0000
  S   S325      1.0  0.66742  0.72046  0.01690  1.0000
  C   C789      1.0  0.55905  0.60059  0.01282  1.0000
  Fe  Fe166     1.0  0.63910  0.68014  0.03954  1.0000
  S   S326      1.0  0.62686  0.70689  0.02876  1.0000
  S   S327      1.0  0.62702  0.65316  0.04675  1.0000
  C   C790      1.0  0.55454  0.98617  0.40055  1.0000
  H   H1274     1.0  0.64570  0.86787  0.25065  1.0000
  Fe  Fe167     1.0  0.64913  0.71765  0.05498  1.0000
  S   S328      1.0  0.64749  0.74176  0.08365  1.0000
  H   H1275     1.0  0.72829  0.83251  0.28943  1.0000
  S   S329      1.0  0.66002  0.69095  0.06839  1.0000
  Fe  Fe168     1.0  0.54112  0.55672  0.10876  1.0000
  C   C791      1.0  0.51178  0.62651  0.14750  1.0000
  S   S330      1.0  0.55459  0.53367  0.13227  1.0000
  Fe  Fe169     1.0  0.54311  0.59647  0.09411  1.0000
  S   S331      1.0  0.51504  0.59734  0.07865  1.0000
  S   S332      1.0  0.55394  0.62419  0.09348  1.0000
  C   C792      1.0  0.50533  0.89760  0.20131  1.0000
  C   C793      1.0  0.50686  0.89704  0.23156  1.0000
  Fe  Fe170     1.0  0.52200  0.57220  0.05606  1.0000
  H   H1276     1.0  0.69881  0.69493  0.08891  1.0000
  S   S333      1.0  0.53660  0.58136  0.13457  1.0000
  S   S334      1.0  0.55051  0.57187  0.06997  1.0000
  Fe  Fe171     1.0  0.55537  0.89350  0.33295  1.0000
  S   S335      1.0  0.53036  0.88010  0.34470  1.0000
  S   S336      1.0  0.58205  0.87816  0.33523  1.0000
  Fe  Fe172     1.0  0.53688  0.93059  0.33699  1.0000
  C   C794      1.0  0.72233  0.69212  0.00943  1.0000
  S   S337      1.0  0.53592  0.96043  0.33071  1.0000
  Fe  Fe173     1.0  0.52688  0.90080  0.37854  1.0000
  H   H1277     1.0  0.53679  0.86987  0.10547  1.0000
  Fe  Fe174     1.0  0.51682  0.89972  0.31442  1.0000
  C   C795      1.0  0.69142  0.70750  0.39223  1.0000
  S   S338      1.0  0.55238  0.91362  0.36825  1.0000
  S   S339      1.0  0.54209  0.91190  0.30012  1.0000
  C   C796      1.0  0.54098  0.97672  0.35614  1.0000
  S   S340      1.0  0.70539  0.68335  0.03080  1.0000
  H   H1278     1.0  0.57888  0.84460  0.37407  1.0000
  C   C797      1.0  0.65898  0.83474  0.29615  1.0000
  H   H1279     1.0  0.52020  0.93157  0.41633  1.0000
  H   H1280     1.0  0.51394  0.97949  0.39892  1.0000
  H   H1281     1.0  0.67891  0.70089  0.39728  1.0000
  H   H1282     1.0  0.52385  0.60226  0.18590  1.0000
  C   C798      1.0  0.53215  0.88387  0.10687  1.0000
  H   H1283     1.0  0.73670  0.72325  0.10444  1.0000
  H   H1284     1.0  0.53867  0.85694  0.43588  1.0000
  H   H1285     1.0  0.52426  0.64931  0.20605  1.0000
  H   H1286     1.0  0.52513  0.94840  0.39054  1.0000
  N   N81       1.0  0.52149  0.88933  0.08148  1.0000
  H   H1287     1.0  0.54958  0.63227  0.18494  1.0000
  H   H1288     1.0  0.58586  0.84350  0.42599  1.0000
  H   H1289     1.0  0.54185  0.51770  0.08015  1.0000
  H   H1290     1.0  0.53496  0.94856  0.42566  1.0000
  C   C799      1.0  0.73616  0.70723  0.48894  1.0000
  H   H1291     1.0  0.53787  0.83693  0.41569  1.0000
  H   H1292     1.0  0.53458  0.62173  0.03786  1.0000
  H   H1293     1.0  0.72669  0.70969  0.39192  1.0000
  H   H1294     1.0  0.69770  0.70058  0.37371  1.0000
  H   H1295     1.0  0.51200  0.56982  0.18425  1.0000
  C   C800      1.0  0.60646  0.64556  0.05956  1.0000
  C   C801      1.0  0.59282  0.65699  0.06876  1.0000
  C   C802      1.0  0.57688  0.65020  0.07909  1.0000
  C   C803      1.0  0.57434  0.63194  0.08029  1.0000
  C   C804      1.0  0.58791  0.62052  0.07087  1.0000
  C   C805      1.0  0.60384  0.62731  0.06057  1.0000
  H   H1296     1.0  0.59463  0.67104  0.06810  1.0000
  H   H1297     1.0  0.56648  0.65919  0.08629  1.0000
  H   H1298     1.0  0.58631  0.60645  0.07197  1.0000
  H   H1299     1.0  0.61435  0.61835  0.05365  1.0000
  C   C806      1.0  0.60543  0.82759  0.29336  1.0000
  C   C807      1.0  0.58978  0.83566  0.28252  1.0000
  C   C808      1.0  0.58224  0.85093  0.29525  1.0000
  C   C809      1.0  0.59046  0.85856  0.31872  1.0000
  C   C810      1.0  0.60606  0.85045  0.32965  1.0000
  C   C811      1.0  0.61336  0.83494  0.31736  1.0000
  H   H1300     1.0  0.58344  0.83010  0.26405  1.0000
  H   H1301     1.0  0.57025  0.85698  0.28657  1.0000
  H   H1302     1.0  0.61247  0.85613  0.34795  1.0000
  H   H1303     1.0  0.62505  0.82867  0.32659  1.0000
  C   C812      1.0  0.65421  0.74056  0.18202  1.0000
  C   C813      1.0  0.65147  0.72493  0.16708  1.0000
  C   C814      1.0  0.64954  0.72507  0.13695  1.0000
  C   C815      1.0  0.65016  0.74092  0.12149  1.0000
  C   C816      1.0  0.65303  0.75656  0.13638  1.0000
  C   C817      1.0  0.65522  0.75637  0.16652  1.0000
  H   H1304     1.0  0.65072  0.71262  0.17892  1.0000
  H   H1305     1.0  0.64731  0.71295  0.12576  1.0000
  H   H1306     1.0  0.65367  0.76885  0.12449  1.0000
  H   H1307     1.0  0.65759  0.76845  0.17772  1.0000
  C   C818      1.0  0.65463  0.74131  0.39138  1.0000
  C   C819      1.0  0.65779  0.75664  0.40658  1.0000
  C   C820      1.0  0.65696  0.75648  0.43693  1.0000
  C   C821      1.0  0.65309  0.74101  0.45228  1.0000
  C   C822      1.0  0.64960  0.72580  0.43701  1.0000
  C   C823      1.0  0.65034  0.72598  0.40674  1.0000
  H   H1308     1.0  0.66114  0.76851  0.39502  1.0000
  H   H1309     1.0  0.65957  0.76833  0.44860  1.0000
  H   H1310     1.0  0.64632  0.71390  0.44853  1.0000
  H   H1311     1.0  0.64765  0.71413  0.39511  1.0000
  H   H1312     1.0  0.52425  0.89148  0.03554  1.0000
  C   C824      1.0  0.55137  0.97291  0.38043  1.0000
  H   H1313     1.0  0.68782  0.72115  0.38480  1.0000
  S   S341      1.0  0.51319  0.55524  0.09340  1.0000
  H   H1314     1.0  0.50737  0.91252  0.06592  1.0000
  H   H1315     1.0  0.56281  0.87743  0.42772  1.0000
  H   H1316     1.0  0.70024  0.71903  0.05202  1.0000
  C   C825      1.0  0.72420  0.80702  0.27150  1.0000
  C   C826      1.0  0.73411  0.82173  0.27729  1.0000
  H   H1317     1.0  0.70907  0.69753  0.12324  1.0000
  H   H1318     1.0  0.71046  0.73922  0.06061  1.0000
  H   H1319     1.0  0.55022  0.59090  0.47245  1.0000
  S   S342      1.0  0.65702  0.68034  0.00084  1.0000
  H   H1320     1.0  0.53363  0.85789  0.39836  1.0000
  H   H1321     1.0  0.51556  0.61372  0.13761  1.0000
  C   C827      1.0  0.54118  0.63001  0.16583  1.0000
  H   H1322     1.0  0.55723  0.85101  0.36211  1.0000
  N   N82       1.0  0.52230  0.62959  0.17360  1.0000
  C   C828      1.0  0.73205  0.79314  0.25569  1.0000
  H   H1323     1.0  0.72367  0.71934  0.05592  1.0000
  H   H1324     1.0  0.55199  0.58800  0.01220  1.0000
  H   H1325     1.0  0.55499  0.50198  0.16676  1.0000
  H   H1326     1.0  0.51578  0.95497  0.46863  1.0000
  H   H1327     1.0  0.69005  0.72487  0.12958  1.0000
  N   N83       1.0  0.54857  0.61507  0.99902  1.0000
  C   C829      1.0  0.66522  0.83786  0.24547  1.0000
  C   C830      1.0  0.55879  0.63130  0.99917  1.0000
  C   C831      1.0  0.52263  0.94586  0.41382  1.0000
  C   C832      1.0  0.50416  0.95231  0.45495  1.0000
  H   H1328     1.0  0.51712  0.56315  0.44988  1.0000
  H   H1329     1.0  0.54590  0.61739  0.15608  1.0000
  H   H1330     1.0  0.53683  0.87358  0.05184  1.0000
  H   H1331     1.0  0.51371  0.63687  0.13076  1.0000
  H   H1332     1.0  0.72339  0.74301  0.10900  1.0000
  H   H1333     1.0  0.54373  0.64056  0.14964  1.0000
  C   C833      1.0  0.50195  0.57270  0.22761  1.0000
  H   H1334     1.0  0.52690  0.91676  0.08604  1.0000
  C   C834      1.0  0.54316  0.50757  0.09667  1.0000
  H   H1335     1.0  0.70305  0.71815  0.46024  1.0000
  H   H1336     1.0  0.56103  0.82995  0.37942  1.0000
  H   H1337     1.0  0.51706  0.89871  0.18827  1.0000
  C   C835      1.0  0.57148  0.84273  0.43047  1.0000
  H   H1338     1.0  0.57981  0.87230  0.40153  1.0000
  C   C836      1.0  0.54197  0.85082  0.41479  1.0000
  H   H1339     1.0  0.57215  0.59273  0.45830  1.0000
  H   H1340     1.0  0.74163  0.67245  0.02363  1.0000
  H   H1341     1.0  0.55709  0.95981  0.38357  1.0000
  N   N84       1.0  0.70321  0.70750  0.41754  1.0000
  C   C837      1.0  0.70751  0.68914  0.42660  1.0000
  C   C838      1.0  0.71962  0.71642  0.40990  1.0000
  C   C839      1.0  0.69425  0.71694  0.44137  1.0000
  H   H1342     1.0  0.71695  0.68861  0.44485  1.0000
  H   H1343     1.0  0.71371  0.68145  0.40882  1.0000
  H   H1344     1.0  0.69554  0.68222  0.43384  1.0000
  H   H1345     1.0  0.72891  0.71652  0.42845  1.0000
  C   C840      1.0  0.51958  0.61525  0.19476  1.0000
  H   H1346     1.0  0.71683  0.73034  0.40317  1.0000
  H   H1347     1.0  0.56896  0.84853  0.45205  1.0000
  H   H1348     1.0  0.68241  0.70997  0.44898  1.0000
  H   H1349     1.0  0.68982  0.73050  0.43472  1.0000
  H   H1350     1.0  0.56831  0.82856  0.43182  1.0000
  N   N85       1.0  0.70912  0.72054  0.09573  1.0000
  C   C841      1.0  0.69198  0.72771  0.10623  1.0000
  C   C842      1.0  0.70990  0.70123  0.10004  1.0000
  C   C843      1.0  0.72358  0.72844  0.11186  1.0000
  C   C844      1.0  0.71098  0.72477  0.06474  1.0000
  H   H1351     1.0  0.52361  0.62876  0.00525  1.0000
  C   C845      1.0  0.67584  0.85903  0.27899  1.0000
  H   H1352     1.0  0.68082  0.72191  0.09454  1.0000
  H   H1353     1.0  0.63332  0.84964  0.26368  1.0000
  H   H1354     1.0  0.51967  0.89768  0.24159  1.0000
  H   H1355     1.0  0.50240  0.64661  0.19240  1.0000
  H   H1356     1.0  0.52404  0.60595  0.01573  1.0000
  H   H1357     1.0  0.69068  0.74223  0.10298  1.0000
  H   H1358     1.0  0.66745  0.84703  0.22707  1.0000
  H   H1359     1.0  0.52617  0.99708  0.33312  1.0000
  H   H1360     1.0  0.51923  0.89187  0.48716  1.0000
  H   H1361     1.0  0.72255  0.72557  0.13536  1.0000
  H   H1362     1.0  0.72451  0.78171  0.25096  1.0000
  H   H1363     1.0  0.55794  0.87811  0.39013  1.0000
  H   H1364     1.0  0.54390  0.89209  0.10914  1.0000
  H   H1365     1.0  0.72230  0.69521  0.09112  1.0000
  N   N86       1.0  0.60306  0.76449  0.21534  1.0000
  C   C846      1.0  0.61844  0.77542  0.20958  1.0000
  C   C847      1.0  0.60905  0.74589  0.21902  1.0000
  C   C848      1.0  0.59073  0.76610  0.19078  1.0000
  C   C849      1.0  0.59408  0.77059  0.24186  1.0000
  H   H1366     1.0  0.61469  0.78970  0.20883  1.0000
  H   H1367     1.0  0.62485  0.77194  0.18877  1.0000
  H   H1368     1.0  0.62860  0.77345  0.22659  1.0000
  H   H1369     1.0  0.59782  0.73714  0.22291  1.0000
  H   H1370     1.0  0.61634  0.74102  0.19967  1.0000
  H   H1371     1.0  0.61824  0.74412  0.23758  1.0000
  H   H1372     1.0  0.57888  0.75814  0.19447  1.0000
  H   H1373     1.0  0.59711  0.76143  0.17049  1.0000
  H   H1374     1.0  0.58617  0.78002  0.18715  1.0000
  H   H1375     1.0  0.58948  0.78463  0.23990  1.0000
  H   H1376     1.0  0.60308  0.76976  0.26074  1.0000
  H   H1377     1.0  0.58246  0.76260  0.24708  1.0000
  N   N87       1.0  0.56093  0.85207  0.40798  1.0000
  C   C850      1.0  0.56564  0.87076  0.40693  1.0000
  C   C851      1.0  0.56465  0.84399  0.37972  1.0000
  H   H1378     1.0  0.68847  0.85124  0.28176  1.0000
  C   C852      1.0  0.54874  0.51197  0.12424  1.0000
  S   S343      1.0  0.51105  0.91916  0.34980  1.0000
  C   C853      1.0  0.56247  0.59858  0.47376  1.0000
  C   C854      1.0  0.50703  0.89695  0.47775  1.0000
  C   C855      1.0  0.64463  0.85811  0.26856  1.0000
  Fe  Fe175     1.0  0.50913  0.58057  0.11760  1.0000
  H   H1379     1.0  0.67137  0.82689  0.30027  1.0000
  H   H1380     1.0  0.50542  0.61435  0.20081  1.0000
  H   H1381     1.0  0.67332  0.86633  0.29929  1.0000
  H   H1382     1.0  0.56177  0.60348  0.03579  1.0000
  H   H1383     1.0  0.52428  0.88521  0.12712  1.0000
  H   H1384     1.0  0.52718  0.61712  0.21489  1.0000
  H   H1385     1.0  0.50132  0.93814  0.45782  1.0000
  H   H1386     1.0  0.50744  0.90988  0.10426  1.0000
  H   H1387     1.0  0.56260  0.98314  0.41927  1.0000
  C   C856      1.0  0.50122  0.57478  0.19744  1.0000
  C   C857      1.0  0.51660  0.64657  0.18628  1.0000
  C   C858      1.0  0.73916  0.68386  0.00989  1.0000
  H   H1388     1.0  0.64109  0.86546  0.28847  1.0000
  S   S344      1.0  0.52417  0.89341  0.42594  1.0000
  C   C859      1.0  0.53409  0.99396  0.35195  1.0000
  H   H1389     1.0  0.54389  0.89581  0.05546  1.0000
  H   H1390     1.0  0.51340  0.56624  0.23740  1.0000
  H   H1391     1.0  0.57199  0.59837  0.00192  1.0000
  N   N88       1.0  0.66116  0.84747  0.27227  1.0000
  S   S345      1.0  0.51929  0.56762  0.00777  1.0000
  H   H1392     1.0  0.51844  0.65767  0.17081  1.0000
  H   H1393     1.0  0.65425  0.82928  0.23946  1.0000
  H   H1394     1.0  0.73552  0.72140  0.48639  1.0000
  H   H1395     1.0  0.65531  0.84143  0.31658  1.0000
  H   H1396     1.0  0.67788  0.86888  0.26147  1.0000
  H   H1397     1.0  0.50261  0.51878  0.28571  1.0000
  H   H1398     1.0  0.56202  0.63519  0.02157  1.0000
  H   H1399     1.0  0.67735  0.82925  0.24790  1.0000
  H   H1400     1.0  0.64852  0.82534  0.29121  1.0000
  C   C860      1.0  0.53214  0.88745  0.05494  1.0000
  C   C861      1.0  0.50571  0.89901  0.44770  1.0000
  C   C862      1.0  0.50628  0.57155  0.45724  1.0000
  C   C863      1.0  0.51557  0.90793  0.08453  1.0000
  C   C864      1.0  0.53196  0.61802  0.01517  1.0000
  C   C865      1.0  0.51163  0.97561  0.42176  1.0000
  C   C866      1.0  0.55065  0.49865  0.14540  1.0000
  H   H1401     1.0  0.55906  0.61224  0.46629  1.0000
  C   C867      1.0  0.50564  0.57673  0.48622  1.0000
  H   H1402     1.0  0.51005  0.86397  0.07710  1.0000
  N   N89       1.0  0.50755  0.95678  0.42440  1.0000
  C   C868      1.0  0.50605  0.87807  0.07957  1.0000
  H   H1403     1.0  0.52372  0.97872  0.43400  1.0000
  C   C869      1.0  0.73716  0.67066  0.49436  1.0000
  S   S346      1.0  0.65309  0.74110  0.49040  1.0000
  H   H1404     1.0  0.59602  0.60329  0.48954  1.0000
  H   H1405     1.0  0.50068  0.98426  0.42995  1.0000
  H   H1406     1.0  0.73743  0.65644  0.49583  1.0000
  Fe  Fe176     1.0  0.67406  0.79079  0.75846  1.0000
  S   S347      1.0  0.67113  0.76364  0.77721  1.0000
  S   S348      1.0  0.69708  0.79366  0.72713  1.0000
  Fe  Fe177     1.0  0.63638  0.80332  0.77889  1.0000
  S   S349      1.0  0.63151  0.77660  0.79791  1.0000
  S   S350      1.0  0.61103  0.82070  0.77950  1.0000
  Fe  Fe178     1.0  0.65894  0.77759  0.81534  1.0000
  S   S351      1.0  0.66558  0.77389  0.86289  1.0000
  Fe  Fe179     1.0  0.64399  0.76545  0.75790  1.0000
  S   S352      1.0  0.63034  0.74575  0.73007  1.0000
  S   S353      1.0  0.66366  0.80495  0.79786  1.0000
  S   S354      1.0  0.64718  0.79194  0.73767  1.0000
  Fe  Fe180     1.0  0.67846  0.68395  0.52994  1.0000
  S   S355      1.0  0.67973  0.71202  0.54300  1.0000
  Fe  Fe181     1.0  0.65470  0.71603  0.51772  1.0000
  Fe  Fe182     1.0  0.63869  0.68254  0.54313  1.0000
  S   S356      1.0  0.63756  0.71111  0.55654  1.0000
  S   S357      1.0  0.61199  0.66906  0.54506  1.0000
  C   C870      1.0  0.54250  0.50256  0.63139  1.0000
  S   S358      1.0  0.63817  0.71306  0.94523  1.0000
  Fe  Fe183     1.0  0.66267  0.70450  0.58033  1.0000
  S   S359      1.0  0.67209  0.71179  0.62489  1.0000
  H   H1407     1.0  0.72855  0.78486  0.69550  1.0000
  S   S360      1.0  0.66300  0.67579  0.56918  1.0000
  Fe  Fe184     1.0  0.53615  0.55047  0.61168  1.0000
  C   C871      1.0  0.50726  0.58977  0.73201  1.0000
  S   S361      1.0  0.53346  0.52415  0.63526  1.0000
  Fe  Fe185     1.0  0.55400  0.58611  0.59883  1.0000
  S   S362      1.0  0.52880  0.59879  0.58186  1.0000
  S   S363      1.0  0.58147  0.59803  0.59835  1.0000
  Fe  Fe186     1.0  0.51571  0.58517  0.61964  1.0000
  H   H1408     1.0  0.51117  0.52940  0.76162  1.0000
  Fe  Fe187     1.0  0.52563  0.57331  0.55829  1.0000
  H   H1409     1.0  0.51870  0.55114  0.75397  1.0000
  S   S364      1.0  0.54108  0.57438  0.63836  1.0000
  S   S365      1.0  0.55134  0.56100  0.57405  1.0000
  Fe  Fe188     1.0  0.55238  0.90280  0.83683  1.0000
  S   S366      1.0  0.52890  0.88888  0.81994  1.0000
  S   S367      1.0  0.58057  0.89109  0.83795  1.0000
  Fe  Fe189     1.0  0.53077  0.93724  0.84915  1.0000
  S   S368      1.0  0.50615  0.92537  0.83240  1.0000
  S   S369      1.0  0.52309  0.96415  0.86742  1.0000
  Fe  Fe190     1.0  0.51452  0.90129  0.85791  1.0000
  H   H1410     1.0  0.70555  0.77191  0.66704  1.0000
  Fe  Fe191     1.0  0.52258  0.91438  0.79631  1.0000
  H   H1411     1.0  0.50135  0.55612  0.69601  1.0000
  S   S370      1.0  0.53839  0.91347  0.87642  1.0000
  S   S371      1.0  0.54683  0.92787  0.81132  1.0000
  C   C872      1.0  0.53433  0.98399  0.87173  1.0000
  H   H1412     1.0  0.67812  0.76319  0.68927  1.0000
  C   C873      1.0  0.68144  0.75849  0.63160  1.0000
  C   C874      1.0  0.55183  0.98596  0.86316  1.0000
  N   N90       1.0  0.56953  0.59835  0.50340  1.0000
  H   H1413     1.0  0.55909  0.97503  0.85355  1.0000
  H   H1414     1.0  0.70560  0.78343  0.63293  1.0000
  H   H1415     1.0  0.53653  0.62088  0.95795  1.0000
  H   H1416     1.0  0.53668  0.59808  0.96850  1.0000
  H   H1417     1.0  0.58372  0.57360  0.49838  1.0000
  C   C875      1.0  0.50233  0.57512  0.98396  1.0000
  H   H1418     1.0  0.65734  0.76747  0.67153  1.0000
  H   H1419     1.0  0.71065  0.70624  0.50928  1.0000
  H   H1420     1.0  0.55669  0.60778  0.95630  1.0000
  S   S372      1.0  0.70342  0.66902  0.51584  1.0000
  C   C876      1.0  0.74953  0.70440  0.97363  1.0000
  H   H1421     1.0  0.63944  0.82864  0.86271  1.0000
  H   H1422     1.0  0.68860  0.74808  0.64448  1.0000
  S   S373      1.0  0.51027  0.56096  0.59420  1.0000
  C   C877      1.0  0.72217  0.68029  0.50388  1.0000
  H   H1423     1.0  0.52007  0.59686  0.69202  1.0000
  C   C878      1.0  0.73281  0.71293  0.97375  1.0000
  C   C879      1.0  0.50788  0.59307  0.70210  1.0000
  H   H1424     1.0  0.53893  0.52348  0.69605  1.0000
  C   C880      1.0  0.60392  0.64943  0.56097  1.0000
  C   C881      1.0  0.61509  0.63592  0.57184  1.0000
  C   C882      1.0  0.60795  0.62048  0.58363  1.0000
  C   C883      1.0  0.58960  0.61828  0.58473  1.0000
  C   C884      1.0  0.57844  0.63194  0.57432  1.0000
  C   C885      1.0  0.58558  0.64731  0.56235  1.0000
  H   H1425     1.0  0.62922  0.63719  0.57056  1.0000
  H   H1426     1.0  0.61674  0.61001  0.59153  1.0000
  H   H1427     1.0  0.56431  0.63071  0.57554  1.0000
  H   H1428     1.0  0.57679  0.65771  0.55418  1.0000
  C   C886      1.0  0.60301  0.83987  0.79748  1.0000
  C   C887      1.0  0.58470  0.84344  0.79816  1.0000
  C   C888      1.0  0.57760  0.85884  0.81100  1.0000
  C   C889      1.0  0.58878  0.87099  0.82303  1.0000
  C   C890      1.0  0.60708  0.86724  0.82292  1.0000
  C   C891      1.0  0.61418  0.85176  0.81029  1.0000
  H   H1429     1.0  0.57592  0.83424  0.78859  1.0000
  H   H1430     1.0  0.56350  0.86130  0.81164  1.0000
  H   H1431     1.0  0.61585  0.87656  0.83222  1.0000
  H   H1432     1.0  0.62830  0.84932  0.80971  1.0000
  C   C892      1.0  0.64200  0.73685  0.70049  1.0000
  C   C893      1.0  0.63320  0.73418  0.67439  1.0000
  C   C894      1.0  0.64225  0.72680  0.65070  1.0000
  C   C895      1.0  0.65999  0.72143  0.65344  1.0000
  C   C896      1.0  0.66870  0.72401  0.67960  1.0000
  C   C897      1.0  0.65981  0.73186  0.70293  1.0000
  H   H1433     1.0  0.61942  0.73812  0.67239  1.0000
  H   H1434     1.0  0.63554  0.72539  0.63040  1.0000
  H   H1435     1.0  0.68243  0.71993  0.68186  1.0000
  H   H1436     1.0  0.66664  0.73373  0.72304  1.0000
  C   C898      1.0  0.65755  0.75706  0.88552  1.0000
  C   C899      1.0  0.64666  0.74413  0.87509  1.0000
  C   C900      1.0  0.64066  0.73088  0.89380  1.0000
  C   C901      1.0  0.64543  0.73047  0.92304  1.0000
  C   C902      1.0  0.65618  0.74351  0.93353  1.0000
  C   C903      1.0  0.66224  0.75672  0.91480  1.0000
  H   H1437     1.0  0.64295  0.74426  0.85260  1.0000
  H   H1438     1.0  0.63232  0.72085  0.88552  1.0000
  H   H1439     1.0  0.65990  0.74337  0.95601  1.0000
  H   H1440     1.0  0.67065  0.76670  0.92303  1.0000
  S   S374      1.0  0.52289  0.56949  0.50973  1.0000
  H   H1441     1.0  0.51841  0.54648  0.67443  1.0000
  H   H1442     1.0  0.67687  0.79087  0.60859  1.0000
  S   S375      1.0  0.65418  0.68815  0.50237  1.0000
  C   C904      1.0  0.58573  0.60861  0.50447  1.0000
  H   H1443     1.0  0.53558  0.51608  0.73242  1.0000
  C   C905      1.0  0.72494  0.80620  0.75912  1.0000
  C   C906      1.0  0.71962  0.79715  0.73474  1.0000
  C   C907      1.0  0.73244  0.79180  0.71446  1.0000
  H   H1444     1.0  0.69743  0.79423  0.66474  1.0000
  H   H1445     1.0  0.71520  0.81061  0.77471  1.0000
  H   H1446     1.0  0.51906  0.59102  0.74476  1.0000
  H   H1447     1.0  0.64000  0.79583  0.90318  1.0000
  H   H1448     1.0  0.73035  0.72421  0.95972  1.0000
  H   H1449     1.0  0.74665  0.81804  0.78079  1.0000
  N   N91       1.0  0.55956  0.88465  0.73469  1.0000
  C   C908      1.0  0.57448  0.87209  0.72940  1.0000
  C   C909      1.0  0.55421  0.89341  0.70732  1.0000
  C   C910      1.0  0.56499  0.89804  0.75539  1.0000
  C   C911      1.0  0.54451  0.87512  0.74671  1.0000
  H   H1450     1.0  0.57075  0.86156  0.71437  1.0000
  H   H1451     1.0  0.57907  0.86555  0.74974  1.0000
  H   H1452     1.0  0.58599  0.87880  0.71999  1.0000
  H   H1453     1.0  0.54975  0.88375  0.69129  1.0000
  H   H1454     1.0  0.54306  0.90308  0.71069  1.0000
  H   H1455     1.0  0.56524  0.90072  0.69758  1.0000
  H   H1456     1.0  0.55419  0.90801  0.75910  1.0000
  H   H1457     1.0  0.57665  0.90519  0.74754  1.0000
  H   H1458     1.0  0.56855  0.89202  0.77668  1.0000
  H   H1459     1.0  0.54817  0.86799  0.76699  1.0000
  H   H1460     1.0  0.53962  0.86530  0.73132  1.0000
  H   H1461     1.0  0.53327  0.88434  0.75180  1.0000
  N   N92       1.0  0.68953  0.69095  0.92255  1.0000
  C   C912      1.0  0.69978  0.69014  0.89548  1.0000
  C   C913      1.0  0.68822  0.70936  0.93234  1.0000
  C   C914      1.0  0.69849  0.67981  0.94479  1.0000
  C   C915      1.0  0.67163  0.68455  0.91752  1.0000
  H   H1462     1.0  0.70122  0.67642  0.88757  1.0000
  H   H1463     1.0  0.71330  0.69512  0.89853  1.0000
  H   H1464     1.0  0.69330  0.69831  0.87819  1.0000
  H   H1465     1.0  0.68016  0.71057  0.95234  1.0000
  H   H1466     1.0  0.70143  0.71458  0.93680  1.0000
  H   H1467     1.0  0.68186  0.71814  0.91576  1.0000
  H   H1468     1.0  0.69177  0.68097  0.96608  1.0000
  H   H1469     1.0  0.71240  0.68358  0.94789  1.0000
  H   H1470     1.0  0.69877  0.66566  0.93893  1.0000
  H   H1471     1.0  0.66415  0.69318  0.90193  1.0000
  H   H1472     1.0  0.66377  0.68445  0.93778  1.0000
  H   H1473     1.0  0.67202  0.67092  0.90910  1.0000
  C   C916      1.0  0.50418  0.52123  0.70634  1.0000
  H   H1474     1.0  0.60895  0.79398  0.84174  1.0000
  H   H1475     1.0  0.62990  0.81735  0.83316  1.0000
  H   H1476     1.0  0.54353  0.53774  0.72532  1.0000
  H   H1477     1.0  0.57888  0.57938  0.53504  1.0000
  C   C917      1.0  0.67023  0.78856  0.62962  1.0000
  C   C918      1.0  0.53430  0.52772  0.71774  1.0000
  C   C919      1.0  0.69797  0.78148  0.65312  1.0000
  C   C920      1.0  0.67074  0.77262  0.67484  1.0000
  H   H1478     1.0  0.62589  0.78205  0.86173  1.0000
  H   H1479     1.0  0.65662  0.78429  0.62508  1.0000
  S   S376      1.0  0.51646  0.92030  0.74899  1.0000
  H   H1480     1.0  0.56168  0.57191  0.51214  1.0000
  N   N93       1.0  0.68010  0.77528  0.64727  1.0000
  H   H1481     1.0  0.64661  0.80652  0.85481  1.0000
  H   H1482     1.0  0.51371  0.90955  0.97925  1.0000
  C   C921      1.0  0.74278  0.81043  0.76248  1.0000
  H   H1483     1.0  0.51732  0.90292  0.92746  1.0000
  H   H1484     1.0  0.57153  0.62951  0.98747  1.0000
  H   H1485     1.0  0.66903  0.80140  0.64087  1.0000
  C   C922      1.0  0.50379  0.57100  0.95459  1.0000
  H   H1486     1.0  0.68858  0.75991  0.61081  1.0000
  H   H1487     1.0  0.56049  0.50823  0.59686  1.0000
  H   H1488     1.0  0.56059  0.60513  0.54575  1.0000
  H   H1489     1.0  0.60468  0.78635  0.87777  1.0000
  C   C923      1.0  0.51491  0.55017  0.69681  1.0000
  H   H1490     1.0  0.61053  0.83468  0.88448  1.0000
  N   N94       1.0  0.62669  0.67403  0.64206  1.0000
  C   C924      1.0  0.62545  0.68795  0.61963  1.0000
  C   C925      1.0  0.60969  0.66515  0.64406  1.0000
  C   C926      1.0  0.63086  0.68200  0.67002  1.0000
  C   C927      1.0  0.64083  0.66109  0.63432  1.0000
  H   H1491     1.0  0.63822  0.69452  0.61694  1.0000
  H   H1492     1.0  0.61523  0.69823  0.62493  1.0000
  H   H1493     1.0  0.62196  0.68248  0.59838  1.0000
  H   H1494     1.0  0.61014  0.65443  0.66061  1.0000
  H   H1495     1.0  0.59874  0.67456  0.64979  1.0000
  H   H1496     1.0  0.60619  0.65912  0.62315  1.0000
  H   H1497     1.0  0.64377  0.68858  0.66918  1.0000
  H   H1498     1.0  0.63166  0.67195  0.68762  1.0000
  H   H1499     1.0  0.62073  0.69221  0.67621  1.0000
  H   H1500     1.0  0.65387  0.66738  0.63287  1.0000
  H   H1501     1.0  0.63826  0.65512  0.61302  1.0000
  H   H1502     1.0  0.64202  0.65021  0.65050  1.0000
  C   C928      1.0  0.51036  0.54050  0.74580  1.0000
  H   H1503     1.0  0.59564  0.81711  0.89096  1.0000
  C   C929      1.0  0.55618  0.60620  0.52298  1.0000
  H   H1504     1.0  0.55346  0.62038  0.51795  1.0000
  H   H1505     1.0  0.66818  0.75350  0.62660  1.0000
  H   H1506     1.0  0.63377  0.81795  0.91305  1.0000
  C   C930      1.0  0.50560  0.90857  0.72189  1.0000
  H   H1507     1.0  0.60027  0.82425  0.85480  1.0000
  H   H1508     1.0  0.50787  0.51709  0.68412  1.0000
  C   C931      1.0  0.72200  0.69866  0.50192  1.0000
  H   H1509     1.0  0.50653  0.93612  0.90538  1.0000
  H   H1510     1.0  0.51517  0.56342  0.94707  1.0000
  H   H1511     1.0  0.50967  0.92901  0.69018  1.0000
  N   N95       1.0  0.51595  0.53488  0.71671  1.0000
  H   H1512     1.0  0.61880  0.80040  0.91911  1.0000
  H   H1513     1.0  0.54346  0.59941  0.52151  1.0000
  H   H1514     1.0  0.66918  0.78516  0.68681  1.0000
  N   N96       1.0  0.62116  0.80879  0.87490  1.0000
  C   C932      1.0  0.60624  0.82177  0.87644  1.0000
  C   C933      1.0  0.62873  0.80565  0.90389  1.0000
  C   C934      1.0  0.63487  0.81565  0.85557  1.0000
  C   C935      1.0  0.61488  0.79206  0.86355  1.0000
  H   H1515     1.0  0.51159  0.99694  0.89097  1.0000
  Fe  Fe192     1.0  0.64619  0.70769  0.99182  1.0000
  H   H1516     1.0  0.70649  0.71359  0.99174  1.0000
  C   C936      1.0  0.54446  0.61028  0.96908  1.0000
  C   C937      1.0  0.50309  0.90362  0.96777  1.0000
  H   H1517     1.0  0.50917  0.95642  0.92378  1.0000
  C   C938      1.0  0.57366  0.57999  0.51260  1.0000
  H   H1518     1.0  0.59152  0.60831  0.52650  1.0000
  H   H1519     1.0  0.52414  0.56046  0.70322  1.0000
  H   H1520     1.0  0.58306  0.62269  0.49860  1.0000
  C   C939      1.0  0.50517  0.89991  0.93833  1.0000
  C   C940      1.0  0.50406  0.91633  0.69436  1.0000
  H   H1521     1.0  0.50484  0.50931  0.72048  1.0000
  H   H1522     1.0  0.55133  0.64255  0.98891  1.0000
  C   C941      1.0  0.71930  0.70693  0.99180  1.0000
  H   H1523     1.0  0.50272  0.93726  0.94350  1.0000
  C   C942      1.0  0.50096  0.94459  0.92281  1.0000
  C   C943      1.0  0.52512  0.99831  0.88425  1.0000
  Fe  Fe193     1.0  0.85216  0.18387  0.02742  1.0000
  S   S377      1.0  0.85128  0.21203  0.04256  1.0000
  S   S378      1.0  0.87994  0.17109  0.02979  1.0000
  H   H1524     1.0  0.90588  0.21884  0.45936  1.0000
  S   S379      1.0  0.81004  0.21511  0.02277  1.0000
  H   H1525     1.0  0.98577  0.05442  0.38686  1.0000
  H   H1526     1.0  0.75824  0.28490  0.14667  1.0000
  H   H1527     1.0  0.97349  0.05259  0.15499  1.0000
  Fe  Fe194     1.0  0.82510  0.20617  0.06233  1.0000
  S   S380      1.0  0.81426  0.21163  0.10737  1.0000
  H   H1528     1.0  0.80717  0.21888  0.16698  1.0000
  S   S381      1.0  0.82671  0.17757  0.04972  1.0000
  Fe  Fe195     1.0  0.80446  0.29489  0.27714  1.0000
  S   S382      1.0  0.81032  0.26713  0.26345  1.0000
  S   S383      1.0  0.77541  0.30144  0.28638  1.0000
  Fe  Fe196     1.0  0.84409  0.30272  0.28494  1.0000
  S   S384      1.0  0.85203  0.27510  0.27158  1.0000
  S   S385      1.0  0.86779  0.31790  0.30138  1.0000
  Fe  Fe197     1.0  0.83178  0.27860  0.23649  1.0000
  S   S386      1.0  0.83786  0.27342  0.18905  1.0000
  Fe  Fe198     1.0  0.82990  0.26614  0.29992  1.0000
  S   S387      1.0  0.83055  0.24188  0.32946  1.0000
  S   S388      1.0  0.82487  0.30683  0.24802  1.0000
  S   S389      1.0  0.82296  0.29325  0.31523  1.0000
  Fe  Fe199     1.0  0.93276  0.08098  0.06989  1.0000
  S   S390      1.0  0.95449  0.09914  0.08015  1.0000
  S   S391      1.0  0.90565  0.09115  0.05407  1.0000
  Fe  Fe200     1.0  0.95625  0.04762  0.08338  1.0000
  S   S392      1.0  0.97946  0.06406  0.09368  1.0000
  S   S393      1.0  0.96447  0.01849  0.08712  1.0000
  Fe  Fe201     1.0  0.96014  0.08103  0.11817  1.0000
  S   S394      1.0  0.96233  0.08903  0.16505  1.0000
  Fe  Fe202     1.0  0.97163  0.08019  0.05451  1.0000
  H   H1529     1.0  0.89594  0.24747  0.00945  1.0000
  S   S395      1.0  0.93711  0.06395  0.10966  1.0000
  S   S396      1.0  0.94972  0.06272  0.04238  1.0000
  Fe  Fe203     1.0  0.96500  0.40153  0.30099  1.0000
  S   S397      1.0  0.94258  0.41992  0.28858  1.0000
  H   H1530     1.0  0.82809  0.14177  0.44146  1.0000
  Fe  Fe204     1.0  0.95534  0.40299  0.36547  1.0000
  S   S398      1.0  0.93177  0.42112  0.35695  1.0000
  S   S399      1.0  0.96021  0.39479  0.41229  1.0000
  Fe  Fe205     1.0  0.92648  0.40350  0.31923  1.0000
  S   S400      1.0  0.89923  0.39521  0.30434  1.0000
  Fe  Fe206     1.0  0.94998  0.43562  0.32742  1.0000
  S   S401      1.0  0.95736  0.46447  0.32654  1.0000
  S   S402      1.0  0.94871  0.38434  0.32987  1.0000
  S   S403      1.0  0.97372  0.41818  0.33774  1.0000
  C   C944      1.0  0.94899  0.48173  0.34838  1.0000
  C   C945      1.0  0.93134  0.48284  0.35704  1.0000
  H   H1531     1.0  0.98307  0.01432  0.14573  1.0000
  H   H1532     1.0  0.92254  0.47252  0.35136  1.0000
  C   C946      1.0  0.75270  0.15418  0.47330  1.0000
  N   N97       1.0  0.97261  0.02922  0.18126  1.0000
  C   C947      1.0  0.82676  0.14810  0.46284  1.0000
  H   H1533     1.0  0.78210  0.28778  0.21571  1.0000
  C   C948      1.0  0.97125  0.40290  0.21734  1.0000
  H   H1534     1.0  0.78249  0.26948  0.31531  1.0000
  H   H1535     1.0  0.96361  0.45527  0.47270  1.0000
  C   C949      1.0  0.97762  0.40156  0.43451  1.0000
  C   C950      1.0  0.97659  0.39858  0.46441  1.0000
  Fe  Fe207     1.0  0.83636  0.21818  0.00150  1.0000
  S   S404      1.0  0.98459  0.38930  0.26910  1.0000
  C   C951      1.0  0.94780  0.13225  0.99902  1.0000
  H   H1536     1.0  0.95863  0.03652  0.14252  1.0000
  H   H1537     1.0  0.79026  0.17938  0.12976  1.0000
  C   C952      1.0  0.94513  0.47063  0.42923  1.0000
  C   C953      1.0  0.97923  0.08739  0.21726  1.0000
  C   C954      1.0  0.79013  0.28195  0.19796  1.0000
  H   H1538     1.0  0.75774  0.15813  0.11472  1.0000
  H   H1539     1.0  0.96788  0.09075  0.42482  1.0000
  C   C955      1.0  0.98596  0.39850  0.17084  1.0000
  C   C956      1.0  0.98105  0.08544  0.18731  1.0000
  C   C957      1.0  0.95423  0.00171  0.10716  1.0000
  H   H1540     1.0  0.80057  0.12881  0.48335  1.0000
  H   H1541     1.0  0.79776  0.25729  0.33755  1.0000
  C   C958      1.0  0.98485  0.39334  0.23139  1.0000
  C   C959      1.0  0.98824  0.03992  0.38585  1.0000
  H   H1542     1.0  0.77480  0.20338  0.10422  1.0000
  H   H1543     1.0  0.77492  0.20247  0.01930  1.0000
  H   H1544     1.0  0.93345  0.47126  0.41478  1.0000
  H   H1545     1.0  0.92848  0.01441  0.10866  1.0000
  C   C960      1.0  0.87623  0.33956  0.30141  1.0000
  C   C961      1.0  0.86744  0.35403  0.28833  1.0000
  C   C962      1.0  0.87466  0.37091  0.28942  1.0000
  C   C963      1.0  0.89076  0.37360  0.30348  1.0000
  C   C964      1.0  0.89963  0.35911  0.31635  1.0000
  C   C965      1.0  0.89241  0.34224  0.31526  1.0000
  H   H1546     1.0  0.85499  0.35224  0.27763  1.0000
  H   H1547     1.0  0.86763  0.38200  0.27945  1.0000
  H   H1548     1.0  0.91185  0.36095  0.32765  1.0000
  H   H1549     1.0  0.89929  0.33120  0.32562  1.0000
  H   H1550     1.0  0.89577  0.19841  0.46808  1.0000
  H   H1551     1.0  0.92944  0.43950  0.42240  1.0000
  H   H1552     1.0  0.96625  0.43501  0.39989  1.0000
  C   C966      1.0  0.88624  0.14888  0.03881  1.0000
  C   C967      1.0  0.90351  0.14505  0.04863  1.0000
  C   C968      1.0  0.90942  0.12755  0.05450  1.0000
  C   C969      1.0  0.89830  0.11356  0.04977  1.0000
  C   C970      1.0  0.88103  0.11740  0.03999  1.0000
  C   C971      1.0  0.87497  0.13493  0.03479  1.0000
  H   H1553     1.0  0.80206  0.28285  0.36825  1.0000
  H   H1554     1.0  0.92261  0.12490  0.06255  1.0000
  H   H1555     1.0  0.87228  0.10672  0.03627  1.0000
  H   H1556     1.0  0.95572  0.09821  0.00947  1.0000
  H   H1557     1.0  0.86377  0.19568  0.46303  1.0000
  C   C972      1.0  0.77413  0.19512  0.08465  1.0000
  C   C973      1.0  0.78791  0.28664  0.36490  1.0000
  H   H1558     1.0  0.79059  0.15736  0.11578  1.0000
  N   N98       1.0  0.95357  0.45282  0.42969  1.0000
  C   C974      1.0  0.82681  0.24342  0.42841  1.0000
  C   C975      1.0  0.82394  0.22788  0.41359  1.0000
  C   C976      1.0  0.82516  0.22761  0.38331  1.0000
  C   C977      1.0  0.82902  0.24291  0.36750  1.0000
  C   C978      1.0  0.83160  0.25852  0.38228  1.0000
  C   C979      1.0  0.83054  0.25874  0.41258  1.0000
  H   H1559     1.0  0.82087  0.21602  0.42543  1.0000
  H   H1560     1.0  0.82308  0.21550  0.37202  1.0000
  H   H1561     1.0  0.83480  0.27033  0.37042  1.0000
  H   H1562     1.0  0.83287  0.27082  0.42382  1.0000
  C   C980      1.0  0.82167  0.22837  0.13028  1.0000
  C   C981      1.0  0.83283  0.24138  0.12030  1.0000
  C   C982      1.0  0.83790  0.25484  0.13882  1.0000
  C   C983      1.0  0.83204  0.25538  0.16755  1.0000
  C   C984      1.0  0.82098  0.24230  0.17765  1.0000
  C   C985      1.0  0.81575  0.22892  0.15902  1.0000
  H   H1563     1.0  0.83744  0.24116  0.09826  1.0000
  H   H1564     1.0  0.84641  0.26494  0.13080  1.0000
  H   H1565     1.0  0.81643  0.24251  0.19973  1.0000
  H   H1566     1.0  0.96034  0.40844  0.22961  1.0000
  C   C986      1.0  0.79333  0.27780  0.14675  1.0000
  H   H1567     1.0  0.90557  0.19902  0.00639  1.0000
  H   H1568     1.0  0.99918  0.07931  0.15292  1.0000
  H   H1569     1.0  0.89696  0.20581  0.43120  1.0000
  N   N99       1.0  0.82789  0.13498  0.48658  1.0000
  C   C987      1.0  0.99628  0.08876  0.42448  1.0000
  C   C988      1.0  0.90005  0.21214  0.01287  1.0000
  H   H1570     1.0  0.99229  0.08650  0.25870  1.0000
  H   H1571     1.0  0.86170  0.13759  0.02707  1.0000
  H   H1572     1.0  0.81387  0.15559  0.46313  1.0000
  C   C989      1.0  0.95971  0.01591  0.18950  1.0000
  H   H1573     1.0  0.97484  0.43890  0.45150  1.0000
  C   C990      1.0  0.94044  0.43979  0.43822  1.0000
  H   H1574     1.0  0.78821  0.28108  0.12485  1.0000
  C   C991      1.0  0.87525  0.22522  0.48711  1.0000
  H   H1575     1.0  0.79731  0.31051  0.16621  1.0000
  H   H1576     1.0  0.95436  0.48070  0.42126  1.0000
  C   C992      1.0  0.76430  0.28132  0.16784  1.0000
  N   N100      1.0  0.77422  0.17617  0.09212  1.0000
  H   H1577     1.0  0.98759  0.39944  0.00628  1.0000
  H   H1578     1.0  0.77417  0.26633  0.40628  1.0000
  H   H1579     1.0  0.98536  0.02811  0.22268  1.0000
  C   C993      1.0  0.99002  0.40395  0.48294  1.0000
  H   H1580     1.0  0.95296  0.04980  0.17316  1.0000
  H   H1581     1.0  0.77809  0.31014  0.14358  1.0000
  C   C994      1.0  0.93636  0.00278  0.11448  1.0000
  H   H1582     1.0  0.76336  0.26685  0.17100  1.0000
  H   H1583     1.0  0.80736  0.28167  0.14743  1.0000
  C   C995      1.0  0.75813  0.17233  0.10872  1.0000
  H   H1584     1.0  0.91232  0.15571  0.05205  1.0000
  H   H1585     1.0  0.98926  0.04761  0.20187  1.0000
  C   C996      1.0  0.81390  0.12212  0.48313  1.0000
  H   H1586     1.0  0.75601  0.28776  0.18478  1.0000
  C   C997      1.0  0.84542  0.12588  0.48613  1.0000
  N   N101      1.0  0.87758  0.21967  0.45691  1.0000
  C   C998      1.0  0.96827  0.45219  0.45054  1.0000
  H   H1587     1.0  0.79080  0.26743  0.20143  1.0000
  H   H1588     1.0  0.93978  0.13519  0.01859  1.0000
  H   H1589     1.0  0.96835  0.04507  0.21889  1.0000
  S   S405      1.0  0.82459  0.19292  0.48422  1.0000
  H   H1590     1.0  0.79263  0.25481  0.39019  1.0000
  C   C999      1.0  0.78364  0.26129  0.33525  1.0000
  C   C1000     1.0  0.98755  0.02064  0.16582  1.0000
  C   C1001     1.0  0.97917  0.03782  0.20735  1.0000
  C   C1002     1.0  0.78998  0.17156  0.10966  1.0000
  H   H1591     1.0  0.93466  0.44271  0.45973  1.0000
  H   H1592     1.0  0.77573  0.31323  0.18160  1.0000
  N   N102      1.0  0.93793  0.35922  0.24735  1.0000
  C   C1003     1.0  0.95053  0.35685  0.22329  1.0000
  C   C1004     1.0  0.93481  0.37819  0.25239  1.0000
  C   C1005     1.0  0.94537  0.35078  0.27369  1.0000
  C   C1006     1.0  0.92104  0.35116  0.24019  1.0000
  H   H1593     1.0  0.95304  0.34268  0.21853  1.0000
  H   H1594     1.0  0.96348  0.36257  0.22839  1.0000
  H   H1595     1.0  0.94558  0.36348  0.20323  1.0000
  H   H1596     1.0  0.92923  0.38513  0.23306  1.0000
  H   H1597     1.0  0.92540  0.38045  0.27040  1.0000
  H   H1598     1.0  0.94722  0.38462  0.25818  1.0000
  H   H1599     1.0  0.93618  0.35235  0.29228  1.0000
  H   H1600     1.0  0.95805  0.35671  0.27983  1.0000
  H   H1601     1.0  0.94797  0.33643  0.27073  1.0000
  H   H1602     1.0  0.91121  0.35294  0.25788  1.0000
  H   H1603     1.0  0.92279  0.33677  0.23663  1.0000
  H   H1604     1.0  0.91506  0.35722  0.22042  1.0000
  S   S406      1.0  0.98597  0.40184  0.13296  1.0000
  H   H1605     1.0  0.99333  0.41219  0.40026  1.0000
  H   H1606     1.0  0.96524  0.08950  0.47823  1.0000
  H   H1607     1.0  0.87798  0.23166  0.41463  1.0000
  H   H1608     1.0  0.86396  0.24282  0.44008  1.0000
  H   H1609     1.0  0.97071  0.45784  0.39363  1.0000
  C   C1007     1.0  0.86339  0.20778  0.44923  1.0000
  H   H1610     1.0  0.97956  0.03170  0.44045  1.0000
  C   C1008     1.0  0.77870  0.25941  0.38649  1.0000
  H   H1611     1.0  0.79330  0.26324  0.14946  1.0000
  C   C1009     1.0  0.78350  0.30601  0.16496  1.0000
  C   C1010     1.0  0.92487  0.49771  0.37209  1.0000
  H   H1612     1.0  0.87473  0.23780  0.01193  1.0000
  H   H1613     1.0  0.80374  0.28669  0.20040  1.0000
  C   C1011     1.0  0.96042  0.44862  0.40068  1.0000
  H   H1614     1.0  0.94050  0.47462  0.45100  1.0000
  C   C1012     1.0  0.97964  0.08946  0.43790  1.0000
  C   C1013     1.0  0.75919  0.31415  0.23647  1.0000
  C   C1014     1.0  0.76460  0.19503  0.00990  1.0000
  C   C1015     1.0  0.97810  0.08870  0.46816  1.0000
  C   C1016     1.0  0.97172  0.40527  0.18719  1.0000
  H   H1615     1.0  0.96106  0.41252  0.17647  1.0000
  H   H1616     1.0  0.88900  0.20954  0.02796  1.0000
  H   H1617     1.0  0.85023  0.21436  0.45215  1.0000
  H   H1618     1.0  0.94644  0.42623  0.43934  1.0000
  H   H1619     1.0  0.76202  0.19930  0.07265  1.0000
  S   S407      1.0  0.78206  0.16857  0.49476  1.0000
  H   H1620     1.0  0.81528  0.11503  0.46240  1.0000
  H   H1621     1.0  0.96648  0.09108  0.22621  1.0000
  H   H1622     1.0  0.94975  0.44958  0.38432  1.0000
  S   S408      1.0  0.82674  0.24420  0.46658  1.0000
  H   H1623     1.0  0.76142  0.14288  0.46970  1.0000
  H   H1624     1.0  0.78714  0.29565  0.34580  1.0000
  H   H1625     1.0  0.77112  0.32120  0.23255  1.0000
  N   N103      1.0  0.78279  0.28677  0.16938  1.0000
  H   H1626     1.0  0.97387  0.49453  0.34906  1.0000
  C   C1017     1.0  0.75928  0.16932  0.48560  1.0000
  H   H1627     1.0  0.78570  0.19836  0.07105  1.0000
  H   H1628     1.0  0.99951  0.44814  0.22240  1.0000
  C   C1018     1.0  0.89483  0.21028  0.45371  1.0000
  H   H1629     1.0  0.83736  0.15781  0.46455  1.0000
  H   H1630     1.0  0.80232  0.17442  0.09778  1.0000
  H   H1631     1.0  0.97851  0.46173  0.44458  1.0000
  H   H1632     1.0  0.97526  0.03361  0.38732  1.0000
  H   H1633     1.0  0.96164  0.12962  0.00631  1.0000
  H   H1634     1.0  0.86436  0.20368  0.42635  1.0000
  C   C1019     1.0  0.75806  0.30321  0.26080  1.0000
  N   N104      1.0  0.77719  0.27100  0.36074  1.0000
  H   H1635     1.0  0.86246  0.23263  0.49009  1.0000
  H   H1636     1.0  0.84776  0.11884  0.46555  1.0000
  H   H1637     1.0  0.94818  0.02202  0.20090  1.0000
  S   S409      1.0  0.99187  0.09005  0.02235  1.0000
  H   H1638     1.0  0.96526  0.39214  0.47332  1.0000
  H   H1639     1.0  0.77532  0.15134  0.07024  1.0000
  H   H1640     1.0  0.99429  0.01031  0.17940  1.0000
  H   H1641     1.0  0.88740  0.24454  0.44260  1.0000
  H   H1642     1.0  0.96570  0.00557  0.20394  1.0000
  H   H1643     1.0  0.77620  0.24916  0.33177  1.0000
  H   H1644     1.0  0.78616  0.16878  0.05172  1.0000
  C   C1020     1.0  0.77458  0.16572  0.06547  1.0000
  C   C1021     1.0  0.96402  0.04259  0.16216  1.0000
  H   H1645     1.0  0.91032  0.21886  0.02528  1.0000
  C   C1022     1.0  0.75857  0.27668  0.35623  1.0000
  H   H1646     1.0  0.95456  0.00917  0.17025  1.0000
  H   H1647     1.0  0.75321  0.28401  0.37507  1.0000
  H   H1648     1.0  0.78342  0.29432  0.38393  1.0000
  C   C1023     1.0  0.96017  0.49535  0.35556  1.0000
  C   C1024     1.0  0.87675  0.23534  0.43770  1.0000
  H   H1649     1.0  0.99389  0.03705  0.36419  1.0000
  H   H1650     1.0  0.76254  0.16839  0.05223  1.0000
  C   C1025     1.0  0.88623  0.23976  0.99744  1.0000
  H   H1651     1.0  0.75715  0.28557  0.33701  1.0000
  H   H1652     1.0  0.75738  0.18007  0.12889  1.0000
  H   H1653     1.0  0.77075  0.24748  0.38419  1.0000
  H   H1654     1.0  0.93409  0.10354  0.02250  1.0000
  C   C1026     1.0  0.99229  0.40992  0.42324  1.0000
  C   C1027     1.0  0.99383  0.08479  0.23572  1.0000
  H   H1655     1.0  0.85618  0.13539  0.48859  1.0000
  H   H1656     1.0  0.99753  0.03037  0.15937  1.0000
  Fe  Fe208     1.0  0.81318  0.18710  0.00901  1.0000
  C   C1028     1.0  0.99324  0.08754  0.48531  1.0000
  S   S410      1.0  0.99750  0.08971  0.38634  1.0000
  C   C1029     1.0  0.99759  0.08074  0.17594  1.0000
  C   C1030     1.0  0.99901  0.38647  0.21500  1.0000
  H   H1657     1.0  0.99074  0.00726  0.40934  1.0000
  C   C1031     1.0  0.94196  0.10138  0.00260  1.0000
  H   H1658     1.0  0.99025  0.05239  0.43963  1.0000
  C   C1032     1.0  0.99249  0.03791  0.43735  1.0000
  H   H1659     1.0  0.75011  0.26525  0.35260  1.0000
  H   H1660     1.0  0.88588  0.23397  0.49393  1.0000
  C   C1033     1.0  0.99965  0.38915  0.18493  1.0000
  Fe  Fe209     1.0  0.84070  0.18843  0.52441  1.0000
  S   S411      1.0  0.83962  0.21723  0.53585  1.0000
  H   H1661     1.0  0.90721  0.01579  0.55756  1.0000
  C   C1034     1.0  0.97503  0.44628  0.74963  1.0000
  S   S412      1.0  0.79684  0.21745  0.52214  1.0000
  H   H1662     1.0  0.91095  0.04192  0.58733  1.0000
  S   S413      1.0  0.99121  0.07459  0.88789  1.0000
  S   S414      1.0  0.84217  0.24184  0.97307  1.0000
  Fe  Fe210     1.0  0.81476  0.21147  0.56017  1.0000
  S   S415      1.0  0.80608  0.22023  0.60510  1.0000
  H   H1663     1.0  0.80039  0.22606  0.66523  1.0000
  S   S416      1.0  0.81702  0.18230  0.55148  1.0000
  Fe  Fe211     1.0  0.80727  0.29391  0.77470  1.0000
  S   S417      1.0  0.81179  0.26514  0.76627  1.0000
  S   S418      1.0  0.78034  0.30758  0.76795  1.0000
  Fe  Fe212     1.0  0.84667  0.30000  0.78755  1.0000
  S   S419      1.0  0.85320  0.27119  0.78033  1.0000
  S   S420      1.0  0.87244  0.31453  0.79524  1.0000
  Fe  Fe213     1.0  0.83563  0.27343  0.74148  1.0000
  S   S421      1.0  0.84571  0.26685  0.69641  1.0000
  Fe  Fe214     1.0  0.82893  0.26560  0.80611  1.0000
  S   S422      1.0  0.82814  0.24232  0.83762  1.0000
  S   S423      1.0  0.83017  0.30236  0.74738  1.0000
  S   S424      1.0  0.82321  0.29413  0.81599  1.0000
  Fe  Fe215     1.0  0.92883  0.08979  0.56741  1.0000
  S   S425      1.0  0.95342  0.10405  0.57900  1.0000
  S   S426      1.0  0.90006  0.09919  0.55985  1.0000
  Fe  Fe216     1.0  0.94735  0.05336  0.57616  1.0000
  S   S427      1.0  0.97304  0.06481  0.58856  1.0000
  S   S428      1.0  0.94537  0.02396  0.56925  1.0000
  Fe  Fe217     1.0  0.95694  0.08395  0.61492  1.0000
  S   S429      1.0  0.96052  0.09070  0.66218  1.0000
  Fe  Fe218     1.0  0.96790  0.08377  0.55149  1.0000
  H   H1664     1.0  0.99524  0.07432  0.65128  1.0000
  S   S430      1.0  0.93150  0.07097  0.60526  1.0000
  S   S431      1.0  0.94317  0.07103  0.53738  1.0000
  Fe  Fe219     1.0  0.96757  0.40467  0.80022  1.0000
  S   S432      1.0  0.94344  0.42040  0.78639  1.0000
  C   C1035     1.0  0.98959  0.47133  0.72948  1.0000
  Fe  Fe220     1.0  0.95670  0.40538  0.86429  1.0000
  S   S433      1.0  0.93212  0.42157  0.85416  1.0000
  S   S434      1.0  0.95862  0.39752  0.91175  1.0000
  Fe  Fe221     1.0  0.92880  0.40279  0.81731  1.0000
  S   S435      1.0  0.90108  0.39238  0.81023  1.0000
  Fe  Fe222     1.0  0.94908  0.43736  0.82460  1.0000
  S   S436      1.0  0.95431  0.46661  0.81997  1.0000
  S   S437      1.0  0.95271  0.38592  0.82879  1.0000
  S   S438      1.0  0.97388  0.42232  0.83713  1.0000
  C   C1036     1.0  0.94666  0.48357  0.84312  1.0000
  C   C1037     1.0  0.93153  0.48197  0.86007  1.0000
  H   H1665     1.0  0.96629  0.43700  0.95387  1.0000
  H   H1666     1.0  0.92427  0.46997  0.85955  1.0000
  H   H1667     1.0  0.86899  0.21078  0.98572  1.0000
  C   C1038     1.0  0.95750  0.47785  0.92556  1.0000
  S   S439      1.0  0.86735  0.17390  0.51710  1.0000
  H   H1668     1.0  0.81211  0.15037  0.51602  1.0000
  H   H1669     1.0  0.96491  0.09343  0.72316  1.0000
  H   H1670     1.0  0.79174  0.28911  0.71696  1.0000
  H   H1671     1.0  0.96442  0.05274  0.65459  1.0000
  C   C1039     1.0  0.97652  0.40208  0.93473  1.0000
  H   H1672     1.0  0.79723  0.23637  0.90087  1.0000
  H   H1673     1.0  0.90144  0.15692  0.50953  1.0000
  H   H1674     1.0  0.78746  0.21274  0.96900  1.0000
  C   C1040     1.0  0.97677  0.08705  0.71473  1.0000
  H   H1675     1.0  0.88476  0.01464  0.56933  1.0000
  H   H1676     1.0  0.83522  0.15438  0.51700  1.0000
  H   H1677     1.0  0.88574  0.20006  0.96459  1.0000
  H   H1678     1.0  0.84692  0.11613  0.50412  1.0000
  C   C1041     1.0  0.97849  0.07540  0.97288  1.0000
  H   H1679     1.0  0.96143  0.48564  0.94450  1.0000
  C   C1042     1.0  0.78961  0.20282  0.91425  1.0000
  C   C1043     1.0  0.97843  0.07246  0.94302  1.0000
  C   C1044     1.0  0.97834  0.08431  0.68494  1.0000
  H   H1680     1.0  0.80541  0.27363  0.64455  1.0000
  C   C1045     1.0  0.97403  0.03292  0.70035  1.0000
  H   H1681     1.0  0.98984  0.46827  0.94518  1.0000
  H   H1682     1.0  0.96567  0.43647  0.90083  1.0000
  H   H1683     1.0  0.98371  0.02464  0.71293  1.0000
  H   H1684     1.0  0.96409  0.45751  0.97237  1.0000
  C   C1046     1.0  0.93085  0.01216  0.62050  1.0000
  H   H1685     1.0  0.95111  0.12502  0.94216  1.0000
  H   H1686     1.0  0.92638  0.02558  0.62416  1.0000
  C   C1047     1.0  0.87995  0.33640  0.79881  1.0000
  C   C1048     1.0  0.86851  0.35122  0.79884  1.0000
  C   C1049     1.0  0.87525  0.36822  0.80185  1.0000
  C   C1050     1.0  0.89349  0.37069  0.80466  1.0000
  C   C1051     1.0  0.90494  0.35586  0.80426  1.0000
  C   C1052     1.0  0.89819  0.33888  0.80149  1.0000
  H   H1687     1.0  0.85446  0.34961  0.79679  1.0000
  H   H1688     1.0  0.86623  0.37954  0.80215  1.0000
  H   H1689     1.0  0.91899  0.35746  0.80609  1.0000
  H   H1690     1.0  0.90719  0.32755  0.80139  1.0000
  H   H1691     1.0  0.91698  0.10942  0.96340  1.0000
  H   H1692     1.0  0.76080  0.29450  0.65519  1.0000
  H   H1693     1.0  0.77329  0.27098  0.75374  1.0000
  C   C1053     1.0  0.87669  0.15378  0.53160  1.0000
  C   C1054     1.0  0.89391  0.14846  0.52343  1.0000
  C   C1055     1.0  0.90155  0.13220  0.53293  1.0000
  C   C1056     1.0  0.89191  0.12080  0.55027  1.0000
  C   C1057     1.0  0.87468  0.12613  0.55851  1.0000
  C   C1058     1.0  0.86725  0.14263  0.54974  1.0000
  N   N105      1.0  0.89400  0.22277  0.98765  1.0000
  H   H1694     1.0  0.91476  0.12830  0.52621  1.0000
  H   H1695     1.0  0.86713  0.11752  0.57212  1.0000
  H   H1696     1.0  0.85425  0.14668  0.55711  1.0000
  S   S440      1.0  0.79098  0.17392  0.98613  1.0000
  H   H1697     1.0  0.79084  0.31414  0.68327  1.0000
  H   H1698     1.0  0.78513  0.28020  0.62700  1.0000
  C   C1059     1.0  0.99026  0.08135  0.73380  1.0000
  H   H1699     1.0  0.96808  0.06493  0.93368  1.0000
  C   C1060     1.0  0.83853  0.24182  0.93532  1.0000
  C   C1061     1.0  0.83575  0.22622  0.92061  1.0000
  C   C1062     1.0  0.83292  0.22663  0.89064  1.0000
  C   C1063     1.0  0.83273  0.24261  0.87503  1.0000
  C   C1064     1.0  0.83566  0.25820  0.88969  1.0000
  C   C1065     1.0  0.83863  0.25777  0.91968  1.0000
  H   H1700     1.0  0.83586  0.21382  0.93223  1.0000
  H   H1701     1.0  0.83081  0.21450  0.87941  1.0000
  H   H1702     1.0  0.83553  0.27058  0.87794  1.0000
  H   H1703     1.0  0.84082  0.26991  0.93083  1.0000
  C   C1066     1.0  0.81806  0.23234  0.63048  1.0000
  C   C1067     1.0  0.83301  0.24161  0.62277  1.0000
  C   C1068     1.0  0.84148  0.25189  0.64333  1.0000
  C   C1069     1.0  0.83517  0.25295  0.67178  1.0000
  C   C1070     1.0  0.82041  0.24345  0.67961  1.0000
  C   C1071     1.0  0.81185  0.23330  0.65901  1.0000
  H   H1704     1.0  0.83791  0.24100  0.60091  1.0000
  H   H1705     1.0  0.85294  0.25910  0.63706  1.0000
  H   H1706     1.0  0.81560  0.24386  0.70154  1.0000
  H   H1707     1.0  0.90376  0.06216  0.53213  1.0000
  N   N106      1.0  0.90766  0.37197  0.89566  1.0000
  C   C1072     1.0  0.92223  0.36658  0.87623  1.0000
  C   C1073     1.0  0.91158  0.36536  0.92510  1.0000
  C   C1074     1.0  0.89104  0.36462  0.88538  1.0000
  C   C1075     1.0  0.90587  0.39138  0.89585  1.0000
  H   H1708     1.0  0.91991  0.37178  0.85406  1.0000
  H   H1709     1.0  0.92371  0.35201  0.87480  1.0000
  H   H1710     1.0  0.93505  0.37162  0.88366  1.0000
  H   H1711     1.0  0.91305  0.35074  0.92568  1.0000
  H   H1712     1.0  0.92410  0.37071  0.93329  1.0000
  H   H1713     1.0  0.90090  0.36924  0.94044  1.0000
  H   H1714     1.0  0.87980  0.36806  0.89989  1.0000
  H   H1715     1.0  0.89207  0.35002  0.88383  1.0000
  H   H1716     1.0  0.88751  0.36983  0.86355  1.0000
  H   H1717     1.0  0.89503  0.39598  0.91034  1.0000
  H   H1718     1.0  0.90286  0.39678  0.87389  1.0000
  H   H1719     1.0  0.91827  0.39736  0.90320  1.0000
  H   H1720     1.0  0.97829  0.04675  0.70153  1.0000
  H   H1721     1.0  0.98876  0.08331  0.75673  1.0000
  C   C1076     1.0  0.76160  0.27903  0.74922  1.0000
  H   H1722     1.0  0.80843  0.30388  0.66290  1.0000
  C   C1077     1.0  0.76128  0.29698  0.75560  1.0000
  H   H1723     1.0  0.98559  0.46794  0.70721  1.0000
  C   C1078     1.0  0.79383  0.30481  0.66542  1.0000
  H   H1724     1.0  0.76138  0.27626  0.68015  1.0000
  C   C1079     1.0  0.89715  0.04622  0.58223  1.0000
  C   C1080     1.0  0.76726  0.28916  0.67506  1.0000
  H   H1725     1.0  0.96331  0.39260  0.97277  1.0000
  H   H1726     1.0  0.96299  0.40713  0.72867  1.0000
  S   S441      1.0  0.99068  0.39773  0.77058  1.0000
  N   N107      1.0  0.89206  0.04012  0.55347  1.0000
  C   C1081     1.0  0.92679  0.99888  0.64057  1.0000
  H   H1727     1.0  0.88982  0.01555  0.53145  1.0000
  H   H1728     1.0  0.78205  0.23561  0.96223  1.0000
  H   H1729     1.0  0.94683  0.03860  0.66384  1.0000
  H   H1730     1.0  0.96606  0.11141  0.96326  1.0000
  H   H1731     1.0  0.99173  0.44784  0.92639  1.0000
  C   C1082     1.0  0.89347  0.02067  0.55289  1.0000
  C   C1083     1.0  0.76885  0.18081  0.99212  1.0000
  C   C1084     1.0  0.96011  0.45021  0.90064  1.0000
  C   C1085     1.0  0.97614  0.40851  0.68735  1.0000
  H   H1732     1.0  0.96422  0.41227  0.67575  1.0000
  C   C1086     1.0  0.79449  0.28021  0.69855  1.0000
  S   S442      1.0  0.99217  0.08764  0.52348  1.0000
  C   C1087     1.0  0.78305  0.23360  0.90418  1.0000
  H   H1733     1.0  0.88125  0.24800  0.97896  1.0000
  N   N108      1.0  0.97284  0.02707  0.67020  1.0000
  H   H1734     1.0  0.95929  0.03504  0.63129  1.0000
  H   H1735     1.0  0.91519  0.21343  0.96056  1.0000
  H   H1736     1.0  0.78928  0.26711  0.70427  1.0000
  H   H1737     1.0  0.99537  0.04126  0.65615  1.0000
  C   C1088     1.0  0.96669  0.00883  0.66970  1.0000
  H   H1738     1.0  0.77640  0.24601  0.91158  1.0000
  H   H1739     1.0  0.93679  0.08958  0.99196  1.0000
  C   C1089     1.0  0.94053  0.00793  0.59573  1.0000
  H   H1740     1.0  0.98985  0.02336  0.63354  1.0000
  C   C1090     1.0  0.99037  0.02769  0.65635  1.0000
  H   H1741     1.0  0.94766  0.10182  0.94598  1.0000
  H   H1742     1.0  0.98976  0.46820  0.90645  1.0000
  C   C1091     1.0  0.99186  0.40959  0.92425  1.0000
  H   H1743     1.0  0.97649  0.43399  0.76278  1.0000
  H   H1744     1.0  0.96138  0.48530  0.90587  1.0000
  C   C1092     1.0  0.96028  0.03884  0.65429  1.0000
  N   N109      1.0  0.88377  0.30695  0.70814  1.0000
  C   C1093     1.0  0.88175  0.29264  0.72955  1.0000
  C   C1094     1.0  0.88117  0.32413  0.72241  1.0000
  C   C1095     1.0  0.87047  0.30531  0.68520  1.0000
  C   C1096     1.0  0.90165  0.30566  0.69553  1.0000
  H   H1745     1.0  0.88324  0.27941  0.71963  1.0000
  H   H1746     1.0  0.86847  0.29344  0.73950  1.0000
  H   H1747     1.0  0.89145  0.29341  0.74743  1.0000
  H   H1748     1.0  0.88245  0.33532  0.70698  1.0000
  H   H1749     1.0  0.86789  0.32539  0.73263  1.0000
  H   H1750     1.0  0.89097  0.32575  0.73992  1.0000
  H   H1751     1.0  0.87148  0.31591  0.66863  1.0000
  H   H1752     1.0  0.85685  0.30599  0.69419  1.0000
  H   H1753     1.0  0.87198  0.29241  0.67418  1.0000
  H   H1754     1.0  0.90365  0.31628  0.67925  1.0000
  H   H1755     1.0  0.90401  0.29280  0.68472  1.0000
  H   H1756     1.0  0.91195  0.30681  0.71240  1.0000
  H   H1757     1.0  0.96450  0.45666  0.88033  1.0000
  C   C1097     1.0  0.95191  0.11370  0.95756  1.0000
  H   H1758     1.0  0.92116  0.13256  0.96076  1.0000
  H   H1759     1.0  0.96105  0.03241  0.71147  1.0000
  H   H1760     1.0  0.94551  0.44946  0.89961  1.0000
  C   C1098     1.0  0.99375  0.07618  0.67423  1.0000
  H   H1761     1.0  0.78416  0.19901  0.89308  1.0000
  C   C1099     1.0  0.92248  0.12072  0.97500  1.0000
  H   H1762     1.0  0.96830  0.07006  0.98633  1.0000
  H   H1763     1.0  0.75839  0.16050  0.96578  1.0000
  H   H1764     1.0  0.95347  0.00781  0.67990  1.0000
  H   H1765     1.0  0.97028  0.44252  0.72797  1.0000
  H   H1766     1.0  0.80289  0.22632  0.95075  1.0000
  H   H1767     1.0  0.77752  0.23048  0.88272  1.0000
  C   C1100     1.0  0.76175  0.21601  0.92916  1.0000
  N   N110      1.0  0.78075  0.21903  0.92513  1.0000
  C   C1101     1.0  0.99069  0.40059  0.73255  1.0000
  H   H1768     1.0  0.97586  0.99957  0.68147  1.0000
  C   C1102     1.0  0.75522  0.17149  0.97966  1.0000
  H   H1769     1.0  0.98897  0.40168  0.50592  1.0000
  C   C1103     1.0  0.97541  0.40560  0.71736  1.0000
  C   C1104     1.0  0.90909  0.22601  0.96838  1.0000
  C   C1105     1.0  0.79089  0.27530  0.64771  1.0000
  H   H1770     1.0  0.82696  0.13465  0.53293  1.0000
  C   C1106     1.0  0.90398  0.04748  0.53155  1.0000
  H   H1771     1.0  0.76358  0.29820  0.69297  1.0000
  C   C1107     1.0  0.96017  0.45051  0.95259  1.0000
  C   C1108     1.0  0.88057  0.21314  0.97183  1.0000
  C   C1109     1.0  0.99180  0.07894  0.92522  1.0000
  H   H1772     1.0  0.75955  0.20507  0.94480  1.0000
  N   N111      1.0  0.78660  0.28736  0.67164  1.0000
  H   H1773     1.0  0.88857  0.04086  0.59946  1.0000
  H   H1774     1.0  0.91786  0.04275  0.53518  1.0000
  N   N112      1.0  0.96572  0.45993  0.92622  1.0000
  C   C1110     1.0  0.78862  0.22365  0.95300  1.0000
  C   C1111     1.0  0.97512  0.39840  0.96441  1.0000
  H   H1775     1.0  0.94284  0.47749  0.92561  1.0000
  N   N113      1.0  0.99190  0.45537  0.74777  1.0000
  C   C1112     1.0  0.99739  0.46034  0.77700  1.0000
  H   H1776     1.0  0.75462  0.22792  0.93757  1.0000
  H   H1777     1.0  0.96452  0.45467  0.75984  1.0000
  N   N114      1.0  0.94102  0.11703  0.98349  1.0000
  H   H1778     1.0  0.87245  0.06085  0.54763  1.0000
  H   H1779     1.0  0.98744  0.46944  0.78715  1.0000
  H   H1780     1.0  0.90489  0.23396  0.94912  1.0000
  H   H1781     1.0  0.87563  0.22073  0.95263  1.0000
  C   C1113     1.0  0.87374  0.04619  0.54730  1.0000
  C   C1114     1.0  0.98512  0.46113  0.92604  1.0000
  H   H1782     1.0  0.78579  0.26194  0.65193  1.0000
  H   H1783     1.0  0.94561  0.44915  0.95326  1.0000
  H   H1784     1.0  0.86942  0.04184  0.52573  1.0000
  S   S443      1.0  0.83868  0.19063  0.98527  1.0000
  C   C1115     1.0  0.99166  0.08534  0.98513  1.0000
  C   C1116     1.0  0.99212  0.40647  0.67216  1.0000
  H   H1785     1.0  0.80906  0.27864  0.69674  1.0000
  Fe  Fe223     1.0  0.80071  0.18879  0.51193  1.0000
  H   H1786     1.0  0.78800  0.19152  0.92946  1.0000
  C   C1117     1.0  0.98887  0.40227  0.98348  1.0000
  H   H1787     1.0  0.78817  0.31070  0.64527  1.0000
  H   H1788     1.0  0.89628  0.06087  0.58346  1.0000
  H   H1789     1.0  0.99320  0.41235  0.90145  1.0000
  S   S444      1.0  0.99225  0.41038  0.63438  1.0000
  H   H1790     1.0  0.99886  0.44856  0.79143  1.0000
  H   H1791     1.0  0.97925  0.48049  0.73835  1.0000
  H   H1792     1.0  0.80400  0.20452  0.91137  1.0000
  H   H1793     1.0  0.86441  0.04099  0.56359  1.0000
  H   H1794     1.0  0.90031  0.04358  0.50943  1.0000
  C   C1118     1.0  0.82545  0.14396  0.51436  1.0000
  H   H1795     1.0  0.75534  0.21251  0.90856  1.0000
  H   H1796     1.0  0.91949  0.23329  0.97959  1.0000
  H   H1797     1.0  0.91920  0.00218  0.65962  1.0000
  H   H1798     1.0  0.75260  0.19565  0.49963  1.0000
  H   H1799     1.0  0.91334  0.49510  0.88923  1.0000
  H   H1800     1.0  0.94755  0.14430  0.98521  1.0000
  C   C1119     1.0  0.92534  0.49624  0.87681  1.0000
  H   H1801     1.0  0.81422  0.11217  0.50092  1.0000
  H   H1802     1.0  0.91391  0.12311  0.99416  1.0000
  H   H1803     1.0  0.99842  0.04096  0.92970  1.0000
  H   H1804     1.0  0.96560  0.00398  0.64726  1.0000
  H   H1805     1.0  0.87534  0.21366  0.50216  1.0000
  Fe  Fe224     1.0  0.82196  0.22109  0.49707  1.0000
  Fe  Fe225     1.0  0.96363  0.89817  0.13313  1.0000
  S   S445      1.0  0.93629  0.90719  0.11988  1.0000
  H   H1806     1.0  0.98869  0.89313  0.33845  1.0000
  Fe  Fe226     1.0  0.95443  0.89845  0.19748  1.0000
  S   S446      1.0  0.92671  0.90827  0.18825  1.0000
  S   S447      1.0  0.96040  0.88952  0.24375  1.0000
  Fe  Fe227     1.0  0.92653  0.88799  0.15349  1.0000
  S   S448      1.0  0.90049  0.87380  0.14740  1.0000
  Fe  Fe228     1.0  0.93860  0.92660  0.15570  1.0000
  S   S449      1.0  0.92750  0.95468  0.15001  1.0000
  S   S450      1.0  0.95387  0.87727  0.16384  1.0000
  S   S451      1.0  0.96633  0.91849  0.16779  1.0000
  Fe  Fe229     1.0  0.95877  0.58432  0.36391  1.0000
  S   S452      1.0  0.93014  0.58001  0.37376  1.0000
  S   S453      1.0  0.96478  0.59362  0.31815  1.0000
  Fe  Fe230     1.0  0.96961  0.57706  0.42700  1.0000
  S   S454      1.0  0.94189  0.57199  0.44084  1.0000
  C   C1120     1.0  0.86736  0.64731  0.04607  1.0000
  Fe  Fe231     1.0  0.94063  0.55656  0.39954  1.0000
  S   S455      1.0  0.92706  0.53035  0.39634  1.0000
  Fe  Fe232     1.0  0.93384  0.59585  0.41381  1.0000
  S   S456      1.0  0.91938  0.62024  0.43245  1.0000
  S   S457      1.0  0.96899  0.56003  0.38743  1.0000
  S   S458      1.0  0.96190  0.60167  0.40216  1.0000
  Fe  Fe233     1.0  0.84232  0.79161  0.20573  1.0000
  S   S459      1.0  0.84058  0.76301  0.19356  1.0000
  S   S460      1.0  0.86990  0.80288  0.20078  1.0000
  Fe  Fe234     1.0  0.80270  0.79388  0.22137  1.0000
  S   S461      1.0  0.79833  0.76615  0.20879  1.0000
  S   S462      1.0  0.78173  0.81203  0.24111  1.0000
  Fe  Fe235     1.0  0.82353  0.76012  0.23309  1.0000
  S   S463      1.0  0.82245  0.73652  0.26360  1.0000
  Fe  Fe236     1.0  0.81573  0.77165  0.17056  1.0000
  S   S464      1.0  0.80820  0.76675  0.12391  1.0000
  S   S465      1.0  0.82729  0.78780  0.24733  1.0000
  S   S466      1.0  0.81807  0.80031  0.18124  1.0000
  Fe  Fe237     1.0  0.83047  0.68011  0.44776  1.0000
  S   S467      1.0  0.84755  0.70267  0.45827  1.0000
  S   S468      1.0  0.84068  0.65347  0.43094  1.0000
  Fe  Fe238     1.0  0.79616  0.70243  0.45732  1.0000
  S   S469      1.0  0.81126  0.72650  0.46767  1.0000
  H   H1807     1.0  0.86050  0.63643  0.05718  1.0000
  Fe  Fe239     1.0  0.82866  0.71881  0.43035  1.0000
  S   S470      1.0  0.83862  0.73884  0.39791  1.0000
  H   H1808     1.0  0.97561  0.94920  0.03265  1.0000
  S   S471      1.0  0.84039  0.71236  0.03272  1.0000
  S   S472      1.0  0.81246  0.69608  0.41795  1.0000
  C   C1121     1.0  0.94523  0.54871  0.31976  1.0000
  H   H1809     1.0  0.83934  0.63650  0.01630  1.0000
  C   C1122     1.0  0.97451  0.88740  0.01994  1.0000
  H   H1810     1.0  0.96969  0.60646  0.47527  1.0000
  C   C1123     1.0  0.99917  0.95811  0.48041  1.0000
  C   C1124     1.0  0.98518  0.91328  0.26110  1.0000
  C   C1125     1.0  0.98921  0.89336  0.00465  1.0000
  S   S473      1.0  0.98793  0.57762  0.09438  1.0000
  C   C1126     1.0  0.82672  0.73774  0.30092  1.0000
  C   C1127     1.0  0.81937  0.72531  0.31966  1.0000
  C   C1128     1.0  0.82260  0.72573  0.34947  1.0000
  C   C1129     1.0  0.83363  0.73829  0.36074  1.0000
  C   C1130     1.0  0.84101  0.75071  0.34199  1.0000
  C   C1131     1.0  0.83745  0.75055  0.31223  1.0000
  H   H1811     1.0  0.81102  0.71539  0.31106  1.0000
  H   H1812     1.0  0.81659  0.71631  0.36369  1.0000
  H   H1813     1.0  0.84956  0.76048  0.35053  1.0000
  H   H1814     1.0  0.84330  0.76011  0.29798  1.0000
  C   C1132     1.0  0.81714  0.75104  0.09948  1.0000
  C   C1133     1.0  0.83132  0.73960  0.10668  1.0000
  C   C1134     1.0  0.83834  0.72783  0.08602  1.0000
  C   C1135     1.0  0.83116  0.72729  0.05814  1.0000
  C   C1136     1.0  0.81695  0.73868  0.05105  1.0000
  C   C1137     1.0  0.81005  0.75053  0.07158  1.0000
  H   H1815     1.0  0.83683  0.73973  0.12813  1.0000
  H   H1816     1.0  0.84931  0.71904  0.09173  1.0000
  H   H1817     1.0  0.81130  0.73843  0.02970  1.0000
  H   H1818     1.0  0.79910  0.75934  0.06578  1.0000
  C   C1138     1.0  0.89739  0.62922  0.43117  1.0000
  C   C1139     1.0  0.88354  0.62049  0.41840  1.0000
  C   C1140     1.0  0.86628  0.62804  0.41871  1.0000
  C   C1141     1.0  0.86263  0.64441  0.43168  1.0000
  C   C1142     1.0  0.87652  0.65325  0.44410  1.0000
  C   C1143     1.0  0.89376  0.64567  0.44390  1.0000
  H   H1819     1.0  0.88608  0.60783  0.40856  1.0000
  H   H1820     1.0  0.85565  0.62109  0.40898  1.0000
  H   H1821     1.0  0.87398  0.66584  0.45415  1.0000
  H   H1822     1.0  0.90434  0.65259  0.45380  1.0000
  C   C1144     1.0  0.93646  0.93201  0.05196  1.0000
  H   H1823     1.0  0.96847  0.52079  0.27614  1.0000
  H   H1824     1.0  0.92119  0.53013  0.29259  1.0000
  H   H1825     1.0  0.93602  0.96449  0.07408  1.0000
  C   C1145     1.0  0.94669  0.54929  0.26791  1.0000
  H   H1826     1.0  0.93576  0.51530  0.31216  1.0000
  C   C1146     1.0  0.98068  0.58420  0.29449  1.0000
  H   H1827     1.0  0.94529  0.54055  0.33976  1.0000
  H   H1828     1.0  0.80641  0.76491  0.33798  1.0000
  H   H1829     1.0  0.95640  0.97117  0.05856  1.0000
  C   C1147     1.0  0.97325  0.57552  0.04043  1.0000
  H   H1830     1.0  0.93052  0.63609  0.48572  1.0000
  H   H1831     1.0  0.96862  0.88054  0.30242  1.0000
  H   H1832     1.0  0.95566  0.55848  0.32209  1.0000
  N   N115      1.0  0.94817  0.53789  0.29388  1.0000
  C   C1148     1.0  0.93480  0.52420  0.29293  1.0000
  H   H1833     1.0  0.75886  0.76345  0.31759  1.0000
  H   H1834     1.0  0.97242  0.94736  0.08571  1.0000
  C   C1149     1.0  0.89222  0.85380  0.16170  1.0000
  C   C1150     1.0  0.90334  0.83969  0.17038  1.0000
  C   C1151     1.0  0.89624  0.82428  0.18225  1.0000
  C   C1152     1.0  0.87790  0.82260  0.18518  1.0000
  C   C1153     1.0  0.86672  0.83651  0.17582  1.0000
  C   C1154     1.0  0.87386  0.85197  0.16408  1.0000
  H   H1835     1.0  0.91745  0.84057  0.16770  1.0000
  H   H1836     1.0  0.90502  0.81353  0.18906  1.0000
  H   H1837     1.0  0.85260  0.83549  0.17798  1.0000
  H   H1838     1.0  0.86508  0.86271  0.15715  1.0000
  C   C1155     1.0  0.93839  0.97298  0.13520  1.0000
  C   C1156     1.0  0.95646  0.97233  0.12926  1.0000
  Fe  Fe240     1.0  0.82836  0.70825  0.49451  1.0000
  H   H1839     1.0  0.78383  0.75501  0.28559  1.0000
  H   H1840     1.0  0.96438  0.96080  0.13542  1.0000
  C   C1157     1.0  0.99290  0.58226  0.24575  1.0000
  C   C1158     1.0  0.97501  0.89892  0.26852  1.0000
  C   C1159     1.0  0.97643  0.89166  0.29649  1.0000
  H   H1841     1.0  0.92692  0.93377  0.07008  1.0000
  C   C1160     1.0  0.96427  0.98650  0.11488  1.0000
  H   H1842     1.0  0.97066  0.62997  0.47677  1.0000
  H   H1843     1.0  0.76031  0.78216  0.34074  1.0000
  C   C1161     1.0  0.98730  0.89620  0.06528  1.0000
  C   C1162     1.0  0.97346  0.88896  0.05011  1.0000
  H   H1844     1.0  0.78775  0.75113  0.33780  1.0000
  H   H1845     1.0  0.92921  0.93491  0.03158  1.0000
  H   H1846     1.0  0.87803  0.64123  0.03256  1.0000
  H   H1847     1.0  0.96228  0.88391  0.06171  1.0000
  S   S474      1.0  0.98759  0.89670  0.10337  1.0000
  H   H1848     1.0  0.85573  0.68095  0.00058  1.0000
  H   H1849     1.0  0.93340  0.55586  0.26624  1.0000
  N   N116      1.0  0.78374  0.77615  0.31613  1.0000
  H   H1850     1.0  0.99300  0.56684  0.32597  1.0000
  C   C1163     1.0  0.78847  0.76865  0.28783  1.0000
  H   H1851     1.0  0.87543  0.66715  0.00008  1.0000
  H   H1852     1.0  0.93828  0.96604  0.03564  1.0000
  H   H1853     1.0  0.83145  0.67442  0.03433  1.0000
  H   H1854     1.0  0.96778  0.52119  0.31475  1.0000
  C   C1164     1.0  0.95375  0.51013  0.37078  1.0000
  C   C1165     1.0  0.79040  0.79415  0.31787  1.0000
  H   H1855     1.0  0.87067  0.68134  0.03012  1.0000
  H   H1856     1.0  0.97138  0.59984  0.25821  1.0000
  S   S475      1.0  0.98624  0.90649  0.47449  1.0000
  N   N117      1.0  0.86035  0.68305  0.35960  1.0000
  C   C1166     1.0  0.86441  0.69565  0.33619  1.0000
  C   C1167     1.0  0.87316  0.66796  0.35905  1.0000
  C   C1168     1.0  0.84234  0.67665  0.35569  1.0000
  C   C1169     1.0  0.86146  0.69193  0.38761  1.0000
  H   H1857     1.0  0.86341  0.68952  0.31464  1.0000
  H   H1858     1.0  0.87795  0.70064  0.33837  1.0000
  H   H1859     1.0  0.85513  0.70731  0.33636  1.0000
  H   H1860     1.0  0.87286  0.66102  0.33812  1.0000
  H   H1861     1.0  0.88687  0.67221  0.36264  1.0000
  H   H1862     1.0  0.87024  0.65812  0.37625  1.0000
  H   H1863     1.0  0.83883  0.66718  0.37312  1.0000
  H   H1864     1.0  0.84100  0.66982  0.33481  1.0000
  H   H1865     1.0  0.83233  0.68766  0.35614  1.0000
  H   H1866     1.0  0.85875  0.68271  0.40575  1.0000
  H   H1867     1.0  0.85173  0.70316  0.38903  1.0000
  H   H1868     1.0  0.87475  0.69721  0.39122  1.0000
  H   H1869     1.0  0.93233  0.55611  0.31893  1.0000
  N   N118      1.0  0.85690  0.79298  0.10776  1.0000
  C   C1170     1.0  0.85876  0.77799  0.12820  1.0000
  C   C1171     1.0  0.85132  0.78650  0.07941  1.0000
  C   C1172     1.0  0.87398  0.80164  0.10500  1.0000
  C   C1173     1.0  0.84345  0.80574  0.11864  1.0000
  H   H1870     1.0  0.84598  0.77148  0.13132  1.0000
  H   H1871     1.0  0.86323  0.78233  0.14972  1.0000
  H   H1872     1.0  0.86847  0.76783  0.12045  1.0000
  H   H1873     1.0  0.84982  0.79743  0.06335  1.0000
  H   H1874     1.0  0.86099  0.77659  0.07071  1.0000
  H   H1875     1.0  0.83837  0.78003  0.08098  1.0000
  H   H1876     1.0  0.87307  0.81311  0.08988  1.0000
  H   H1877     1.0  0.88447  0.79237  0.09696  1.0000
  H   H1878     1.0  0.87843  0.80661  0.12619  1.0000
  H   H1879     1.0  0.84190  0.81742  0.10410  1.0000
  H   H1880     1.0  0.84704  0.81054  0.14035  1.0000
  H   H1881     1.0  0.83030  0.79969  0.12047  1.0000
  H   H1882     1.0  0.96404  0.88120  0.00845  1.0000
  C   C1174     1.0  0.76436  0.77677  0.31949  1.0000
  C   C1175     1.0  0.75148  0.82282  0.26750  1.0000
  H   H1883     1.0  0.93028  0.60372  0.48476  1.0000
  C   C1176     1.0  0.86470  0.67252  0.01415  1.0000
  H   H1884     1.0  0.93648  0.51584  0.27356  1.0000
  H   H1885     1.0  0.96252  0.52051  0.37614  1.0000
  H   H1886     1.0  0.94910  0.54167  0.24790  1.0000
  S   S476      1.0  0.76661  0.70874  0.45776  1.0000
  C   C1177     1.0  0.97352  0.57551  0.01006  1.0000
  H   H1887     1.0  0.98421  0.91899  0.23968  1.0000
  H   H1888     1.0  0.96892  0.92690  0.02977  1.0000
  H   H1889     1.0  0.75793  0.78533  0.30269  1.0000
  N   N119      1.0  0.85499  0.65831  0.02844  1.0000
  H   H1890     1.0  0.80300  0.76801  0.28465  1.0000
  H   H1891     1.0  0.75572  0.78365  0.23341  1.0000
  C   C1178     1.0  0.96155  0.61882  0.47723  1.0000
  H   H1892     1.0  0.87377  0.65523  0.06287  1.0000
  H   H1893     1.0  0.97639  0.53937  0.29500  1.0000
  H   H1894     1.0  0.78271  0.77675  0.26984  1.0000
  H   H1895     1.0  0.94078  0.91785  0.05182  1.0000
  H   H1896     1.0  0.99271  0.58651  0.22342  1.0000
  N   N120      1.0  0.95165  0.94350  0.05517  1.0000
  C   C1179     1.0  0.84686  0.64733  0.00639  1.0000
  C   C1180     1.0  0.79178  0.76504  0.33926  1.0000
  H   H1897     1.0  0.83355  0.65588  0.05854  1.0000
  S   S477      1.0  0.99327  0.57813  0.45711  1.0000
  H   H1898     1.0  0.75880  0.83441  0.27221  1.0000
  H   H1899     1.0  0.91450  0.98910  0.13304  1.0000
  C   C1181     1.0  0.96088  0.93899  0.08236  1.0000
  N   N121      1.0  0.91232  0.86526  0.24668  1.0000
  C   C1182     1.0  0.92111  0.85885  0.27336  1.0000
  C   C1183     1.0  0.92373  0.86102  0.22175  1.0000
  C   C1184     1.0  0.90925  0.88453  0.24813  1.0000
  C   C1185     1.0  0.89527  0.85666  0.24331  1.0000
  H   H1900     1.0  0.91289  0.86176  0.29269  1.0000
  H   H1901     1.0  0.93399  0.86525  0.27636  1.0000
  H   H1902     1.0  0.92381  0.84438  0.27283  1.0000
  H   H1903     1.0  0.93706  0.86631  0.22421  1.0000
  H   H1904     1.0  0.92551  0.84657  0.21894  1.0000
  H   H1905     1.0  0.91819  0.86683  0.20151  1.0000
  H   H1906     1.0  0.90241  0.88976  0.22845  1.0000
  H   H1907     1.0  0.92192  0.89145  0.24996  1.0000
  H   H1908     1.0  0.90098  0.88827  0.26701  1.0000
  H   H1909     1.0  0.88627  0.85952  0.26172  1.0000
  H   H1910     1.0  0.89705  0.84210  0.24180  1.0000
  H   H1911     1.0  0.88840  0.86129  0.22327  1.0000
  C   C1186     1.0  0.96598  0.52943  0.29499  1.0000
  H   H1912     1.0  0.78743  0.80013  0.33914  1.0000
  H   H1913     1.0  0.96124  0.57249  0.05175  1.0000
  C   C1187     1.0  0.92847  0.98841  0.12827  1.0000
  H   H1914     1.0  0.95193  0.94067  0.10121  1.0000
  C   C1188     1.0  0.93597  0.51153  0.37867  1.0000
  C   C1189     1.0  0.98081  0.58976  0.26550  1.0000
  C   C1190     1.0  0.99288  0.57115  0.30368  1.0000
  H   H1915     1.0  0.99886  0.52441  0.02438  1.0000
  C   C1191     1.0  0.94532  0.96210  0.05581  1.0000
  C   C1192     1.0  0.98848  0.57912  0.05621  1.0000
  H   H1916     1.0  0.97815  0.98564  0.10955  1.0000
  C   C1193     1.0  0.75948  0.80920  0.25171  1.0000
  H   H1917     1.0  0.95647  0.55990  0.26834  1.0000
  H   H1918     1.0  0.76264  0.67166  0.47344  1.0000
  H   H1919     1.0  0.78805  0.76990  0.36100  1.0000
  H   H1920     1.0  0.96579  0.92508  0.08270  1.0000
  C   C1194     1.0  0.98781  0.89875  0.31695  1.0000
  C   C1195     1.0  0.96393  0.94083  0.03075  1.0000
  C   C1196     1.0  0.99659  0.92033  0.28153  1.0000
  H   H1921     1.0  0.95743  0.94407  0.00980  1.0000
  H   H1922     1.0  0.80494  0.79421  0.31452  1.0000
  C   C1197     1.0  0.84107  0.66614  0.04708  1.0000
  H   H1923     1.0  0.84667  0.67493  0.06349  1.0000
  H   H1924     1.0  0.95320  0.62003  0.45761  1.0000
  H   H1925     1.0  0.78434  0.80298  0.30105  1.0000
  C   C1198     1.0  0.75080  0.69757  0.47834  1.0000
  C   C1199     1.0  0.99790  0.91317  0.30955  1.0000
  C   C1200     1.0  0.74973  0.79423  0.24577  1.0000
  H   H1926     1.0  0.96179  0.57242  0.99822  1.0000
  C   C1201     1.0  0.75150  0.67927  0.48178  1.0000
  H   H1927     1.0  0.99214  0.94617  0.47374  1.0000
  H   H1928     1.0  0.98933  0.96926  0.48077  1.0000
  S   S478      1.0  0.81246  0.68433  0.48611  1.0000
  C   C1202     1.0  0.99203  0.57691  0.49516  1.0000
  H   H1929     1.0  0.91110  0.49866  0.37816  1.0000
  Fe  Fe241     1.0  0.96068  0.90651  0.64050  1.0000
  S   S479      1.0  0.93376  0.91652  0.62618  1.0000
  S   S480      1.0  0.98441  0.90039  0.61168  1.0000
  Fe  Fe242     1.0  0.95183  0.90877  0.70473  1.0000
  S   S481      1.0  0.92449  0.91907  0.69431  1.0000
  S   S482      1.0  0.95539  0.90687  0.75360  1.0000
  Fe  Fe243     1.0  0.92353  0.89814  0.66082  1.0000
  S   S483      1.0  0.89697  0.88449  0.65742  1.0000
  Fe  Fe244     1.0  0.93678  0.93648  0.66112  1.0000
  S   S484      1.0  0.92777  0.96536  0.66285  1.0000
  S   S485      1.0  0.95034  0.88671  0.67285  1.0000
  S   S486      1.0  0.96422  0.92761  0.67369  1.0000
  Fe  Fe245     1.0  0.95642  0.58442  0.86392  1.0000
  S   S487      1.0  0.92774  0.58015  0.87336  1.0000
  S   S488      1.0  0.96250  0.59281  0.81766  1.0000
  Fe  Fe246     1.0  0.96678  0.57769  0.92738  1.0000
  S   S489      1.0  0.93893  0.57270  0.94074  1.0000
  H   H1930     1.0  0.79714  0.71922  0.52964  1.0000
  Fe  Fe247     1.0  0.93802  0.55690  0.89977  1.0000
  S   S490      1.0  0.92560  0.52999  0.89738  1.0000
  Fe  Fe248     1.0  0.93119  0.59641  0.91301  1.0000
  S   S491      1.0  0.91609  0.62143  0.92802  1.0000
  S   S492      1.0  0.96640  0.56035  0.88815  1.0000
  S   S493      1.0  0.95938  0.60214  0.90179  1.0000
  Fe  Fe249     1.0  0.84028  0.79930  0.70722  1.0000
  S   S494      1.0  0.84040  0.77136  0.69121  1.0000
  S   S495      1.0  0.86751  0.81163  0.70506  1.0000
  Fe  Fe250     1.0  0.80044  0.79840  0.72165  1.0000
  S   S496      1.0  0.79807  0.77114  0.70482  1.0000
  S   S497      1.0  0.77766  0.81162  0.74607  1.0000
  Fe  Fe251     1.0  0.82317  0.76537  0.72943  1.0000
  S   S498      1.0  0.82324  0.74038  0.75690  1.0000
  Fe  Fe252     1.0  0.81548  0.77973  0.66832  1.0000
  S   S499      1.0  0.81062  0.77659  0.62021  1.0000
  S   S500      1.0  0.82509  0.79239  0.74753  1.0000
  S   S501      1.0  0.81576  0.80791  0.68311  1.0000
  Fe  Fe253     1.0  0.82757  0.68076  0.94259  1.0000
  S   S502      1.0  0.84616  0.70226  0.95127  1.0000
  S   S503      1.0  0.83695  0.65307  0.92997  1.0000
  Fe  Fe254     1.0  0.79495  0.70526  0.95247  1.0000
  S   S504      1.0  0.81170  0.72840  0.96198  1.0000
  S   S505      1.0  0.76549  0.71141  0.94863  1.0000
  Fe  Fe255     1.0  0.82788  0.71933  0.92395  1.0000
  S   S506      1.0  0.83928  0.73842  0.89137  1.0000
  H   H1931     1.0  0.98447  0.96269  0.53308  1.0000
  S   S507      1.0  0.83627  0.71273  0.54109  1.0000
  S   S508      1.0  0.81030  0.69739  0.91278  1.0000
  H   H1932     1.0  0.99598  0.93315  0.79356  1.0000
  H   H1933     1.0  0.79201  0.68177  0.54959  1.0000
  C   C1203     1.0  0.92092  0.54171  0.81836  1.0000
  H   H1934     1.0  0.97022  0.59905  0.75817  1.0000
  C   C1204     1.0  0.96999  0.90702  0.52739  1.0000
  C   C1205     1.0  0.96236  0.61775  0.52915  1.0000
  H   H1935     1.0  0.95971  0.55171  0.78638  1.0000
  C   C1206     1.0  0.79192  0.69236  0.56594  1.0000
  C   C1207     1.0  0.82697  0.74052  0.79449  1.0000
  C   C1208     1.0  0.82104  0.72654  0.81162  1.0000
  C   C1209     1.0  0.82404  0.72607  0.84155  1.0000
  C   C1210     1.0  0.83347  0.73936  0.85446  1.0000
  C   C1211     1.0  0.83934  0.75336  0.83732  1.0000
  C   C1212     1.0  0.83592  0.75407  0.80753  1.0000
  H   H1936     1.0  0.81405  0.71604  0.80168  1.0000
  H   H1937     1.0  0.81929  0.71530  0.85445  1.0000
  H   H1938     1.0  0.84671  0.76366  0.84709  1.0000
  H   H1939     1.0  0.84066  0.76484  0.79455  1.0000
  C   C1213     1.0  0.81811  0.75879  0.59862  1.0000
  C   C1214     1.0  0.82773  0.74436  0.61012  1.0000
  C   C1215     1.0  0.83335  0.73047  0.59212  1.0000
  C   C1216     1.0  0.82945  0.73086  0.56252  1.0000
  C   C1217     1.0  0.81995  0.74537  0.55100  1.0000
  C   C1218     1.0  0.81430  0.75924  0.56900  1.0000
  H   H1940     1.0  0.83076  0.74385  0.63288  1.0000
  H   H1941     1.0  0.84072  0.71931  0.60122  1.0000
  H   H1942     1.0  0.81700  0.74595  0.52822  1.0000
  H   H1943     1.0  0.80692  0.77039  0.55990  1.0000
  C   C1219     1.0  0.89397  0.62995  0.92743  1.0000
  C   C1220     1.0  0.87987  0.62020  0.91786  1.0000
  C   C1221     1.0  0.86253  0.62751  0.91857  1.0000
  C   C1222     1.0  0.85908  0.64466  0.92865  1.0000
  C   C1223     1.0  0.87318  0.65450  0.93791  1.0000
  C   C1224     1.0  0.89049  0.64716  0.93739  1.0000
  H   H1944     1.0  0.88232  0.60695  0.91024  1.0000
  H   H1945     1.0  0.85170  0.61976  0.91142  1.0000
  H   H1946     1.0  0.87075  0.66767  0.94576  1.0000
  H   H1947     1.0  0.90132  0.65479  0.94487  1.0000
  H   H1948     1.0  0.79319  0.72604  0.58174  1.0000
  H   H1949     1.0  0.95461  0.53245  0.80706  1.0000
  H   H1950     1.0  0.77418  0.79107  0.83962  1.0000
  H   H1951     1.0  0.79456  0.79163  0.81976  1.0000
  H   H1952     1.0  0.96605  0.56313  0.55044  1.0000
  C   C1225     1.0  0.94980  0.51346  0.86096  1.0000
  C   C1226     1.0  0.97858  0.58310  0.79468  1.0000
  H   H1953     1.0  0.77630  0.71562  0.60207  1.0000
  C   C1227     1.0  0.75275  0.69000  0.99212  1.0000
  H   H1954     1.0  0.80559  0.69724  0.56701  1.0000
  H   H1955     1.0  0.75712  0.75290  0.79970  1.0000
  H   H1956     1.0  0.90666  0.54400  0.81367  1.0000
  H   H1957     1.0  0.92484  0.85923  0.72909  1.0000
  H   H1958     1.0  0.97094  0.62930  0.53014  1.0000
  C   C1228     1.0  0.93436  0.51210  0.87719  1.0000
  H   H1959     1.0  0.99170  0.89658  0.73734  1.0000
  H   H1960     1.0  0.75299  0.77554  0.78966  1.0000
  H   H1961     1.0  0.95699  0.52548  0.86138  1.0000
  C   C1229     1.0  0.88914  0.86387  0.66981  1.0000
  C   C1230     1.0  0.90050  0.85007  0.67910  1.0000
  C   C1231     1.0  0.89360  0.83427  0.68987  1.0000
  C   C1232     1.0  0.87529  0.83190  0.69116  1.0000
  C   C1233     1.0  0.86393  0.84555  0.68135  1.0000
  C   C1234     1.0  0.87083  0.86139  0.67073  1.0000
  H   H1962     1.0  0.91460  0.85151  0.67777  1.0000
  H   H1963     1.0  0.90254  0.82374  0.69709  1.0000
  H   H1964     1.0  0.84982  0.84402  0.68229  1.0000
  H   H1965     1.0  0.86190  0.87193  0.66351  1.0000
  C   C1235     1.0  0.93261  0.98135  0.63635  1.0000
  C   C1236     1.0  0.94228  0.97713  0.61161  1.0000
  C   C1237     1.0  0.99132  0.58078  0.74635  1.0000
  H   H1966     1.0  0.91654  0.90484  0.75539  1.0000
  H   H1967     1.0  0.94672  0.96365  0.60809  1.0000
  H   H1968     1.0  0.77942  0.75956  0.85278  1.0000
  C   C1238     1.0  0.97488  0.90231  0.77363  1.0000
  C   C1239     1.0  0.97410  0.90343  0.80380  1.0000
  H   H1969     1.0  0.92967  0.88052  0.78504  1.0000
  C   C1240     1.0  0.78606  0.75799  0.83153  1.0000
  H   H1970     1.0  0.98665  0.93978  0.52480  1.0000
  H   H1971     1.0  0.92119  0.85879  0.78281  1.0000
  C   C1241     1.0  0.98456  0.90191  0.57352  1.0000
  C   C1242     1.0  0.96929  0.90605  0.55771  1.0000
  H   H1972     1.0  0.75195  0.76894  0.82688  1.0000
  H   H1973     1.0  0.93094  0.60283  0.52336  1.0000
  H   H1974     1.0  0.89524  0.90058  0.77046  1.0000
  H   H1975     1.0  0.95690  0.90835  0.56882  1.0000
  H   H1976     1.0  0.78514  0.74397  0.82520  1.0000
  H   H1977     1.0  0.77431  0.72513  0.52337  1.0000
  N   N122      1.0  0.86990  0.69197  0.86634  1.0000
  C   C1243     1.0  0.87865  0.70059  0.89055  1.0000
  C   C1244     1.0  0.86990  0.70376  0.84077  1.0000
  C   C1245     1.0  0.85153  0.68836  0.87445  1.0000
  C   C1246     1.0  0.87941  0.67521  0.85972  1.0000
  H   H1978     1.0  0.87894  0.69203  0.91017  1.0000
  H   H1979     1.0  0.87161  0.71319  0.89629  1.0000
  H   H1980     1.0  0.89250  0.70369  0.88514  1.0000
  H   H1981     1.0  0.86283  0.69800  0.82233  1.0000
  H   H1982     1.0  0.86319  0.71668  0.84544  1.0000
  H   H1983     1.0  0.88354  0.70649  0.83359  1.0000
  H   H1984     1.0  0.84435  0.68204  0.85669  1.0000
  H   H1985     1.0  0.84410  0.70070  0.87999  1.0000
  H   H1986     1.0  0.85102  0.67942  0.89353  1.0000
  H   H1987     1.0  0.87315  0.66839  0.84151  1.0000
  H   H1988     1.0  0.87946  0.66596  0.87856  1.0000
  H   H1989     1.0  0.89340  0.67735  0.85382  1.0000
  C   C1247     1.0  0.75553  0.80528  0.74191  1.0000
  C   C1248     1.0  0.77975  0.72068  0.58027  1.0000
  H   H1990     1.0  0.80140  0.76993  0.78294  1.0000
  C   C1249     1.0  0.78038  0.78845  0.81831  1.0000
  H   H1991     1.0  0.95337  0.98694  0.57198  1.0000
  H   H1992     1.0  0.75715  0.69423  0.57869  1.0000
  H   H1993     1.0  0.93721  0.54493  0.75033  1.0000
  H   H1994     1.0  0.91645  0.87807  0.70904  1.0000
  H   H1995     1.0  0.93444  0.88024  0.73327  1.0000
  S   S509      1.0  0.99067  0.57708  0.95719  1.0000
  N   N123      1.0  0.77907  0.70674  0.55843  1.0000
  H   H1996     1.0  0.75995  0.79164  0.70215  1.0000
  H   H1997     1.0  0.95381  0.55372  0.82361  1.0000
  H   H1998     1.0  0.96756  0.50068  0.83084  1.0000
  C   C1250     1.0  0.92900  0.53967  0.76816  1.0000
  C   C1251     1.0  0.78716  0.76707  0.78163  1.0000
  N   N124      1.0  0.77819  0.77004  0.80948  1.0000
  H   H1999     1.0  0.77050  0.73192  0.57498  1.0000
  C   C1252     1.0  0.75922  0.76668  0.80635  1.0000
  H   H2000     1.0  0.98764  0.96752  0.82411  1.0000
  H   H2001     1.0  0.78890  0.68632  0.58724  1.0000
  H   H2002     1.0  0.99609  0.95447  0.77679  1.0000
  C   C1253     1.0  0.94606  0.99036  0.59125  1.0000
  H   H2003     1.0  0.75116  0.71018  0.55119  1.0000
  C   C1254     1.0  0.99093  0.89753  0.76055  1.0000
  C   C1255     1.0  0.99116  0.57505  0.55609  1.0000
  H   H2004     1.0  0.78627  0.75320  0.77454  1.0000
  C   C1256     1.0  0.97722  0.56878  0.53965  1.0000
  H   H2005     1.0  0.94720  0.59083  0.50264  1.0000
  C   C1257     1.0  0.76113  0.69976  0.55745  1.0000
  C   C1258     1.0  0.99020  0.56962  0.80420  1.0000
  H   H2006     1.0  0.80029  0.76048  0.83472  1.0000
  C   C1259     1.0  0.93955  0.63506  0.50462  1.0000
  N   N125      1.0  0.85966  0.80285  0.61257  1.0000
  C   C1260     1.0  0.85467  0.79885  0.58267  1.0000
  C   C1261     1.0  0.87624  0.81252  0.61271  1.0000
  C   C1262     1.0  0.86216  0.78623  0.62912  1.0000
  C   C1263     1.0  0.84550  0.81376  0.62597  1.0000
  H   H2007     1.0  0.84219  0.79149  0.58211  1.0000
  H   H2008     1.0  0.86502  0.79057  0.57187  1.0000
  H   H2009     1.0  0.85254  0.81109  0.56957  1.0000
  H   H2010     1.0  0.88029  0.81560  0.63511  1.0000
  H   H2011     1.0  0.88726  0.80473  0.60272  1.0000
  H   H2012     1.0  0.87481  0.82527  0.60075  1.0000
  H   H2013     1.0  0.86596  0.78876  0.65183  1.0000
  H   H2014     1.0  0.87268  0.77758  0.61958  1.0000
  H   H2015     1.0  0.84983  0.77867  0.62960  1.0000
  H   H2016     1.0  0.84359  0.82667  0.61468  1.0000
  H   H2017     1.0  0.84855  0.81648  0.64889  1.0000
  H   H2018     1.0  0.83268  0.80708  0.62549  1.0000
  H   H2019     1.0  0.93229  0.52534  0.77045  1.0000
  H   H2020     1.0  0.92357  0.54783  0.83950  1.0000
  H   H2021     1.0  0.93658  0.57404  0.77493  1.0000
  H   H2022     1.0  0.95808  0.91018  0.51537  1.0000
  H   H2023     1.0  0.91392  0.57034  0.78432  1.0000
  C   C1264     1.0  0.97768  0.56961  0.50932  1.0000
  C   C1265     1.0  0.98915  0.89980  0.82080  1.0000
  H   H2024     1.0  0.89829  0.90084  0.73208  1.0000
  C   C1266     1.0  0.97925  0.58869  0.76573  1.0000
  H   H2025     1.0  0.92961  0.57528  0.81154  1.0000
  H   H2026     1.0  0.97122  0.60580  0.52867  1.0000
  C   C1267     1.0  0.92782  0.56794  0.79125  1.0000
  S   S510      1.0  0.98989  0.57394  0.59414  1.0000
  C   C1268     1.0  0.95088  0.54657  0.80346  1.0000
  H   H2027     1.0  0.78132  0.77567  0.76434  1.0000
  H   H2028     1.0  0.78299  0.70400  0.51297  1.0000
  N   N126      1.0  0.90919  0.87781  0.75370  1.0000
  C   C1269     1.0  0.89303  0.86776  0.74980  1.0000
  C   C1270     1.0  0.91744  0.87306  0.78166  1.0000
  C   C1271     1.0  0.90459  0.89685  0.75294  1.0000
  C   C1272     1.0  0.92177  0.87361  0.73028  1.0000
  H   H2029     1.0  0.88638  0.87140  0.72910  1.0000
  H   H2030     1.0  0.88334  0.87032  0.76738  1.0000
  H   H2031     1.0  0.89600  0.85332  0.74933  1.0000
  H   H2032     1.0  0.90837  0.87605  0.79993  1.0000
  H   H2033     1.0  0.83753  0.65523  0.99256  1.0000
  H   H2034     1.0  0.92334  0.52728  0.82126  1.0000
  H   H2035     1.0  0.96173  0.90707  0.81412  1.0000
  C   C1273     1.0  0.98597  0.90406  0.51256  1.0000
  H   H2036     1.0  0.91494  0.54111  0.76147  1.0000
  N   N127      1.0  0.93214  0.54897  0.79533  1.0000
  C   C1274     1.0  0.95578  0.49935  0.84374  1.0000
  H   H2037     1.0  0.98826  0.90056  0.84400  1.0000
  C   C1275     1.0  0.78357  0.71414  0.52990  1.0000
  H   H2038     1.0  0.99148  0.58496  0.72400  1.0000
  H   H2039     1.0  0.93118  0.63548  0.52432  1.0000
  H   H2040     1.0  0.95467  0.61718  0.54956  1.0000
  H   H2041     1.0  0.98823  0.94598  0.84063  1.0000
  S   S511      1.0  0.81040  0.68641  0.98136  1.0000
  C   C1276     1.0  0.93929  0.60336  0.50367  1.0000
  N   N128      1.0  0.95069  0.61875  0.50369  1.0000
  H   H2042     1.0  0.77420  0.79789  0.80251  1.0000
  H   H2043     1.0  0.98986  0.56525  0.82646  1.0000
  H   H2044     1.0  0.76027  0.68906  0.54138  1.0000
  C   C1277     1.0  0.99418  0.95151  0.53070  1.0000
  H   H2045     1.0  0.94767  0.64697  0.50429  1.0000
  H   H2046     1.0  0.76557  0.68332  0.99215  1.0000
  S   S512      1.0  0.99058  0.88994  0.96704  1.0000
  C   C1278     1.0  0.98907  0.57906  0.99514  1.0000
  Fe  Fe256     1.0  0.82812  0.70915  0.98842  1.0000
  C   C1279     1.0  0.99641  0.95738  0.83472  1.0000
  H   H2047     1.0  0.85697  0.64123  0.99185  1.0000
  H   H2048     1.0  0.96703  0.56443  0.49690  1.0000
  C   C1280     1.0  0.75031  0.79561  0.71820  1.0000
