data_image0
_chemical_formula_structural       FeS2FeS2FeSFeS3FeS2FeS2FeSFeHSHFeS2FeS2FeSFeS3FeS2FeS2FeSFeS3C6H4C6H4C6H3C7H4C6H4C6HNH2CHCHCHC4H8C2HCHCHC2H2NCHCH2CH6CH3CH3C2HCNHCSHNH17CH2CH3NHC3HC2H3N2H4CH4C2H2CHCH6CHCH2CH8NH6CH5CH2CH5SHFeS2FeS2FeSFeS3FeS2FeS2FeSFeS3FeSHFeS2FeSFeHSHFeS2FeS2FeSFeCS3HCH2C6H4CHC2HC6H4C6H4C6H4C6H4C6H6SHSH2CHSNC4H12NC4H15CH7C4H2NC4H7NH5CH4CHCHC2HC2HC3H4NH3CH7CH5CHCHCNHC2FeS2FeSHFeSFeS3FeS2FeS2FeSFeHSHFeS2FeS2FeSFeS3FeS2FeS2FeSFeS3C6H4C6H4C6H4C6H4C6H4C6H6C3HCH3NH2CH2CH5C2HSH3CH7NH4CH2C3HC2H6NC2H9SCH4NH4CH6CNH6SCHNCH9CH5C2H5C2HC4H5NCH2NC2HNHC3HC2H2C3H2C4FeS2FeS2FeSFeS3FeS2FeS2FeSFeS3FeS2FeS2FeSFeHSHFeS2FeS2FeSFeS3HCHCHC6H3C2H4C6H4C6H4C6H4C6H4C6H4CH2C2H2CH2NC4H13CH2SHCH5CH3CSH2CH4CH6CNH4C3H2CH3CH3NC3H14C4H3CH4CH3N2C2H2CH2C2N2HCHCH4CH2CH2C2H2FeS2FeS2FeSFeS3FeSHFeS2FeSFeS3FeS2FeSCFeSFeS3FeSHFeS2FeHFeS3H7C8H4C6H4C6H4C6H4C6H4C6H10CHCH3CHCH2C2H6CHCH2CH2CH2CH2C2HCH2CH2C2H4CHNSHNH2SH6CH2NCH3C2H3CH6NCH3CHCHCH3NC4H10C4HNHCNSCHCHC2SH7CH5C2HNHCHNH2FeS2FeS2FeSFeS3FeS2FeS2FeSFeS3FeSHFeS2FeHFeS3FeS2FeSNFeHFeS3HC6H4C6H4C6H4C6H4C6H4C6H4CH3C2H2CHC3H4CNC4H12NC4H11CSC2H5SH2CH3C2HC2HNCH3CH5SCH2CH11CSHCH2CH2CH2NHCHCHNH3CH2CH3CH2C2H2C2HNH4CH3FeS2FeS2FeSFeS3FeS2FeS2FeSFeS3FeS2FeSHFeSFeS3FeSCFeS2FeSFeS3C5H2NHC6H4C6H4C6H4C6H3C7H4C6H4CHCH2C2HCH5CH10CH9CHCNH8NH3C2HC2HC2H3C2H8CHNSH2C2H3CH6NCHCH5NHCH2CHC2H4NCH2CHCH3CH2NH3NCH5CHSHC2H7FeS2FeS2FeSFeS3FeS2FeS2FeSFeS3FeS2FeS2FeCFeS3FeS2FeSHFeSFeS3HC6H4C6HCH2C6H4C6H5C6H3C6H4C2H2CHNCH2CHCH6CH5CH2CH2C4NC4H13CH3CHCHC2HNHC2H3CH5C2H4CH2CH3NSH2NH4CH4SCH2NH4CH6C2H2C3NH6C2HNFeS2FeS2FeSFeS3FeS2FeS2FeSFeS3FeS2FeS2FeHFeSHSFeSHFeS2FeSFeS3HCH4C8H4C6H4C6H9C6H4C7H3C6H4SCNH6C2HSCH8CH6CHNHC2HCNCHC2HCH3CH3C2NH2C2H2C2H14CSH4CNH3CH3C3H5CH2C2H6C2H3CHCNH3C2NH2CHFeS2FeS2FeSFeS3FeS2FeS2FeSFeHSCFeS2FeS2FeSFeS3FeS2FeS2FeSFeS3HC2HC6H4C6H4C6H5CH3C6H4C6H4C6H5CH11C2H2C2H4NHCH2CHCHSHCH4C2HNHCH2CH2NC5H2CH9C2HCNCH2NH3CNH13NH2CH11CH4CH2C2H2CH2CNC4H7C2SHCHCH5NH3CH2CH3FeS2FeSHFeSFeS3FeS2FeS2FeSFeS3FeS2FeS2FeHFeSHSFeS2FeS2FeSFeS3H3NHNH2C6H4C6H4C6H4C2H3C6H4C6H4C6H4CHC3H3C2NC2H2CHCSH2CH3CSHCHCH2CH4CH2CH5CNH5CH6CH7CH3NC4H14CH5CHCHC2H3SNC2HCHNH5C3H3CH8CH4CH3C4H5CHNC2HCH2FeS2FeS2FeHFeS3FeS2FeS2FeSFeHSHFeS2FeS2FeSFeS3FeS2FeS2FeSFeS3CH3C6H4C6H4C6H6CH2C6H4C6H4C6HCH4CSC2H4NC4H12C3HC2H4NCH2NCHCH3CHCH2C2H5CH3SNH6CHNC4H12CH2CHNH3CH2CNH2NCH3CH2C2H2CH3CH9CSCHC2HCH2FeS2FeS2FeHFeS3FeS2FeS2FeSFeHS2FeS2FeS2FeSFeS3FeS2FeS2FeSFeS3CHCH6CHCHC7H5C6H4C6H4CH2C6H4C6H4C6H5CNCH3CH3C2NC5H2CH5CH5CH15NCSC2HC2H2C2H3CNCSH5CH3CH2NCHNC2HCH5CH7C4H4NH7CH3CH5CHCH5CFeSHFeS2FeSFeS3FeS2FeS2FeHFeS3FeS2FeS2FeSFeS3FeS2FeS2FeSFeS3H3C6H4CH4C6H4C6H7CHC6H3C7H4C6H6C2H4C2H3CHCH2NC4H12CH3NHCH4CHC2H4C2H4CH2CH2CHCNH2CSC4HC3HNH7CH2N2C2H5CNH2NH5CHCH6CH2C2HNHCH3CSC2H9C2H7CH4CH2CFeS2FeS2FeCFeS3FeS2FeS2FeSFeHS2FeS2FeS2FeSFeS3FeS2FeS2FeNFeS3C2HNH3CHC2H3C6H5C6H4C6H4CHC7H4C6H4C6H4CH3CH2NC4H13CHNHC2SH5C2H4C2H2SHC2HSH6CH4CHC2HNC4H13C2H3CHCHCHCH5NHCH2CHCHNHNCHCHCHCHC2HFeSHFeS2FeSFeS3FeS2FeS2FeHFeS3FeS2FeS2FeSFeS3FeS2FeS2FeSFeS3H3C6H5CNH2C6H4C6H4CNCH2C6H4C7H3C6H4CH2CH2SCH6C2H3CNH4CNCNH3C2H5C3HCHCH3C2H4SC3H6CNH4CH5CH4CH3CNH5CH3CNCH2CNC4H8CH3CH4CH4CH2CH5C2H5
_chemical_formula_sum              "Fe256 S512 H2048 C1280 N128"
_cell_length_a       87.398
_cell_length_b       46.7894
_cell_length_c       65.1926
_cell_angle_alpha    89.5799
_cell_angle_beta     88.9117
_cell_angle_gamma    90.0661

_space_group_name_H-M_alt    "P 1"
_space_group_IT_number       1

loop_
  _space_group_symop_operation_xyz
  'x, y, z'

loop_
  _atom_site_type_symbol
  _atom_site_label
  _atom_site_symmetry_multiplicity
  _atom_site_fract_x
  _atom_site_fract_y
  _atom_site_fract_z
  _atom_site_occupancy
  Fe  Fe1       1.0  0.07248  0.05451  0.31145  1.0000
  S   S1        1.0  0.06061  0.03675  0.33961  1.0000
  S   S2        1.0  0.09730  0.06656  0.31722  1.0000
  Fe  Fe2       1.0  0.04202  0.05745  0.28737  1.0000
  S   S3        1.0  0.02848  0.03854  0.31401  1.0000
  S   S4        1.0  0.03342  0.07655  0.25687  1.0000
  Fe  Fe3       1.0  0.04226  0.06892  0.33312  1.0000
  S   S5        1.0  0.03209  0.09584  0.35872  1.0000
  Fe  Fe4       1.0  0.04828  0.00770  0.31831  1.0000
  S   S6        1.0  0.04946  0.45975  0.32635  1.0000
  S   S7        1.0  0.05493  0.08885  0.30664  1.0000
  S   S8        1.0  0.06092  0.02441  0.28990  1.0000
  Fe  Fe5       1.0  0.21748  0.03069  0.28923  1.0000
  S   S9        1.0  0.22351  0.04653  0.32065  1.0000
  S   S10       1.0  0.23490  0.02857  0.26233  1.0000
  Fe  Fe6       1.0  0.18319  0.02663  0.30115  1.0000
  S   S11       1.0  0.18677  0.04101  0.33356  1.0000
  S   S12       1.0  0.16086  0.01393  0.28615  1.0000
  Fe  Fe7       1.0  0.20255  0.07460  0.31982  1.0000
  S   S13       1.0  0.20072  0.12309  0.32532  1.0000
  Fe  Fe8       1.0  0.20738  0.01193  0.33214  1.0000
  H   H1        1.0  0.02920  0.32427  0.43837  1.0000
  S   S14       1.0  0.19774  0.06150  0.28724  1.0000
  H   H2        1.0  0.04475  0.32141  0.46937  1.0000
  Fe  Fe9       1.0  0.04076  0.26947  0.43192  1.0000
  S   S15       1.0  0.02736  0.28643  0.40524  1.0000
  S   S16       1.0  0.03062  0.26287  0.46464  1.0000
  Fe  Fe10      1.0  0.07163  0.27309  0.40713  1.0000
  S   S17       1.0  0.05989  0.29085  0.37939  1.0000
  S   S18       1.0  0.09661  0.26109  0.40026  1.0000
  Fe  Fe11      1.0  0.04639  0.31888  0.40083  1.0000
  S   S19       1.0  0.04116  0.36712  0.39929  1.0000
  Fe  Fe12      1.0  0.04213  0.25705  0.38609  1.0000
  S   S20       1.0  0.03505  0.23140  0.35844  1.0000
  S   S21       1.0  0.05932  0.30328  0.42847  1.0000
  S   S22       1.0  0.05434  0.23786  0.41286  1.0000
  Fe  Fe13      1.0  0.18297  0.29901  0.42542  1.0000
  S   S23       1.0  0.18771  0.28550  0.39293  1.0000
  S   S24       1.0  0.15907  0.30156  0.43999  1.0000
  Fe  Fe14      1.0  0.21737  0.30596  0.43560  1.0000
  S   S25       1.0  0.22418  0.29184  0.40368  1.0000
  S   S26       1.0  0.23749  0.31300  0.45761  1.0000
  Fe  Fe15      1.0  0.20534  0.32092  0.39316  1.0000
  S   S27       1.0  0.21049  0.34936  0.36545  1.0000
  Fe  Fe16      1.0  0.20611  0.25758  0.40609  1.0000
  S   S28       1.0  0.20963  0.20942  0.40050  1.0000
  S   S29       1.0  0.19926  0.33664  0.42479  1.0000
  S   S30       1.0  0.20054  0.26950  0.43893  1.0000
  C   C1        1.0  0.11352  0.27536  0.41088  1.0000
  C   C2        1.0  0.12732  0.27362  0.39949  1.0000
  C   C3        1.0  0.14127  0.28252  0.40793  1.0000
  C   C4        1.0  0.14162  0.29251  0.42808  1.0000
  C   C5        1.0  0.12780  0.29456  0.43938  1.0000
  C   C6        1.0  0.11379  0.28624  0.43079  1.0000
  H   H3        1.0  0.12722  0.26547  0.38401  1.0000
  H   H4        1.0  0.15174  0.28163  0.39890  1.0000
  H   H5        1.0  0.12795  0.30237  0.45495  1.0000
  H   H6        1.0  0.10329  0.28752  0.43979  1.0000
  C   C7        1.0  0.20329  0.14657  0.34653  1.0000
  C   C8        1.0  0.20777  0.13687  0.36587  1.0000
  C   C9        1.0  0.20976  0.15644  0.38205  1.0000
  C   C10       1.0  0.20730  0.18596  0.37922  1.0000
  C   C11       1.0  0.20269  0.19565  0.35993  1.0000
  C   C12       1.0  0.20072  0.17609  0.34375  1.0000
  H   H7        1.0  0.20982  0.11432  0.36832  1.0000
  H   H8        1.0  0.21335  0.14861  0.39686  1.0000
  H   H9        1.0  0.20080  0.21823  0.35738  1.0000
  H   H10       1.0  0.19729  0.18391  0.32887  1.0000
  C   C13       1.0  0.20800  0.44745  0.36458  1.0000
  C   C14       1.0  0.21159  0.43234  0.34671  1.0000
  C   C15       1.0  0.21220  0.40228  0.34722  1.0000
  C   C16       1.0  0.20907  0.38707  0.36549  1.0000
  C   C17       1.0  0.20528  0.40219  0.38329  1.0000
  C   C18       1.0  0.20494  0.43227  0.38288  1.0000
  H   H11       1.0  0.21408  0.44379  0.33256  1.0000
  H   H12       1.0  0.21517  0.39073  0.33338  1.0000
  H   H13       1.0  0.20259  0.39077  0.39738  1.0000
  C   C19       1.0  0.02882  0.46780  0.28159  1.0000
  C   C20       1.0  0.04749  0.43466  0.34714  1.0000
  C   C21       1.0  0.05015  0.40545  0.34330  1.0000
  C   C22       1.0  0.04846  0.38460  0.35902  1.0000
  C   C23       1.0  0.04391  0.39259  0.37887  1.0000
  C   C24       1.0  0.04116  0.42180  0.38269  1.0000
  C   C25       1.0  0.04298  0.44269  0.36700  1.0000
  H   H14       1.0  0.05365  0.39885  0.32805  1.0000
  H   H15       1.0  0.05062  0.36232  0.35574  1.0000
  H   H16       1.0  0.03761  0.42836  0.39792  1.0000
  H   H17       1.0  0.04084  0.46497  0.37029  1.0000
  C   C26       1.0  0.03436  0.13340  0.35898  1.0000
  C   C27       1.0  0.03933  0.14859  0.34152  1.0000
  C   C28       1.0  0.03948  0.17863  0.34157  1.0000
  C   C29       1.0  0.03529  0.19372  0.35931  1.0000
  C   C30       1.0  0.03111  0.17857  0.37712  1.0000
  C   C31       1.0  0.03040  0.14852  0.37683  1.0000
  H   H18       1.0  0.04273  0.13736  0.32782  1.0000
  H   H19       1.0  0.04286  0.19025  0.32780  1.0000
  H   H20       1.0  0.02787  0.19005  0.39088  1.0000
  H   H21       1.0  0.02660  0.13696  0.39043  1.0000
  C   C32       1.0  0.11476  0.05192  0.30780  1.0000
  C   C33       1.0  0.11547  0.03328  0.29111  1.0000
  C   C34       1.0  0.12964  0.02168  0.28466  1.0000
  C   C35       1.0  0.14323  0.02888  0.29466  1.0000
  C   C36       1.0  0.14251  0.04768  0.31120  1.0000
  C   C37       1.0  0.12836  0.05912  0.31771  1.0000
  H   H22       1.0  0.10517  0.02819  0.28295  1.0000
  N   N1        1.0  0.18911  0.05829  0.99051  1.0000
  H   H23       1.0  0.15288  0.05354  0.31896  1.0000
  H   H24       1.0  0.12797  0.07367  0.33053  1.0000
  C   C38       1.0  0.23927  0.36637  0.47704  1.0000
  H   H25       1.0  0.08605  0.14602  0.35451  1.0000
  C   C39       1.0  0.01625  0.10793  0.22959  1.0000
  H   H26       1.0  0.07863  0.17596  0.39552  1.0000
  C   C40       1.0  0.18604  0.07114  0.01081  1.0000
  H   H27       1.0  0.10357  0.21812  0.35996  1.0000
  C   C41       1.0  0.24509  0.00107  0.24893  1.0000
  C   C42       1.0  0.23349  0.37120  0.41565  1.0000
  C   C43       1.0  0.01250  0.45102  0.30943  1.0000
  C   C44       1.0  0.09826  0.19889  0.35296  1.0000
  H   H28       1.0  0.14229  0.43331  0.33218  1.0000
  H   H29       1.0  0.18204  0.03328  0.25277  1.0000
  H   H30       1.0  0.24912  0.31218  0.22238  1.0000
  H   H31       1.0  0.02767  0.31992  0.48479  1.0000
  H   H32       1.0  0.22914  0.37236  0.46877  1.0000
  H   H33       1.0  0.20209  0.44383  0.39675  1.0000
  H   H34       1.0  0.09534  0.20467  0.33690  1.0000
  H   H35       1.0  0.07415  0.16872  0.33926  1.0000
  C   C45       1.0  0.19383  0.00428  0.20745  1.0000
  C   C46       1.0  0.24535  0.33886  0.47469  1.0000
  H   H36       1.0  0.01211  0.32262  0.45368  1.0000
  C   C47       1.0  0.20279  0.99374  0.24142  1.0000
  H   H37       1.0  0.03711  0.45009  0.28408  1.0000
  C   C48       1.0  0.00836  0.43476  0.27490  1.0000
  H   H38       1.0  0.09728  0.16490  0.38655  1.0000
  C   C49       1.0  0.01469  0.24334  0.47553  1.0000
  C   C50       1.0  0.14452  0.45511  0.33814  1.0000
  H   H39       1.0  0.01791  0.05313  0.19074  1.0000
  H   H40       1.0  0.06899  0.21803  0.34945  1.0000
  N   N2        1.0  0.08453  0.18962  0.36482  1.0000
  C   C51       1.0  0.25458  0.00861  0.23203  1.0000
  H   H41       1.0  0.13573  0.45972  0.35024  1.0000
  C   C52       1.0  0.24585  0.47231  0.14983  1.0000
  H   H42       1.0  0.17291  0.00581  0.23862  1.0000
  H   H43       1.0  0.16531  0.24328  0.42509  1.0000
  C   C53       1.0  0.03602  0.33493  0.47732  1.0000
  H   H44       1.0  0.25516  0.40575  0.42966  1.0000
  H   H45       1.0  0.24838  0.37591  0.18785  1.0000
  H   H46       1.0  0.16978  0.46577  0.31604  1.0000
  H   H47       1.0  0.07808  0.23307  0.37130  1.0000
  H   H48       1.0  0.01427  0.36233  0.04259  1.0000
  H   H49       1.0  0.20149  0.05801  0.21685  1.0000
  C   C54       1.0  0.02079  0.33754  0.44689  1.0000
  H   H50       1.0  0.03467  0.38827  0.44162  1.0000
  H   H51       1.0  0.00655  0.08500  0.16541  1.0000
  H   H52       1.0  0.10706  0.18174  0.35229  1.0000
  C   C55       1.0  0.18086  0.02435  0.23709  1.0000
  H   H53       1.0  0.13012  0.00738  0.27171  1.0000
  H   H54       1.0  0.25344  0.32830  0.41751  1.0000
  H   H55       1.0  0.21775  0.03524  0.22123  1.0000
  C   C56       1.0  0.20610  0.04108  0.22706  1.0000
  C   C57       1.0  0.01404  0.11292  0.29965  1.0000
  H   H56       1.0  0.00872  0.44028  0.25825  1.0000
  C   C58       1.0  0.01690  0.37180  0.47390  1.0000
  N   N3        1.0  0.16019  0.45758  0.34610  1.0000
  H   H57       1.0  0.20763  0.05075  0.24245  1.0000
  C   C59       1.0  0.03997  0.37349  0.45293  1.0000
  S   S31       1.0  0.20256  0.99474  0.30086  1.0000
  H   H58       1.0  0.02722  0.11558  0.22380  1.0000
  N   N4        1.0  0.01305  0.45929  0.28748  1.0000
  H   H59       1.0  0.24430  0.00588  0.34103  1.0000
  H   H60       1.0  0.16816  0.16370  0.42677  1.0000
  H   H61       1.0  0.24524  0.45791  0.16353  1.0000
  H   H62       1.0  0.01514  0.35145  0.43536  1.0000
  H   H63       1.0  0.04603  0.38663  0.46437  1.0000
  H   H64       1.0  0.02973  0.47470  0.26523  1.0000
  H   H65       1.0  0.02226  0.38488  0.48601  1.0000
  H   H66       1.0  0.22618  0.36151  0.40377  1.0000
  H   H67       1.0  0.23676  0.43187  0.23212  1.0000
  H   H68       1.0  0.16725  0.21296  0.44183  1.0000
  H   H69       1.0  0.01646  0.00031  0.03574  1.0000
  H   H70       1.0  0.20501  0.99777  0.20040  1.0000
  H   H71       1.0  0.11447  0.99986  0.33052  1.0000
  H   H72       1.0  0.22568  0.46720  0.25652  1.0000
  H   H73       1.0  0.01608  0.41612  0.27721  1.0000
  H   H74       1.0  0.25252  0.46094  0.13765  1.0000
  H   H75       1.0  0.01611  0.46900  0.31937  1.0000
  C   C60       1.0  0.07321  0.21302  0.36508  1.0000
  H   H76       1.0  0.02043  0.43295  0.31265  1.0000
  H   H77       1.0  0.01095  0.38666  0.46327  1.0000
  C   C61       1.0  0.07779  0.16410  0.35522  1.0000
  H   H78       1.0  0.06310  0.20740  0.37486  1.0000
  H   H79       1.0  0.04879  0.36106  0.44424  1.0000
  H   H80       1.0  0.18200  0.05478  0.02216  1.0000
  N   N5        1.0  0.16334  0.20253  0.41021  1.0000
  H   H81       1.0  0.21408  0.98660  0.23511  1.0000
  C   C62       1.0  0.14662  0.20018  0.41359  1.0000
  C   C63       1.0  0.17037  0.17384  0.41151  1.0000
  C   C64       1.0  0.16658  0.21504  0.38969  1.0000
  H   H82       1.0  0.18252  0.22244  0.42440  1.0000
  C   C65       1.0  0.00626  0.04630  0.19597  1.0000
  C   C66       1.0  0.25488  0.34282  0.40395  1.0000
  H   H83       1.0  0.14106  0.22158  0.41321  1.0000
  H   H84       1.0  0.14128  0.18682  0.40163  1.0000
  H   H85       1.0  0.18332  0.45432  0.33470  1.0000
  N   N6        1.0  0.24965  0.37211  0.40872  1.0000
  N   N7        1.0  0.02843  0.35446  0.46278  1.0000
  H   H86       1.0  0.18302  0.17501  0.40927  1.0000
  H   H87       1.0  0.17907  0.21844  0.38711  1.0000
  H   H88       1.0  0.16099  0.23621  0.38784  1.0000
  H   H89       1.0  0.16259  0.20092  0.37722  1.0000
  C   C67       1.0  0.23582  0.47259  0.24751  1.0000
  H   H90       1.0  0.17051  0.02813  0.99336  1.0000
  H   H91       1.0  0.01092  0.03320  0.15666  1.0000
  H   H92       1.0  0.06747  0.15651  0.36399  1.0000
  H   H93       1.0  0.14269  0.47054  0.32529  1.0000
  C   C68       1.0  0.16226  0.43700  0.36314  1.0000
  C   C69       1.0  0.24216  0.45254  0.23360  1.0000
  H   H94       1.0  0.25489  0.34732  0.17132  1.0000
  H   H95       1.0  0.18861  0.02038  0.19707  1.0000
  C   C70       1.0  0.24717  0.32592  0.20867  1.0000
  H   H96       1.0  0.19764  0.01893  0.00328  1.0000
  C   C71       1.0  0.01580  0.08876  0.24638  1.0000
  H   H97       1.0  0.00724  0.16853  0.29614  1.0000
  H   H98       1.0  0.00802  0.35798  0.48143  1.0000
  H   H99       1.0  0.17709  0.08801  0.00991  1.0000
  H   H100      1.0  0.08961  0.00436  0.34804  1.0000
  H   H101      1.0  0.01215  0.16097  0.32222  1.0000
  H   H102      1.0  0.16599  0.15933  0.39951  1.0000
  C   C72       1.0  0.08881  0.18260  0.38610  1.0000
  H   H103      1.0  0.09391  0.20141  0.39380  1.0000
  C   C73       1.0  0.16985  0.22110  0.42608  1.0000
  H   H104      1.0  0.17400  0.43854  0.36943  1.0000
  H   H105      1.0  0.01856  0.12308  0.28526  1.0000
  C   C74       1.0  0.17139  0.45135  0.32948  1.0000
  H   H106      1.0  0.23731  0.34019  0.21233  1.0000
  H   H107      1.0  0.24824  0.33347  0.39120  1.0000
  H   H108      1.0  0.02324  0.11355  0.31115  1.0000
  H   H109      1.0  0.04537  0.47826  0.01741  1.0000
  H   H110      1.0  0.01193  0.09002  0.29623  1.0000
  H   H111      1.0  0.24377  0.38180  0.37755  1.0000
  H   H112      1.0  0.17032  0.42900  0.32398  1.0000
  H   H113      1.0  0.00707  0.02394  0.20180  1.0000
  N   N8        1.0  0.19588  0.01587  0.22825  1.0000
  H   H114      1.0  0.14380  0.19049  0.42884  1.0000
  H   H115      1.0  0.09004  0.00590  0.31076  1.0000
  H   H116      1.0  0.22894  0.39293  0.41892  1.0000
  H   H117      1.0  0.16065  0.41456  0.35802  1.0000
  H   H118      1.0  0.19655  0.08119  0.01698  1.0000
  H   H119      1.0  0.23201  0.35821  0.42990  1.0000
  C   C75       1.0  0.25380  0.99009  0.34150  1.0000
  H   H120      1.0  0.01010  0.31250  0.03055  1.0000
  H   H121      1.0  0.21209  0.04553  0.99767  1.0000
  H   H122      1.0  0.17524  0.04098  0.22759  1.0000
  H   H123      1.0  0.01573  0.00232  0.07436  1.0000
  H   H124      1.0  0.15400  0.44097  0.37599  1.0000
  C   C76       1.0  0.20112  0.03621  0.99235  1.0000
  H   H125      1.0  0.20482  0.00208  0.25703  1.0000
  H   H126      1.0  0.24373  0.31177  0.19589  1.0000
  C   C77       1.0  0.25099  0.39024  0.39010  1.0000
  H   H127      1.0  0.24707  0.41248  0.39315  1.0000
  H   H128      1.0  0.24874  0.01073  0.30307  1.0000
  H   H129      1.0  0.18627  0.98511  0.20782  1.0000
  H   H130      1.0  0.07379  0.47417  0.01179  1.0000
  H   H131      1.0  0.23402  0.47529  0.14419  1.0000
  S   S32       1.0  0.21508  0.98432  0.35882  1.0000
  H   H132      1.0  0.00586  0.22799  0.44708  1.0000
  Fe  Fe17      1.0  0.04309  0.30403  0.78956  1.0000
  S   S33       1.0  0.03511  0.28622  0.82045  1.0000
  S   S34       1.0  0.03021  0.30600  0.75901  1.0000
  Fe  Fe18      1.0  0.07609  0.31145  0.80385  1.0000
  S   S35       1.0  0.07070  0.29536  0.83551  1.0000
  S   S36       1.0  0.09920  0.32959  0.79379  1.0000
  Fe  Fe19      1.0  0.05702  0.26057  0.82078  1.0000
  S   S37       1.0  0.06293  0.21469  0.83100  1.0000
  Fe  Fe20      1.0  0.04938  0.32192  0.83362  1.0000
  S   S38       1.0  0.04295  0.34553  0.86292  1.0000
  S   S39       1.0  0.06392  0.27527  0.78885  1.0000
  S   S40       1.0  0.05577  0.34115  0.80301  1.0000
  Fe  Fe21      1.0  0.18536  0.27755  0.79971  1.0000
  S   S41       1.0  0.18849  0.29341  0.83174  1.0000
  S   S42       1.0  0.16196  0.26031  0.79116  1.0000
  Fe  Fe22      1.0  0.22014  0.27965  0.78917  1.0000
  S   S43       1.0  0.22528  0.29476  0.82122  1.0000
  S   S44       1.0  0.24078  0.27984  0.76641  1.0000
  Fe  Fe23      1.0  0.20801  0.26202  0.83212  1.0000
  S   S45       1.0  0.20938  0.23481  0.86104  1.0000
  Fe  Fe24      1.0  0.20536  0.32494  0.81807  1.0000
  S   S46       1.0  0.20801  0.37355  0.82257  1.0000
  S   S47       1.0  0.20432  0.24469  0.80060  1.0000
  S   S48       1.0  0.20075  0.31119  0.78550  1.0000
  Fe  Fe25      1.0  0.03639  0.02670  0.93619  1.0000
  S   S49       1.0  0.02712  0.04001  0.90559  1.0000
  H   H133      1.0  0.10547  0.99605  0.85501  1.0000
  Fe  Fe26      1.0  0.06958  0.02723  0.91844  1.0000
  S   S50       1.0  0.06203  0.04081  0.88701  1.0000
  S   S51       1.0  0.09374  0.00907  0.92048  1.0000
  Fe  Fe27      1.0  0.04646  0.07195  0.90329  1.0000
  S   S52       1.0  0.03899  0.11739  0.89394  1.0000
  Fe  Fe28      1.0  0.04350  0.00805  0.89205  1.0000
  H   H134      1.0  0.24206  0.18805  0.72846  1.0000
  S   S53       1.0  0.05510  0.06038  0.93487  1.0000
  H   H135      1.0  0.18549  0.09734  0.97359  1.0000
  Fe  Fe29      1.0  0.18129  0.05341  0.91913  1.0000
  S   S54       1.0  0.18617  0.03886  0.88681  1.0000
  S   S55       1.0  0.15873  0.06780  0.93375  1.0000
  Fe  Fe30      1.0  0.21526  0.05382  0.93105  1.0000
  S   S56       1.0  0.22275  0.03893  0.89959  1.0000
  S   S57       1.0  0.23183  0.05759  0.95803  1.0000
  Fe  Fe31      1.0  0.20558  0.07072  0.88771  1.0000
  S   S58       1.0  0.21156  0.09892  0.86018  1.0000
  Fe  Fe32      1.0  0.20294  0.00786  0.90071  1.0000
  C   C78       1.0  0.19441  0.08075  0.97601  1.0000
  S   S59       1.0  0.19955  0.08763  0.91889  1.0000
  S   S60       1.0  0.19664  0.02048  0.93320  1.0000
  S   S61       1.0  0.05159  0.99273  0.92258  1.0000
  H   H136      1.0  0.04191  0.34682  0.48959  1.0000
  C   C79       1.0  0.24796  0.20791  0.73141  1.0000
  H   H137      1.0  0.09258  0.00955  0.87443  1.0000
  H   H138      1.0  0.15352  0.47728  0.92287  1.0000
  C   C80       1.0  0.11159  0.02684  0.92284  1.0000
  C   C81       1.0  0.12512  0.01164  0.91835  1.0000
  C   C82       1.0  0.13960  0.02430  0.92084  1.0000
  C   C83       1.0  0.14073  0.05211  0.92836  1.0000
  C   C84       1.0  0.12721  0.06735  0.93283  1.0000
  C   C85       1.0  0.11270  0.05494  0.92983  1.0000
  H   H139      1.0  0.19726  0.07150  0.96081  1.0000
  H   H140      1.0  0.14990  0.01222  0.91750  1.0000
  H   H141      1.0  0.12796  0.08884  0.93874  1.0000
  H   H142      1.0  0.10241  0.06683  0.93348  1.0000
  C   C86       1.0  0.24475  0.13365  0.98394  1.0000
  H   H143      1.0  0.25096  0.28633  0.64766  1.0000
  C   C87       1.0  0.24538  0.26631  0.65340  1.0000
  C   C88       1.0  0.24868  0.21656  0.66241  1.0000
  H   H144      1.0  0.23348  0.15735  0.90696  1.0000
  C   C89       1.0  0.20314  0.43646  0.87712  1.0000
  C   C90       1.0  0.20097  0.40687  0.88024  1.0000
  C   C91       1.0  0.20234  0.38734  0.86384  1.0000
  C   C92       1.0  0.20589  0.39712  0.84397  1.0000
  C   C93       1.0  0.20800  0.42674  0.84083  1.0000
  C   C94       1.0  0.20661  0.44628  0.85723  1.0000
  H   H145      1.0  0.19826  0.39894  0.89551  1.0000
  H   H146      1.0  0.20069  0.36471  0.86661  1.0000
  H   H147      1.0  0.21072  0.43468  0.82557  1.0000
  H   H148      1.0  0.20826  0.46891  0.85448  1.0000
  C   C95       1.0  0.20992  0.19706  0.86043  1.0000
  C   C96       1.0  0.20722  0.18156  0.87870  1.0000
  C   C97       1.0  0.20731  0.15148  0.87876  1.0000
  C   C98       1.0  0.21040  0.13664  0.86061  1.0000
  C   C99       1.0  0.21319  0.15215  0.84238  1.0000
  C   C100      1.0  0.21287  0.18223  0.84225  1.0000
  H   H149      1.0  0.20492  0.19291  0.89282  1.0000
  H   H150      1.0  0.20507  0.13981  0.89285  1.0000
  H   H151      1.0  0.21566  0.14082  0.82829  1.0000
  H   H152      1.0  0.21509  0.19390  0.82812  1.0000
  C   C101      1.0  0.05571  0.18740  0.84797  1.0000
  C   C102      1.0  0.06498  0.16350  0.85214  1.0000
  C   C103      1.0  0.06001  0.14165  0.86582  1.0000
  C   C104      1.0  0.04568  0.14347  0.87569  1.0000
  C   C105      1.0  0.03637  0.16729  0.87142  1.0000
  C   C106      1.0  0.04125  0.18892  0.85751  1.0000
  H   H153      1.0  0.07613  0.16188  0.84476  1.0000
  H   H154      1.0  0.06733  0.12355  0.86890  1.0000
  H   H155      1.0  0.02520  0.16879  0.87875  1.0000
  H   H156      1.0  0.03373  0.20650  0.85399  1.0000
  C   C107      1.0  0.04378  0.38344  0.86344  1.0000
  C   C108      1.0  0.04259  0.39765  0.88234  1.0000
  C   C109      1.0  0.04296  0.42776  0.88320  1.0000
  C   C110      1.0  0.04430  0.44394  0.86511  1.0000
  C   C111      1.0  0.04546  0.42973  0.84623  1.0000
  C   C112      1.0  0.04531  0.39965  0.84540  1.0000
  H   H157      1.0  0.04134  0.38534  0.89637  1.0000
  H   H158      1.0  0.04194  0.43842  0.89782  1.0000
  H   H159      1.0  0.04645  0.44201  0.83216  1.0000
  H   H160      1.0  0.04613  0.38907  0.83075  1.0000
  C   C113      1.0  0.11650  0.30987  0.79475  1.0000
  C   C114      1.0  0.13051  0.32462  0.79518  1.0000
  C   C115      1.0  0.14453  0.30972  0.79474  1.0000
  C   C116      1.0  0.14465  0.27992  0.79323  1.0000
  C   C117      1.0  0.13062  0.26517  0.79277  1.0000
  C   C118      1.0  0.11660  0.28001  0.79381  1.0000
  H   H161      1.0  0.13055  0.34772  0.79580  1.0000
  H   H162      1.0  0.15523  0.32135  0.79501  1.0000
  H   H163      1.0  0.13058  0.24215  0.79142  1.0000
  H   H164      1.0  0.10591  0.26839  0.79334  1.0000
  H   H165      1.0  0.02932  0.26858  0.90921  1.0000
  H   H166      1.0  0.13647  0.44741  0.87581  1.0000
  S   S62       1.0  0.04415  0.48186  0.86529  1.0000
  H   H167      1.0  0.20497  0.09145  0.98142  1.0000
  S   S63       1.0  0.01896  0.02298  0.96314  1.0000
  H   H168      1.0  0.01474  0.09418  0.50184  1.0000
  H   H169      1.0  0.25208  0.40586  0.78322  1.0000
  C   C119      1.0  0.17491  0.04521  0.98285  1.0000
  H   H170      1.0  0.25089  0.00037  0.51528  1.0000
  S   S64       1.0  0.20071  0.46002  0.89846  1.0000
  N   N9        1.0  0.07904  0.32019  0.73596  1.0000
  C   C120      1.0  0.07387  0.34065  0.75176  1.0000
  C   C121      1.0  0.09201  0.30333  0.74385  1.0000
  C   C122      1.0  0.08399  0.33606  0.71732  1.0000
  C   C123      1.0  0.06626  0.30083  0.73101  1.0000
  H   H171      1.0  0.06385  0.35339  0.74668  1.0000
  H   H172      1.0  0.08318  0.35564  0.75604  1.0000
  H   H173      1.0  0.07031  0.32922  0.76600  1.0000
  H   H174      1.0  0.09629  0.28760  0.73240  1.0000
  H   H175      1.0  0.10177  0.31736  0.74805  1.0000
  H   H176      1.0  0.08870  0.29126  0.75804  1.0000
  H   H177      1.0  0.08799  0.32128  0.70504  1.0000
  H   H178      1.0  0.09360  0.35091  0.72063  1.0000
  H   H179      1.0  0.07445  0.34907  0.71108  1.0000
  H   H180      1.0  0.06962  0.28516  0.71901  1.0000
  H   H181      1.0  0.05612  0.31292  0.72550  1.0000
  H   H182      1.0  0.06225  0.28848  0.74475  1.0000
  N   N10       1.0  0.16145  0.21304  0.84635  1.0000
  C   C124      1.0  0.15041  0.23525  0.84013  1.0000
  C   C125      1.0  0.15341  0.18551  0.84950  1.0000
  C   C126      1.0  0.16878  0.22163  0.86561  1.0000
  C   C127      1.0  0.17330  0.20982  0.83008  1.0000
  H   H183      1.0  0.14132  0.23855  0.85204  1.0000
  H   H184      1.0  0.14471  0.22946  0.82560  1.0000
  H   H185      1.0  0.15621  0.25618  0.83726  1.0000
  H   H186      1.0  0.14434  0.18713  0.86165  1.0000
  H   H187      1.0  0.14786  0.17841  0.83516  1.0000
  H   H188      1.0  0.16148  0.16834  0.85420  1.0000
  H   H189      1.0  0.17723  0.20539  0.87067  1.0000
  H   H190      1.0  0.16022  0.22446  0.87826  1.0000
  H   H191      1.0  0.17515  0.24216  0.86364  1.0000
  H   H192      1.0  0.18166  0.19279  0.83394  1.0000
  H   H193      1.0  0.17984  0.22999  0.82783  1.0000
  H   H194      1.0  0.16821  0.20450  0.81504  1.0000
  H   H195      1.0  0.24034  0.38998  0.81627  1.0000
  H   H196      1.0  0.22829  0.37695  0.78353  1.0000
  H   H197      1.0  0.22840  0.12025  0.96130  1.0000
  C   C128      1.0  0.01774  0.33168  0.74750  1.0000
  H   H198      1.0  0.24422  0.21959  0.67839  1.0000
  H   H199      1.0  0.07045  0.99291  0.85433  1.0000
  H   H200      1.0  0.01762  0.45982  0.96298  1.0000
  H   H201      1.0  0.20374  0.02603  0.97731  1.0000
  H   H202      1.0  0.12443  0.98978  0.91318  1.0000
  H   H203      1.0  0.25398  0.23021  0.62295  1.0000
  H   H204      1.0  0.16799  0.45310  0.91333  1.0000
  C   C129      1.0  0.24542  0.11262  0.88692  1.0000
  C   C130      1.0  0.14251  0.44897  0.89064  1.0000
  C   C131      1.0  0.01434  0.35802  0.75655  1.0000
  C   C132      1.0  0.24874  0.25353  0.74939  1.0000
  H   H205      1.0  0.01373  0.14093  0.51916  1.0000
  H   H206      1.0  0.25339  0.31762  0.80038  1.0000
  N   N11       1.0  0.04971  0.26318  0.89074  1.0000
  C   C133      1.0  0.04126  0.26329  0.87134  1.0000
  C   C134      1.0  0.05222  0.23332  0.89748  1.0000
  C   C135      1.0  0.04071  0.27871  0.90649  1.0000
  C   C136      1.0  0.06465  0.27751  0.88747  1.0000
  H   H207      1.0  0.03890  0.28547  0.86602  1.0000
  H   H208      1.0  0.03005  0.25215  0.87304  1.0000
  H   H209      1.0  0.04788  0.25248  0.85893  1.0000
  H   H210      1.0  0.05839  0.23230  0.91223  1.0000
  H   H211      1.0  0.04121  0.22154  0.89959  1.0000
  H   H212      1.0  0.05917  0.22128  0.88591  1.0000
  H   H213      1.0  0.04672  0.27920  0.92137  1.0000
  N   N12       1.0  0.25033  0.36225  0.79345  1.0000
  H   H214      1.0  0.03868  0.30132  0.90163  1.0000
  H   H215      1.0  0.07179  0.26609  0.87580  1.0000
  H   H216      1.0  0.07126  0.27831  0.90185  1.0000
  H   H217      1.0  0.06317  0.29994  0.88191  1.0000
  H   H218      1.0  0.23738  0.35099  0.76687  1.0000
  C   C137      1.0  0.01025  0.46657  0.97554  1.0000
  H   H219      1.0  0.25135  0.46635  0.51364  1.0000
  H   H220      1.0  0.23561  0.09761  0.88891  1.0000
  H   H221      1.0  0.01926  0.36329  0.77116  1.0000
  H   H222      1.0  0.22900  0.34022  0.79085  1.0000
  C   C138      1.0  0.24137  0.22763  0.74537  1.0000
  H   H223      1.0  0.01507  0.98574  0.92900  1.0000
  C   C139      1.0  0.23721  0.11340  0.97164  1.0000
  H   H224      1.0  0.24021  0.27089  0.66878  1.0000
  C   C140      1.0  0.24096  0.08437  0.97303  1.0000
  C   C141      1.0  0.16546  0.46647  0.87358  1.0000
  H   H225      1.0  0.24161  0.13003  0.87645  1.0000
  C   C142      1.0  0.24626  0.38619  0.49028  1.0000
  C   C143      1.0  0.00813  0.99532  0.97569  1.0000
  H   H226      1.0  0.24002  0.00712  0.53844  1.0000
  C   C144      1.0  0.01119  0.32543  0.72843  1.0000
  C   C145      1.0  0.25183  0.00487  0.53196  1.0000
  C   C146      1.0  0.23564  0.35752  0.78313  1.0000
  H   H227      1.0  0.23588  0.26124  0.64287  1.0000
  H   H228      1.0  0.17127  0.44558  0.87602  1.0000
  H   H229      1.0  0.23054  0.22281  0.75294  1.0000
  H   H230      1.0  0.14795  0.42787  0.89369  1.0000
  N   N13       1.0  0.15403  0.47215  0.89006  1.0000
  H   H231      1.0  0.23892  0.21035  0.65268  1.0000
  H   H232      1.0  0.24140  0.40730  0.49194  1.0000
  H   H233      1.0  0.24995  0.47771  0.55978  1.0000
  C   C147      1.0  0.23749  0.13936  0.91678  1.0000
  H   H234      1.0  0.24553  0.08432  0.92271  1.0000
  H   H235      1.0  0.16016  0.46590  0.85822  1.0000
  H   H236      1.0  0.24992  0.99080  0.57209  1.0000
  H   H237      1.0  0.24076  0.35312  0.82346  1.0000
  H   H238      1.0  0.01368  0.30516  0.72124  1.0000
  H   H239      1.0  0.02024  0.25482  0.50651  1.0000
  H   H240      1.0  0.22754  0.12495  0.91970  1.0000
  C   C148      1.0  0.01234  0.24332  0.49701  1.0000
  H   H241      1.0  0.05597  0.46145  0.98415  1.0000
  H   H242      1.0  0.17677  0.03541  0.96750  1.0000
  H   H243      1.0  0.24171  0.15600  0.98280  1.0000
  H   H244      1.0  0.13371  0.45259  0.90293  1.0000
  H   H245      1.0  0.16567  0.06136  0.98095  1.0000
  C   C149      1.0  0.16177  0.47333  0.91000  1.0000
  H   H246      1.0  0.10728  0.98504  0.88133  1.0000
  C   C150      1.0  0.24733  0.37012  0.81509  1.0000
  H   H247      1.0  0.24084  0.14843  0.93179  1.0000
  C   C151      1.0  0.09889  0.99018  0.86919  1.0000
  N   N14       1.0  0.25034  0.12387  0.90687  1.0000
  H   H248      1.0  0.25476  0.10073  0.87892  1.0000
  C   C152      1.0  0.25504  0.09987  0.92020  1.0000
  C   C153      1.0  0.25227  0.07601  0.98696  1.0000
  Fe  Fe33      1.0  0.06918  0.55979  0.30848  1.0000
  S   S65       1.0  0.06219  0.54236  0.33948  1.0000
  S   S66       1.0  0.09286  0.58034  0.30512  1.0000
  Fe  Fe34      1.0  0.03634  0.55302  0.29126  1.0000
  S   S67       1.0  0.02757  0.53526  0.32151  1.0000
  H   H249      1.0  0.00699  0.64982  0.24080  1.0000
  Fe  Fe35      1.0  0.04144  0.57024  0.33570  1.0000
  S   S68       1.0  0.03261  0.59717  0.36210  1.0000
  Fe  Fe36      1.0  0.04907  0.50878  0.32251  1.0000
  S   S69       1.0  0.04833  0.95864  0.32294  1.0000
  S   S70       1.0  0.04890  0.58964  0.30566  1.0000
  S   S71       1.0  0.05737  0.52474  0.29130  1.0000
  Fe  Fe37      1.0  0.21593  0.52854  0.29179  1.0000
  S   S72       1.0  0.22369  0.54206  0.32315  1.0000
  S   S73       1.0  0.23489  0.52626  0.26657  1.0000
  Fe  Fe38      1.0  0.18181  0.53264  0.30596  1.0000
  S   S74       1.0  0.18772  0.54740  0.33759  1.0000
  S   S75       1.0  0.15764  0.51735  0.29877  1.0000
  Fe  Fe39      1.0  0.20536  0.57590  0.32215  1.0000
  S   S76       1.0  0.21329  0.62218  0.32801  1.0000
  Fe  Fe40      1.0  0.20550  0.51261  0.33596  1.0000
  H   H250      1.0  0.17033  0.74353  0.41838  1.0000
  S   S77       1.0  0.19814  0.56358  0.29020  1.0000
  H   H251      1.0  0.07872  0.84305  0.39699  1.0000
  Fe  Fe41      1.0  0.04262  0.77050  0.43406  1.0000
  S   S78       1.0  0.02968  0.78888  0.40726  1.0000
  S   S79       1.0  0.03367  0.75854  0.46672  1.0000
  Fe  Fe42      1.0  0.07371  0.77358  0.41004  1.0000
  S   S80       1.0  0.06258  0.79130  0.38193  1.0000
  S   S81       1.0  0.09904  0.76391  0.40398  1.0000
  Fe  Fe43      1.0  0.04931  0.82031  0.40283  1.0000
  S   S82       1.0  0.04891  0.86958  0.39892  1.0000
  Fe  Fe44      1.0  0.04422  0.75853  0.38825  1.0000
  S   S83       1.0  0.03727  0.73281  0.36046  1.0000
  S   S84       1.0  0.06138  0.80406  0.43108  1.0000
  S   S85       1.0  0.05615  0.73878  0.41497  1.0000
  Fe  Fe45      1.0  0.18369  0.80701  0.42800  1.0000
  S   S86       1.0  0.18691  0.79318  0.39555  1.0000
  S   S87       1.0  0.16006  0.81197  0.44300  1.0000
  Fe  Fe46      1.0  0.21850  0.80663  0.43614  1.0000
  S   S88       1.0  0.22393  0.79141  0.40375  1.0000
  S   S89       1.0  0.23627  0.80800  0.46206  1.0000
  Fe  Fe47      1.0  0.20647  0.82449  0.39437  1.0000
  S   S90       1.0  0.20792  0.84899  0.36409  1.0000
  Fe  Fe48      1.0  0.20385  0.76109  0.40704  1.0000
  S   S91       1.0  0.19862  0.71427  0.39854  1.0000
  S   S92       1.0  0.20202  0.84114  0.42630  1.0000
  S   S93       1.0  0.19969  0.77365  0.44002  1.0000
  C   C154      1.0  0.11549  0.77942  0.41477  1.0000
  C   C155      1.0  0.12919  0.77977  0.40314  1.0000
  C   C156      1.0  0.14280  0.79046  0.41138  1.0000
  C   C157      1.0  0.14294  0.80036  0.43155  1.0000
  C   C158      1.0  0.12921  0.80026  0.44316  1.0000
  C   C159      1.0  0.11551  0.78994  0.43480  1.0000
  H   H252      1.0  0.12928  0.77161  0.38765  1.0000
  H   H253      1.0  0.15322  0.79065  0.40220  1.0000
  H   H254      1.0  0.12922  0.80781  0.45882  1.0000
  H   H255      1.0  0.10508  0.78938  0.44403  1.0000
  C   C160      1.0  0.20919  0.64709  0.34808  1.0000
  C   C161      1.0  0.21777  0.67259  0.34892  1.0000
  C   C162      1.0  0.21489  0.69315  0.36432  1.0000
  C   C163      1.0  0.20314  0.68884  0.37892  1.0000
  C   C164      1.0  0.19461  0.66330  0.37813  1.0000
  C   C165      1.0  0.19761  0.64255  0.36289  1.0000
  H   H256      1.0  0.22688  0.67625  0.33775  1.0000
  H   H257      1.0  0.22200  0.71195  0.36512  1.0000
  H   H258      1.0  0.18558  0.65945  0.38939  1.0000
  H   H259      1.0  0.19090  0.62311  0.36253  1.0000
  C   C166      1.0  0.21207  0.94691  0.36031  1.0000
  C   C167      1.0  0.20745  0.93118  0.34334  1.0000
  C   C168      1.0  0.20617  0.90121  0.34474  1.0000
  C   C169      1.0  0.20914  0.88678  0.36323  1.0000
  C   C170      1.0  0.21349  0.90255  0.38030  1.0000
  C   C171      1.0  0.21510  0.93246  0.37876  1.0000
  H   H260      1.0  0.20505  0.94201  0.32907  1.0000
  H   H261      1.0  0.20279  0.88917  0.33147  1.0000
  H   H262      1.0  0.21587  0.89170  0.39460  1.0000
  H   H263      1.0  0.21870  0.94445  0.39196  1.0000
  C   C172      1.0  0.04852  0.93438  0.34440  1.0000
  C   C173      1.0  0.04898  0.90472  0.34073  1.0000
  C   C174      1.0  0.04912  0.88461  0.35708  1.0000
  C   C175      1.0  0.04877  0.89384  0.37746  1.0000
  C   C176      1.0  0.04859  0.92353  0.38113  1.0000
  C   C177      1.0  0.04847  0.94364  0.36478  1.0000
  H   H264      1.0  0.04900  0.89714  0.32509  1.0000
  H   H265      1.0  0.04925  0.86195  0.35387  1.0000
  H   H266      1.0  0.04826  0.93106  0.39678  1.0000
  H   H267      1.0  0.04804  0.96628  0.36799  1.0000
  C   C178      1.0  0.03430  0.63484  0.36157  1.0000
  C   C179      1.0  0.03362  0.65011  0.38002  1.0000
  C   C180      1.0  0.03482  0.68013  0.37998  1.0000
  C   C181      1.0  0.03631  0.69513  0.36141  1.0000
  C   C182      1.0  0.03687  0.67984  0.34295  1.0000
  C   C183      1.0  0.03608  0.64982  0.34304  1.0000
  H   H268      1.0  0.03218  0.63871  0.39444  1.0000
  H   H269      1.0  0.03424  0.69171  0.39429  1.0000
  H   H270      1.0  0.03803  0.69136  0.32855  1.0000
  H   H271      1.0  0.03661  0.63833  0.32877  1.0000
  C   C184      1.0  0.11073  0.56217  0.30450  1.0000
  C   C185      1.0  0.12433  0.57802  0.30647  1.0000
  C   C186      1.0  0.13878  0.56460  0.30531  1.0000
  C   C187      1.0  0.13978  0.53521  0.30176  1.0000
  C   C188      1.0  0.12618  0.51935  0.29993  1.0000
  C   C189      1.0  0.11174  0.53266  0.30149  1.0000
  H   H272      1.0  0.12371  0.60088  0.30861  1.0000
  H   H273      1.0  0.14913  0.57711  0.30660  1.0000
  H   H274      1.0  0.25224  0.92931  0.24885  1.0000
  H   H275      1.0  0.10140  0.52021  0.29981  1.0000
  H   H276      1.0  0.09883  0.92730  0.34189  1.0000
  H   H277      1.0  0.23136  0.97351  0.31716  1.0000
  C   C190      1.0  0.24251  0.49959  0.24959  1.0000
  C   C191      1.0  0.01219  0.58719  0.17859  1.0000
  C   C192      1.0  0.24581  0.57636  0.99524  1.0000
  H   H278      1.0  0.09987  0.92862  0.31429  1.0000
  C   C193      1.0  0.25314  0.73251  0.00769  1.0000
  H   H279      1.0  0.06165  0.54884  0.00125  1.0000
  H   H280      1.0  0.00970  0.60737  0.32954  1.0000
  H   H281      1.0  0.12680  0.49667  0.29695  1.0000
  N   N15       1.0  0.16224  0.71361  0.44127  1.0000
  H   H282      1.0  0.02424  0.58824  0.17285  1.0000
  H   H283      1.0  0.07615  0.51096  0.01896  1.0000
  C   C194      1.0  0.24141  0.95898  0.31759  1.0000
  H   H284      1.0  0.17808  0.69113  0.46046  1.0000
  H   H285      1.0  0.03514  0.50617  0.00465  1.0000
  C   C195      1.0  0.24383  0.51449  0.17088  1.0000
  H   H286      1.0  0.23687  0.59269  0.26575  1.0000
  H   H287      1.0  0.06601  0.66731  0.36399  1.0000
  H   H288      1.0  0.19472  0.72738  0.33814  1.0000
  H   H289      1.0  0.24443  0.59508  0.32154  1.0000
  H   H290      1.0  0.08643  0.84956  0.44283  1.0000
  C   C196      1.0  0.08453  0.86886  0.43310  1.0000
  C   C197      1.0  0.01713  0.74055  0.47735  1.0000
  H   H291      1.0  0.25093  0.97501  0.35432  1.0000
  S   S94       1.0  0.01838  0.55164  0.26575  1.0000
  H   H292      1.0  0.08681  0.88800  0.44258  1.0000
  H   H293      1.0  0.07996  0.60881  0.36987  1.0000
  H   H294      1.0  0.04791  0.51494  0.02488  1.0000
  C   C198      1.0  0.09410  0.93791  0.32808  1.0000
  H   H295      1.0  0.22089  0.78219  0.31481  1.0000
  H   H296      1.0  0.07760  0.97576  0.30811  1.0000
  H   H297      1.0  0.21099  0.81215  0.32584  1.0000
  H   H298      1.0  0.01024  0.97113  0.08895  1.0000
  H   H299      1.0  0.01040  0.56601  0.18616  1.0000
  H   H300      1.0  0.21138  0.73257  0.32210  1.0000
  H   H301      1.0  0.23889  0.94279  0.32981  1.0000
  N   N16       1.0  0.20216  0.77110  0.33525  1.0000
  H   H302      1.0  0.17934  0.78461  0.32805  1.0000
  H   H303      1.0  0.08172  0.93212  0.32743  1.0000
  H   H304      1.0  0.01922  0.63167  0.29792  1.0000
  H   H305      1.0  0.14833  0.74732  0.45395  1.0000
  C   C199      1.0  0.20019  0.74218  0.32668  1.0000
  H   H306      1.0  0.01338  0.96667  0.02358  1.0000
  H   H307      1.0  0.01368  0.66550  0.30862  1.0000
  C   C200      1.0  0.09075  0.84272  0.40229  1.0000
  C   C201      1.0  0.00847  0.57819  0.25116  1.0000
  C   C202      1.0  0.21202  0.76938  0.35336  1.0000
  H   H308      1.0  0.06393  0.61613  0.35400  1.0000
  C   C203      1.0  0.24636  0.83425  0.47660  1.0000
  C   C204      1.0  0.04635  0.50059  0.01155  1.0000
  H   H309      1.0  0.19285  0.74258  0.31291  1.0000
  H   H310      1.0  0.24217  0.94766  0.30266  1.0000
  H   H311      1.0  0.17441  0.48967  0.35960  1.0000
  H   H312      1.0  0.15175  0.67420  0.43227  1.0000
  H   H313      1.0  0.17982  0.68311  0.43351  1.0000
  H   H314      1.0  0.15958  0.72828  0.47238  1.0000
  N   N17       1.0  0.09430  0.86845  0.41433  1.0000
  C   C205      1.0  0.11058  0.86789  0.42008  1.0000
  C   C206      1.0  0.09128  0.89424  0.40183  1.0000
  H   H315      1.0  0.09216  0.82292  0.41157  1.0000
  H   H316      1.0  0.11376  0.88724  0.42887  1.0000
  H   H317      1.0  0.11830  0.86665  0.40634  1.0000
  H   H318      1.0  0.11310  0.84901  0.42989  1.0000
  H   H319      1.0  0.07904  0.89526  0.39738  1.0000
  H   H320      1.0  0.09379  0.91410  0.41042  1.0000
  H   H321      1.0  0.09830  0.89437  0.38743  1.0000
  H   H322      1.0  0.08255  0.65986  0.37885  1.0000
  H   H323      1.0  0.07215  0.86915  0.42930  1.0000
  S   S95       1.0  0.19905  0.49656  0.30497  1.0000
  C   C207      1.0  0.00956  0.64701  0.29956  1.0000
  H   H324      1.0  0.01559  0.62245  0.14587  1.0000
  H   H325      1.0  0.00589  0.50248  0.29330  1.0000
  H   H326      1.0  0.24300  0.50130  0.18519  1.0000
  H   H327      1.0  0.08344  0.49874  0.99460  1.0000
  N   N18       1.0  0.25223  0.60164  0.29037  1.0000
  H   H328      1.0  0.01515  0.57007  0.13926  1.0000
  H   H329      1.0  0.15442  0.49243  0.36617  1.0000
  H   H330      1.0  0.02192  0.61409  0.26062  1.0000
  H   H331      1.0  0.01077  0.60373  0.19072  1.0000
  C   C208      1.0  0.01638  0.97855  0.07472  1.0000
  H   H332      1.0  0.19528  0.97462  0.24311  1.0000
  H   H333      1.0  0.11908  0.96873  0.31589  1.0000
  H   H334      1.0  0.06552  0.65348  0.32721  1.0000
  H   H335      1.0  0.23198  0.51873  0.16573  1.0000
  H   H336      1.0  0.24426  0.55483  0.00107  1.0000
  H   H337      1.0  0.09618  0.97560  0.29598  1.0000
  C   C209      1.0  0.23666  0.59963  0.28206  1.0000
  N   N19       1.0  0.05902  0.50367  0.99633  1.0000
  H   H338      1.0  0.08151  0.63530  0.31580  1.0000
  H   H339      1.0  0.16848  0.75350  0.45508  1.0000
  H   H340      1.0  0.15007  0.68192  0.45922  1.0000
  H   H341      1.0  0.00687  0.65507  0.28392  1.0000
  H   H342      1.0  0.10586  0.66120  0.34317  1.0000
  H   H343      1.0  0.02285  0.92739  0.05717  1.0000
  S   S96       1.0  0.20711  0.48519  0.36476  1.0000
  C   C210      1.0  0.07662  0.61538  0.35415  1.0000
  H   H344      1.0  0.22344  0.76027  0.34944  1.0000
  N   N20       1.0  0.08344  0.64319  0.34812  1.0000
  C   C211      1.0  0.17734  0.70040  0.44476  1.0000
  H   H345      1.0  0.24029  0.87072  0.45825  1.0000
  H   H346      1.0  0.18674  0.71630  0.44288  1.0000
  H   H347      1.0  0.09832  0.84075  0.38847  1.0000
  H   H348      1.0  0.15043  0.73440  0.41673  1.0000
  H   H349      1.0  0.03268  0.48598  0.29101  1.0000
  H   H350      1.0  0.24546  0.63166  0.31368  1.0000
  H   H351      1.0  0.08309  0.67236  0.32246  1.0000
  H   H352      1.0  0.16486  0.70945  0.40853  1.0000
  H   H353      1.0  0.22967  0.58367  0.29073  1.0000
  C   C212      1.0  0.20940  0.79016  0.31968  1.0000
  H   H354      1.0  0.21402  0.79086  0.35996  1.0000
  H   H355      1.0  0.07555  0.97648  0.34641  1.0000
  H   H356      1.0  0.20229  0.79208  0.30576  1.0000
  H   H357      1.0  0.18125  0.76890  0.35312  1.0000
  H   H358      1.0  0.10468  0.63413  0.36290  1.0000
  C   C213      1.0  0.16192  0.72577  0.42030  1.0000
  C   C214      1.0  0.15012  0.69169  0.44359  1.0000
  H   H359      1.0  0.23045  0.62035  0.28312  1.0000
  H   H360      1.0  0.23669  0.96591  0.26736  1.0000
  H   H361      1.0  0.18815  0.80449  0.34810  1.0000
  H   H362      1.0  0.24901  0.53538  0.17502  1.0000
  H   H363      1.0  0.10415  0.62417  0.33637  1.0000
  C   C215      1.0  0.07817  0.65147  0.32750  1.0000
  C   C216      1.0  0.15953  0.73658  0.45636  1.0000
  H   H364      1.0  0.08338  0.68665  0.35893  1.0000
  C   C217      1.0  0.07868  0.66520  0.36312  1.0000
  C   C218      1.0  0.10029  0.64062  0.34765  1.0000
  C   C219      1.0  0.11265  0.97631  0.32972  1.0000
  C   C220      1.0  0.18705  0.78275  0.34138  1.0000
  H   H365      1.0  0.08028  0.59813  0.34349  1.0000
  H   H366      1.0  0.20673  0.75586  0.36570  1.0000
  H   H367      1.0  0.13857  0.70108  0.44117  1.0000
  H   H368      1.0  0.24116  0.73732  0.01259  1.0000
  H   H369      1.0  0.24249  0.52294  0.13006  1.0000
  N   N21       1.0  0.00956  0.96607  0.05624  1.0000
  C   C221      1.0  0.24661  0.86335  0.47137  1.0000
  H   H370      1.0  0.09236  0.97108  0.36140  1.0000
  H   H371      1.0  0.11799  0.96661  0.34345  1.0000
  N   N22       1.0  0.25303  0.49996  0.15482  1.0000
  C   C222      1.0  0.16265  0.48694  0.35360  1.0000
  C   C223      1.0  0.24410  0.97223  0.25466  1.0000
  H   H372      1.0  0.16121  0.50301  0.34111  1.0000
  N   N23       1.0  0.09618  0.96924  0.32873  1.0000
  H   H373      1.0  0.25323  0.55682  0.29784  1.0000
  C   C224      1.0  0.01235  0.60722  0.25162  1.0000
  C   C225      1.0  0.07374  0.49654  0.00590  1.0000
  C   C226      1.0  0.01072  0.93456  0.05717  1.0000
  H   H374      1.0  0.25169  0.77403  0.03631  1.0000
  C   C227      1.0  0.25289  0.95148  0.24406  1.0000
  C   C228      1.0  0.25401  0.51812  0.13615  1.0000
  H   H375      1.0  0.25348  0.70967  0.00283  1.0000
  H   H376      1.0  0.24802  0.72397  0.04807  1.0000
  C   C229      1.0  0.25125  0.61058  0.31206  1.0000
  C   C230      1.0  0.05957  0.53346  0.98868  1.0000
  C   C231      1.0  0.01778  0.97678  0.03768  1.0000
  H   H377      1.0  0.03023  0.97199  0.03818  1.0000
  H   H378      1.0  0.02863  0.97245  0.07605  1.0000
  C   C232      1.0  0.08809  0.98076  0.34699  1.0000
  C   C233      1.0  0.08975  0.98217  0.31006  1.0000
  C   C234      1.0  0.25520  0.88295  0.48299  1.0000
  C   C235      1.0  0.25523  0.59565  0.00595  1.0000
  Fe  Fe49      1.0  0.03799  0.80732  0.78806  1.0000
  S   S97       1.0  0.02490  0.79221  0.81638  1.0000
  S   S98       1.0  0.03079  0.82359  0.75592  1.0000
  Fe  Fe50      1.0  0.06913  0.79969  0.80945  1.0000
  S   S99       1.0  0.05825  0.78436  0.83897  1.0000
  S   S100      1.0  0.09397  0.81477  0.80859  1.0000
  Fe  Fe51      1.0  0.04289  0.75763  0.81966  1.0000
  S   S101      1.0  0.03434  0.71257  0.82914  1.0000
  Fe  Fe52      1.0  0.04113  0.81946  0.83432  1.0000
  S   S102      1.0  0.03477  0.84339  0.86348  1.0000
  S   S103      1.0  0.05494  0.77060  0.78986  1.0000
  S   S104      1.0  0.05297  0.83683  0.80616  1.0000
  Fe  Fe53      1.0  0.18068  0.77282  0.79857  1.0000
  S   S105      1.0  0.18191  0.78923  0.83076  1.0000
  S   S106      1.0  0.15820  0.75756  0.78523  1.0000
  Fe  Fe54      1.0  0.21574  0.77621  0.79088  1.0000
  S   S107      1.0  0.21907  0.79334  0.82282  1.0000
  S   S108      1.0  0.23852  0.77274  0.77241  1.0000
  Fe  Fe55      1.0  0.20214  0.75961  0.83305  1.0000
  S   S109      1.0  0.20670  0.73320  0.86162  1.0000
  Fe  Fe56      1.0  0.19865  0.82169  0.81789  1.0000
  S   S110      1.0  0.19743  0.87056  0.82184  1.0000
  S   S111      1.0  0.19998  0.74089  0.80170  1.0000
  S   S112      1.0  0.19628  0.80681  0.78510  1.0000
  Fe  Fe57      1.0  0.03518  0.52593  0.93707  1.0000
  S   S113      1.0  0.02956  0.54069  0.90478  1.0000
  S   S114      1.0  0.01869  0.52307  0.96527  1.0000
  Fe  Fe58      1.0  0.06965  0.52377  0.92714  1.0000
  S   S115      1.0  0.06674  0.53717  0.89446  1.0000
  S   S116      1.0  0.09200  0.51190  0.94250  1.0000
  Fe  Fe59      1.0  0.05002  0.57023  0.90601  1.0000
  S   S117      1.0  0.05460  0.61635  0.89431  1.0000
  Fe  Fe60      1.0  0.04667  0.50705  0.89472  1.0000
  H   H379      1.0  0.18386  0.65422  0.90235  1.0000
  S   S118      1.0  0.05429  0.55848  0.93910  1.0000
  H   H380      1.0  0.24384  0.77547  0.68177  1.0000
  Fe  Fe61      1.0  0.17974  0.55676  0.91685  1.0000
  S   S119      1.0  0.18799  0.54022  0.88645  1.0000
  S   S120      1.0  0.15494  0.57192  0.91561  1.0000
  Fe  Fe62      1.0  0.21249  0.55525  0.93472  1.0000
  S   S121      1.0  0.22263  0.53823  0.90495  1.0000
  S   S122      1.0  0.22644  0.55905  0.96445  1.0000
  Fe  Fe63      1.0  0.20744  0.57110  0.88985  1.0000
  S   S123      1.0  0.21209  0.59780  0.86113  1.0000
  Fe  Fe64      1.0  0.20215  0.50870  0.90383  1.0000
  S   S124      1.0  0.20614  0.95952  0.89549  1.0000
  S   S125      1.0  0.19855  0.58962  0.91938  1.0000
  S   S126      1.0  0.19274  0.52361  0.93455  1.0000
  H   H381      1.0  0.02089  0.71237  0.87624  1.0000
  C   C236      1.0  0.15457  0.67235  0.90143  1.0000
  H   H382      1.0  0.24023  0.49364  0.52617  1.0000
  C   C237      1.0  0.07993  0.95918  0.88502  1.0000
  H   H383      1.0  0.00528  0.94854  0.88096  1.0000
  C   C238      1.0  0.10954  0.52798  0.93442  1.0000
  C   C239      1.0  0.10987  0.55099  0.92061  1.0000
  C   C240      1.0  0.12389  0.56404  0.91504  1.0000
  C   C241      1.0  0.13776  0.55408  0.92298  1.0000
  C   C242      1.0  0.13750  0.53079  0.93658  1.0000
  C   C243      1.0  0.12343  0.51787  0.94231  1.0000
  H   H384      1.0  0.09928  0.55910  0.91452  1.0000
  H   H385      1.0  0.12393  0.58211  0.90460  1.0000
  H   H386      1.0  0.14807  0.52324  0.94306  1.0000
  C   C244      1.0  0.23689  0.72818  0.74387  1.0000
  C   C245      1.0  0.03910  0.75787  0.88204  1.0000
  H   H387      1.0  0.14678  0.61956  0.89004  1.0000
  H   H388      1.0  0.05813  0.59195  0.81347  1.0000
  H   H389      1.0  0.14491  0.68422  0.89446  1.0000
  H   H390      1.0  0.04980  0.54224  0.80583  1.0000
  C   C246      1.0  0.20334  0.93522  0.87480  1.0000
  C   C247      1.0  0.20589  0.90580  0.87811  1.0000
  C   C248      1.0  0.20395  0.88566  0.86228  1.0000
  C   C249      1.0  0.19945  0.89469  0.84280  1.0000
  C   C250      1.0  0.19701  0.92411  0.83941  1.0000
  C   C251      1.0  0.19887  0.94423  0.85528  1.0000
  H   H391      1.0  0.20934  0.89851  0.89312  1.0000
  H   H392      1.0  0.20591  0.86320  0.86522  1.0000
  H   H393      1.0  0.19356  0.93145  0.82443  1.0000
  H   H394      1.0  0.19687  0.96670  0.85240  1.0000
  C   C252      1.0  0.20783  0.69552  0.86128  1.0000
  C   C253      1.0  0.20493  0.68000  0.84352  1.0000
  C   C254      1.0  0.20627  0.65003  0.84367  1.0000
  C   C255      1.0  0.21015  0.63532  0.86169  1.0000
  C   C256      1.0  0.21272  0.65079  0.87956  1.0000
  C   C257      1.0  0.21163  0.68079  0.87931  1.0000
  H   H395      1.0  0.20154  0.69103  0.82974  1.0000
  H   H396      1.0  0.20416  0.63813  0.82983  1.0000
  H   H397      1.0  0.21587  0.63968  0.89347  1.0000
  H   H398      1.0  0.21387  0.69265  0.89313  1.0000
  C   C258      1.0  0.04042  0.68585  0.84704  1.0000
  C   C259      1.0  0.03123  0.66139  0.85033  1.0000
  C   C260      1.0  0.03527  0.64001  0.86471  1.0000
  C   C261      1.0  0.04867  0.64265  0.87599  1.0000
  C   C262      1.0  0.05783  0.66716  0.87274  1.0000
  C   C263      1.0  0.05378  0.68855  0.85838  1.0000
  H   H399      1.0  0.02079  0.65910  0.84182  1.0000
  H   H400      1.0  0.02788  0.62174  0.86726  1.0000
  H   H401      1.0  0.06822  0.66954  0.88133  1.0000
  H   H402      1.0  0.06110  0.70699  0.85601  1.0000
  C   C264      1.0  0.03671  0.88106  0.86383  1.0000
  C   C265      1.0  0.03829  0.89518  0.88264  1.0000
  C   C266      1.0  0.03916  0.92524  0.88339  1.0000
  C   C267      1.0  0.03794  0.94143  0.86536  1.0000
  C   C268      1.0  0.03647  0.92728  0.84658  1.0000
  C   C269      1.0  0.03604  0.89725  0.84576  1.0000
  H   H403      1.0  0.03892  0.88277  0.89667  1.0000
  H   H404      1.0  0.04058  0.93576  0.89793  1.0000
  H   H405      1.0  0.03549  0.93962  0.83255  1.0000
  H   H406      1.0  0.03471  0.88666  0.83121  1.0000
  C   C270      1.0  0.11155  0.79725  0.80296  1.0000
  C   C271      1.0  0.12526  0.81111  0.80793  1.0000
  C   C272      1.0  0.13957  0.79888  0.80302  1.0000
  C   C273      1.0  0.14036  0.77283  0.79268  1.0000
  C   C274      1.0  0.12664  0.75899  0.78758  1.0000
  C   C275      1.0  0.11228  0.77100  0.79285  1.0000
  H   H407      1.0  0.12484  0.83146  0.81570  1.0000
  H   H408      1.0  0.15001  0.80983  0.80697  1.0000
  H   H409      1.0  0.12714  0.73885  0.77956  1.0000
  H   H410      1.0  0.10184  0.76011  0.78887  1.0000
  C   C276      1.0  0.25027  0.89663  0.79397  1.0000
  H   H411      1.0  0.15461  0.51793  0.88658  1.0000
  H   H412      1.0  0.08325  0.97915  0.83493  1.0000
  C   C277      1.0  0.01520  0.85091  0.72471  1.0000
  C   C278      1.0  0.01417  0.83978  0.74488  1.0000
  H   H413      1.0  0.24047  0.95515  0.54687  1.0000
  H   H414      1.0  0.02604  0.85006  0.71648  1.0000
  C   C279      1.0  0.00857  0.49578  0.97959  1.0000
  H   H415      1.0  0.21977  0.88962  0.79036  1.0000
  H   H416      1.0  0.07206  0.55003  0.82806  1.0000
  N   N24       1.0  0.08304  0.84468  0.75152  1.0000
  C   C280      1.0  0.06752  0.85576  0.74751  1.0000
  C   C281      1.0  0.09259  0.84666  0.73262  1.0000
  C   C282      1.0  0.08195  0.81449  0.75816  1.0000
  C   C283      1.0  0.09009  0.86169  0.76788  1.0000
  H   H417      1.0  0.06009  0.85475  0.76157  1.0000
  H   H418      1.0  0.06165  0.84297  0.73564  1.0000
  H   H419      1.0  0.06783  0.87841  0.74224  1.0000
  H   H420      1.0  0.10435  0.83840  0.73526  1.0000
  H   H421      1.0  0.08760  0.83393  0.72002  1.0000
  H   H422      1.0  0.09368  0.86917  0.72714  1.0000
  H   H423      1.0  0.09342  0.80536  0.76148  1.0000
  H   H424      1.0  0.07647  0.80093  0.74642  1.0000
  H   H425      1.0  0.07499  0.81246  0.77250  1.0000
  H   H426      1.0  0.10160  0.85324  0.77185  1.0000
  H   H427      1.0  0.08303  0.86095  0.78229  1.0000
  H   H428      1.0  0.09142  0.88451  0.76332  1.0000
  H   H429      1.0  0.13721  0.50403  0.89772  1.0000
  C   C284      1.0  0.25227  0.95445  0.54019  1.0000
  H   H430      1.0  0.04270  0.74519  0.86841  1.0000
  H   H431      1.0  0.06908  0.95626  0.84696  1.0000
  S   S127      1.0  0.05090  0.49061  0.92656  1.0000
  H   H432      1.0  0.15963  0.68456  0.86139  1.0000
  C   C285      1.0  0.05644  0.48415  0.97903  1.0000
  H   H433      1.0  0.02385  0.76698  0.91740  1.0000
  H   H434      1.0  0.23500  0.61937  0.95595  1.0000
  H   H435      1.0  0.22499  0.72582  0.74848  1.0000
  H   H436      1.0  0.08961  0.92204  0.85642  1.0000
  H   H437      1.0  0.16244  0.68839  0.90813  1.0000
  C   C286      1.0  0.25475  0.82530  0.49378  1.0000
  H   H438      1.0  0.24369  0.91671  0.79662  1.0000
  H   H439      1.0  0.25123  0.77941  0.63572  1.0000
  H   H440      1.0  0.23928  0.74130  0.81253  1.0000
  C   C287      1.0  0.07735  0.97389  0.84974  1.0000
  S   S128      1.0  0.03753  0.97925  0.86546  1.0000
  H   H441      1.0  0.04098  0.52075  0.82573  1.0000
  H   H442      1.0  0.10381  0.94506  0.84466  1.0000
  C   C288      1.0  0.23685  0.87297  0.82195  1.0000
  H   H443      1.0  0.02734  0.73502  0.50695  1.0000
  H   H444      1.0  0.23624  0.69365  0.72204  1.0000
  H   H445      1.0  0.24342  0.82551  0.80039  1.0000
  H   H446      1.0  0.17511  0.65979  0.85765  1.0000
  C   C289      1.0  0.24991  0.63193  0.98062  1.0000
  H   H447      1.0  0.01784  0.78932  0.86335  1.0000
  H   H448      1.0  0.23003  0.89256  0.82533  1.0000
  H   H449      1.0  0.24961  0.65202  0.81443  1.0000
  H   H450      1.0  0.08786  0.95379  0.89766  1.0000
  H   H451      1.0  0.17044  0.49074  0.91014  1.0000
  H   H452      1.0  0.04541  0.48891  0.97146  1.0000
  C   C290      1.0  0.01789  0.72623  0.88955  1.0000
  N   N25       1.0  0.02237  0.75626  0.88549  1.0000
  H   H453      1.0  0.25335  0.84287  0.77962  1.0000
  H   H454      1.0  0.02709  0.57105  0.85008  1.0000
  H   H455      1.0  0.23634  0.66699  0.83270  1.0000
  H   H456      1.0  0.04292  0.78036  0.87937  1.0000
  C   C291      1.0  0.22708  0.87047  0.78758  1.0000
  C   C292      1.0  0.17530  0.63913  0.89610  1.0000
  C   C293      1.0  0.16885  0.67270  0.86935  1.0000
  H   H457      1.0  0.01752  0.75369  0.85336  1.0000
  H   H458      1.0  0.25463  0.80293  0.49811  1.0000
  C   C294      1.0  0.24332  0.70995  0.72879  1.0000
  H   H459      1.0  0.14097  0.50014  0.87076  1.0000
  H   H460      1.0  0.22964  0.85448  0.82697  1.0000
  H   H461      1.0  0.22977  0.86942  0.77086  1.0000
  C   C295      1.0  0.09724  0.94069  0.85914  1.0000
  H   H462      1.0  0.14227  0.64407  0.86968  1.0000
  H   H463      1.0  0.15772  0.61894  0.86654  1.0000
  H   H464      1.0  0.03082  0.55060  0.81513  1.0000
  N   N26       1.0  0.04885  0.56188  0.83556  1.0000
  C   C296      1.0  0.05054  0.59130  0.82736  1.0000
  C   C297      1.0  0.03852  0.56215  0.85375  1.0000
  C   C298      1.0  0.06400  0.55090  0.84145  1.0000
  H   H465      1.0  0.05561  0.60578  0.83894  1.0000
  H   H466      1.0  0.03929  0.60057  0.82314  1.0000
  H   H467      1.0  0.21993  0.85147  0.79159  1.0000
  H   H468      1.0  0.23012  0.70979  0.78534  1.0000
  H   H469      1.0  0.04333  0.57524  0.86625  1.0000
  H   H470      1.0  0.06311  0.52885  0.84800  1.0000
  H   H471      1.0  0.06929  0.56469  0.85326  1.0000
  H   H472      1.0  0.12329  0.50021  0.95311  1.0000
  H   H473      1.0  0.02052  0.95990  0.96270  1.0000
  H   H474      1.0  0.07194  0.94089  0.88311  1.0000
  H   H475      1.0  0.03666  0.54021  0.85998  1.0000
  H   H476      1.0  0.07303  0.97776  0.89025  1.0000
  H   H477      1.0  0.24708  0.87337  0.83181  1.0000
  H   H478      1.0  0.04545  0.74936  0.89540  1.0000
  C   C299      1.0  0.24067  0.72187  0.82227  1.0000
  C   C300      1.0  0.24057  0.61258  0.96983  1.0000
  C   C301      1.0  0.25010  0.84502  0.79613  1.0000
  C   C302      1.0  0.01454  0.76683  0.86703  1.0000
  H   H479      1.0  0.06574  0.48610  0.96716  1.0000
  H   H480      1.0  0.25367  0.89611  0.77744  1.0000
  H   H481      1.0  0.22148  0.68538  0.80345  1.0000
  C   C303      1.0  0.01803  0.77419  0.90323  1.0000
  H   H482      1.0  0.14979  0.65912  0.91433  1.0000
  H   H483      1.0  0.06887  0.53643  0.97690  1.0000
  H   H484      1.0  0.24711  0.73777  0.68432  1.0000
  H   H485      1.0  0.25141  0.65346  0.97479  1.0000
  C   C304      1.0  0.04233  0.54310  0.81981  1.0000
  H   H486      1.0  0.02383  0.71728  0.90312  1.0000
  H   H487      1.0  0.23529  0.67266  0.78498  1.0000
  H   H488      1.0  0.10560  0.93417  0.87098  1.0000
  N   N27       1.0  0.24108  0.87125  0.79991  1.0000
  N   N28       1.0  0.16263  0.65442  0.88613  1.0000
  C   C305      1.0  0.01715  0.73171  0.49810  1.0000
  C   C306      1.0  0.15185  0.63338  0.87768  1.0000
  H   H489      1.0  0.02219  0.97377  0.90463  1.0000
  H   H490      1.0  0.18147  0.62482  0.88514  1.0000
  C   C307      1.0  0.23839  0.58456  0.97707  1.0000
  H   H491      1.0  0.17103  0.62552  0.90907  1.0000
  H   H492      1.0  0.17702  0.68887  0.87521  1.0000
  C   C308      1.0  0.24580  0.74946  0.75279  1.0000
  C   C309      1.0  0.01115  0.96625  0.97271  1.0000
  N   N29       1.0  0.08836  0.96599  0.86575  1.0000
  N   N30       1.0  0.24476  0.69669  0.80977  1.0000
  H   H493      1.0  0.23717  0.75133  0.66249  1.0000
  C   C310      1.0  0.01399  0.96865  0.91734  1.0000
  H   H494      1.0  0.02127  0.79700  0.90042  1.0000
  C   C311      1.0  0.23238  0.69083  0.79525  1.0000
  H   H495      1.0  0.01770  0.94821  0.92450  1.0000
  H   H496      1.0  0.22969  0.71852  0.83085  1.0000
  H   H497      1.0  0.00547  0.77351  0.90633  1.0000
  H   H498      1.0  0.17460  0.48308  0.87309  1.0000
  C   C312      1.0  0.24672  0.75579  0.67304  1.0000
  H   H499      1.0  0.25317  0.52838  0.54920  1.0000
  H   H500      1.0  0.25344  0.50305  0.50569  1.0000
  C   C313      1.0  0.14638  0.49975  0.88606  1.0000
  H   H501      1.0  0.25144  0.94841  0.52374  1.0000
  H   H502      1.0  0.24954  0.72660  0.83379  1.0000
  C   C314      1.0  0.25168  0.48883  0.51928  1.0000
  C   C315      1.0  0.24686  0.67160  0.82336  1.0000
  H   H503      1.0  0.04856  0.53964  0.98153  1.0000
  H   H504      1.0  0.00534  0.72417  0.89241  1.0000
  Fe  Fe65      1.0  0.42984  0.17675  0.05682  1.0000
  S   S129      1.0  0.43732  0.15848  0.08697  1.0000
  S   S130      1.0  0.40549  0.19487  0.05828  1.0000
  Fe  Fe66      1.0  0.46283  0.17242  0.03790  1.0000
  S   S131      1.0  0.47204  0.15469  0.06753  1.0000
  S   S132      1.0  0.47910  0.17099  0.00950  1.0000
  Fe  Fe67      1.0  0.45109  0.12657  0.06894  1.0000
  S   S133      1.0  0.45271  0.07763  0.07220  1.0000
  Fe  Fe68      1.0  0.45744  0.18816  0.08300  1.0000
  S   S134      1.0  0.46292  0.21287  0.11181  1.0000
  S   S135      1.0  0.44221  0.14286  0.03863  1.0000
  S   S136      1.0  0.44963  0.20792  0.05351  1.0000
  Fe  Fe69      1.0  0.28397  0.15201  0.03758  1.0000
  S   S137      1.0  0.27897  0.16642  0.07023  1.0000
  H   H505      1.0  0.38927  0.45035  0.14334  1.0000
  Fe  Fe70      1.0  0.31873  0.14970  0.04525  1.0000
  S   S138      1.0  0.31599  0.16282  0.07791  1.0000
  S   S139      1.0  0.34214  0.14155  0.03046  1.0000
  Fe  Fe71      1.0  0.29605  0.13234  0.07898  1.0000
  S   S140      1.0  0.29420  0.10693  0.10884  1.0000
  Fe  Fe72      1.0  0.29935  0.19595  0.06704  1.0000
  S   S141      1.0  0.30488  0.24214  0.07691  1.0000
  S   S142      1.0  0.29995  0.11641  0.04679  1.0000
  S   S143      1.0  0.30317  0.18421  0.03378  1.0000
  Fe  Fe73      1.0  0.46101  0.37438  0.14036  1.0000
  S   S144      1.0  0.44680  0.35469  0.16556  1.0000
  S   S145      1.0  0.47163  0.34764  0.11496  1.0000
  Fe  Fe74      1.0  0.45572  0.43555  0.15587  1.0000
  S   S146      1.0  0.44158  0.41907  0.18298  1.0000
  C   C316      1.0  0.41370  0.98290  0.15800  1.0000
  Fe  Fe75      1.0  0.45962  0.38452  0.18625  1.0000
  S   S147      1.0  0.46740  0.36458  0.21687  1.0000
  Fe  Fe76      1.0  0.43027  0.39065  0.16005  1.0000
  S   S148      1.0  0.40548  0.38271  0.15125  1.0000
  S   S149      1.0  0.47463  0.40305  0.16096  1.0000
  S   S150      1.0  0.44376  0.40827  0.13313  1.0000
  Fe  Fe77      1.0  0.29714  0.44303  0.13989  1.0000
  S   S151      1.0  0.30217  0.45824  0.17165  1.0000
  H   H506      1.0  0.48260  0.23363  0.01321  1.0000
  Fe  Fe78      1.0  0.29491  0.37954  0.15269  1.0000
  S   S152      1.0  0.30001  0.39085  0.18550  1.0000
  S   S153      1.0  0.28662  0.33356  0.14654  1.0000
  Fe  Fe79      1.0  0.28362  0.42783  0.18237  1.0000
  H   H507      1.0  0.27050  0.99405  0.20838  1.0000
  Fe  Fe80      1.0  0.31814  0.42021  0.17212  1.0000
  S   S154      1.0  0.34123  0.42611  0.18721  1.0000
  S   S155      1.0  0.27760  0.41502  0.15030  1.0000
  S   S156      1.0  0.31415  0.40670  0.13955  1.0000
  H   H508      1.0  0.47322  0.10116  0.00966  1.0000
  H   H509      1.0  0.49902  0.11660  0.46113  1.0000
  H   H510      1.0  0.49959  0.11926  0.01215  1.0000
  H   H511      1.0  0.40395  0.03581  0.16644  1.0000
  H   H512      1.0  0.27135  0.38547  0.42042  1.0000
  H   H513      1.0  0.49695  0.31191  0.13259  1.0000
  H   H514      1.0  0.39765  0.02859  0.19241  1.0000
  C   C317      1.0  0.49091  0.19712  0.99655  1.0000
  C   C318      1.0  0.26513  0.36122  0.22037  1.0000
  C   C319      1.0  0.38783  0.39502  0.16177  1.0000
  C   C320      1.0  0.38682  0.40962  0.18040  1.0000
  C   C321      1.0  0.37248  0.41913  0.18792  1.0000
  C   C322      1.0  0.35903  0.41408  0.17698  1.0000
  C   C323      1.0  0.36007  0.39964  0.15831  1.0000
  C   C324      1.0  0.37439  0.39015  0.15078  1.0000
  H   H515      1.0  0.39701  0.41312  0.18921  1.0000
  H   H516      1.0  0.37176  0.43013  0.20245  1.0000
  H   H517      1.0  0.34982  0.39558  0.14974  1.0000
  H   H518      1.0  0.37504  0.37887  0.13637  1.0000
  C   C325      1.0  0.29934  0.26735  0.09624  1.0000
  C   C326      1.0  0.28687  0.26291  0.10971  1.0000
  C   C327      1.0  0.28320  0.28332  0.12494  1.0000
  C   C328      1.0  0.29173  0.30876  0.12676  1.0000
  C   C329      1.0  0.30408  0.31335  0.11314  1.0000
  C   C330      1.0  0.30786  0.29277  0.09807  1.0000
  H   H519      1.0  0.27982  0.24412  0.10814  1.0000
  H   H520      1.0  0.27350  0.27963  0.13516  1.0000
  H   H521      1.0  0.31077  0.33273  0.11425  1.0000
  H   H522      1.0  0.31745  0.29671  0.08771  1.0000
  C   C331      1.0  0.28705  0.00950  0.11168  1.0000
  C   C332      1.0  0.28614  0.02416  0.09285  1.0000
  C   C333      1.0  0.28851  0.05393  0.09167  1.0000
  C   C334      1.0  0.29161  0.06936  0.10941  1.0000
  C   C335      1.0  0.29250  0.05471  0.12825  1.0000
  C   C336      1.0  0.29029  0.02491  0.12939  1.0000
  H   H523      1.0  0.28355  0.01245  0.07909  1.0000
  H   H524      1.0  0.28770  0.06495  0.07709  1.0000
  H   H525      1.0  0.29484  0.06645  0.14207  1.0000
  H   H526      1.0  0.29091  0.01393  0.14400  1.0000
  C   C337      1.0  0.45275  0.01429  0.12733  1.0000
  C   C338      1.0  0.45267  0.00448  0.10710  1.0000
  C   C339      1.0  0.45257  0.02417  0.09052  1.0000
  C   C340      1.0  0.45244  0.05391  0.09386  1.0000
  C   C341      1.0  0.45239  0.06370  0.11410  1.0000
  C   C342      1.0  0.45257  0.04403  0.13067  1.0000
  H   H527      1.0  0.36337  0.26021  0.02892  1.0000
  H   H528      1.0  0.45259  0.01624  0.07498  1.0000
  H   H529      1.0  0.45236  0.08644  0.11699  1.0000
  H   H530      1.0  0.45271  0.05196  0.14620  1.0000
  C   C343      1.0  0.46506  0.25040  0.11201  1.0000
  C   C344      1.0  0.46974  0.26582  0.09453  1.0000
  C   C345      1.0  0.47151  0.29571  0.09551  1.0000
  C   C346      1.0  0.46809  0.31046  0.11372  1.0000
  C   C347      1.0  0.46291  0.29504  0.13095  1.0000
  C   C348      1.0  0.46180  0.26512  0.13025  1.0000
  H   H531      1.0  0.47235  0.25468  0.08040  1.0000
  H   H532      1.0  0.47559  0.30744  0.08211  1.0000
  H   H533      1.0  0.46002  0.30601  0.14496  1.0000
  H   H534      1.0  0.45822  0.25334  0.14386  1.0000
  C   C349      1.0  0.38835  0.17671  0.05208  1.0000
  C   C350      1.0  0.38775  0.15739  0.03585  1.0000
  C   C351      1.0  0.37355  0.14627  0.02971  1.0000
  C   C352      1.0  0.35987  0.15383  0.03998  1.0000
  C   C353      1.0  0.36056  0.17220  0.05676  1.0000
  C   C354      1.0  0.37468  0.18397  0.06253  1.0000
  H   H535      1.0  0.39814  0.15180  0.02753  1.0000
  H   H536      1.0  0.37315  0.13202  0.01673  1.0000
  H   H537      1.0  0.35016  0.17770  0.06504  1.0000
  H   H538      1.0  0.37504  0.19880  0.07515  1.0000
  H   H539      1.0  0.32052  0.18695  0.12026  1.0000
  H   H540      1.0  0.32258  0.17066  0.14513  1.0000
  H   H541      1.0  0.26848  0.08934  0.00982  1.0000
  H   H542      1.0  0.48796  0.04323  0.01986  1.0000
  H   H543      1.0  0.47457  0.32544  0.24955  1.0000
  H   H544      1.0  0.31564  0.24055  0.03227  1.0000
  C   C355      1.0  0.48529  0.35358  0.22722  1.0000
  H   H545      1.0  0.34969  0.28756  0.03541  1.0000
  C   C356      1.0  0.48533  0.33404  0.24378  1.0000
  H   H546      1.0  0.31378  0.15117  0.12490  1.0000
  H   H547      1.0  0.26831  0.48113  0.17651  1.0000
  H   H548      1.0  0.27835  0.19513  0.12425  1.0000
  C   C357      1.0  0.49964  0.24608  0.99020  1.0000
  H   H549      1.0  0.27543  0.37441  0.21658  1.0000
  C   C358      1.0  0.32454  0.25651  0.02777  1.0000
  H   H550      1.0  0.29035  0.22217  0.15182  1.0000
  H   H551      1.0  0.32195  0.27607  0.03684  1.0000
  C   C359      1.0  0.49216  0.39239  0.28265  1.0000
  C   C360      1.0  0.49934  0.36443  0.21998  1.0000
  H   H552      1.0  0.41434  0.44076  0.12747  1.0000
  H   H553      1.0  0.28440  0.33503  0.19387  1.0000
  H   H554      1.0  0.30898  0.21224  0.16078  1.0000
  H   H555      1.0  0.50348  0.07813  0.41171  1.0000
  H   H556      1.0  0.33339  0.22067  0.05824  1.0000
  H   H557      1.0  0.41241  0.44298  0.16491  1.0000
  C   C361      1.0  0.25908  0.38401  0.42520  1.0000
  H   H558      1.0  0.46949  0.11086  0.03569  1.0000
  C   C362      1.0  0.49686  0.10884  0.44534  1.0000
  H   H559      1.0  0.26882  0.00927  0.30809  1.0000
  H   H560      1.0  0.31152  0.98386  0.08410  1.0000
  C   C363      1.0  0.34305  0.21977  0.01942  1.0000
  H   H561      1.0  0.33608  0.99343  0.12973  1.0000
  H   H562      1.0  0.28770  0.16463  0.11352  1.0000
  C   C364      1.0  0.25612  0.12529  0.99787  1.0000
  H   H563      1.0  0.48258  0.05767  0.05580  1.0000
  H   H564      1.0  0.33345  0.01744  0.08505  1.0000
  C   C365      1.0  0.27380  0.32304  0.19827  1.0000
  H   H565      1.0  0.43387  0.23688  0.12747  1.0000
  H   H566      1.0  0.33484  0.20232  0.02345  1.0000
  C   C366      1.0  0.28975  0.18603  0.12021  1.0000
  C   C367      1.0  0.35150  0.26785  0.02621  1.0000
  H   H567      1.0  0.26300  0.39128  0.38420  1.0000
  C   C368      1.0  0.48547  0.32516  0.17018  1.0000
  H   H568      1.0  0.35473  0.21108  0.02199  1.0000
  H   H569      1.0  0.50183  0.07095  0.05778  1.0000
  C   C369      1.0  0.49529  0.06261  0.01797  1.0000
  H   H570      1.0  0.35310  0.23163  0.05764  1.0000
  H   H571      1.0  0.46600  0.07499  0.02799  1.0000
  C   C370      1.0  0.25982  0.09624  0.99925  1.0000
  C   C371      1.0  0.49851  0.44458  0.47889  1.0000
  H   H572      1.0  0.27654  0.30914  0.21161  1.0000
  H   H573      1.0  0.26718  0.34247  0.39926  1.0000
  H   H574      1.0  0.48999  0.41470  0.27742  1.0000
  H   H575      1.0  0.34201  0.22414  0.00272  1.0000
  C   C372      1.0  0.42575  0.00665  0.18618  1.0000
  H   H576      1.0  0.49895  0.26855  0.99393  1.0000
  N   N31       1.0  0.29969  0.18406  0.13823  1.0000
  S   S157      1.0  0.26516  0.15201  0.01307  1.0000
  H   H577      1.0  0.31942  0.00665  0.11693  1.0000
  N   N32       1.0  0.26099  0.34267  0.20305  1.0000
  H   H578      1.0  0.48577  0.09371  0.06344  1.0000
  H   H579      1.0  0.27116  0.30906  0.18504  1.0000
  S   S158      1.0  0.29341  0.47135  0.11206  1.0000
  H   H580      1.0  0.41479  0.23934  0.13795  1.0000
  H   H581      1.0  0.47988  0.33706  0.15756  1.0000
  H   H582      1.0  0.26806  0.37333  0.18025  1.0000
  H   H583      1.0  0.25845  0.37028  0.43927  1.0000
  H   H584      1.0  0.49577  0.12950  0.03805  1.0000
  H   H585      1.0  0.26436  0.00191  0.34550  1.0000
  C   C373      1.0  0.49008  0.07665  0.05299  1.0000
  H   H586      1.0  0.48724  0.12154  0.43905  1.0000
  H   H587      1.0  0.33822  0.25697  0.06368  1.0000
  N   N33       1.0  0.48978  0.08601  0.03128  1.0000
  C   C374      1.0  0.50151  0.40975  0.31485  1.0000
  H   H588      1.0  0.49073  0.40320  0.32297  1.0000
  H   H589      1.0  0.29500  0.19967  0.10791  1.0000
  H   H590      1.0  0.38870  0.01073  0.17148  1.0000
  C   C375      1.0  0.41680  0.46415  0.12749  1.0000
  C   C376      1.0  0.29258  0.16455  0.15362  1.0000
  H   H591      1.0  0.35081  0.27390  0.00970  1.0000
  H   H592      1.0  0.29974  0.16243  0.16748  1.0000
  H   H593      1.0  0.26058  0.98523  0.29005  1.0000
  C   C377      1.0  0.49032  0.22627  0.00121  1.0000
  H   H594      1.0  0.50025  0.43246  0.30996  1.0000
  H   H595      1.0  0.49954  0.37987  0.20754  1.0000
  H   H596      1.0  0.41997  0.21086  0.12068  1.0000
  H   H597      1.0  0.49872  0.42250  0.47406  1.0000
  H   H598      1.0  0.50494  0.35717  0.14779  1.0000
  H   H599      1.0  0.49514  0.06900  0.00149  1.0000
  N   N34       1.0  0.50144  0.31793  0.16460  1.0000
  C   C378      1.0  0.39986  0.01869  0.17718  1.0000
  H   H600      1.0  0.32303  0.26171  0.01126  1.0000
  H   H601      1.0  0.49622  0.35299  0.31221  1.0000
  H   H602      1.0  0.50218  0.28169  0.18503  1.0000
  C   C379      1.0  0.26315  0.98779  0.22119  1.0000
  H   H603      1.0  0.30692  0.22791  0.13571  1.0000
  C   C380      1.0  0.32668  0.98746  0.11931  1.0000
  H   H604      1.0  0.26764  0.34855  0.23441  1.0000
  C   C381      1.0  0.49913  0.32551  0.25303  1.0000
  H   H605      1.0  0.26335  0.31051  0.48418  1.0000
  H   H606      1.0  0.34579  0.99115  0.07352  1.0000
  H   H607      1.0  0.48133  0.38394  0.28963  1.0000
  N   N35       1.0  0.41717  0.25197  0.10622  1.0000
  C   C382      1.0  0.40087  0.24696  0.10178  1.0000
  C   C383      1.0  0.41964  0.28245  0.11102  1.0000
  C   C384      1.0  0.42660  0.24418  0.08809  1.0000
  C   C385      1.0  0.42159  0.23402  0.12390  1.0000
  H   H608      1.0  0.39877  0.22410  0.09798  1.0000
  H   H609      1.0  0.39719  0.25986  0.08833  1.0000
  H   H610      1.0  0.39335  0.25258  0.11510  1.0000
  H   H611      1.0  0.43188  0.28681  0.11440  1.0000
  H   H612      1.0  0.41654  0.29654  0.09791  1.0000
  H   H613      1.0  0.41272  0.28920  0.12465  1.0000
  H   H614      1.0  0.43885  0.24935  0.09024  1.0000
  H   H615      1.0  0.42286  0.25548  0.07398  1.0000
  H   H616      1.0  0.42594  0.22088  0.08511  1.0000
  H   H617      1.0  0.42431  0.01644  0.20158  1.0000
  C   C386      1.0  0.50167  0.30009  0.14595  1.0000
  C   C387      1.0  0.25858  0.99594  0.30506  1.0000
  C   C388      1.0  0.34131  0.23845  0.05381  1.0000
  C   C389      1.0  0.31482  0.17276  0.13188  1.0000
  H   H618      1.0  0.28105  0.17219  0.15860  1.0000
  N   N36       1.0  0.41114  0.99530  0.17856  1.0000
  H   H619      1.0  0.29109  0.14266  0.14723  1.0000
  C   C390      1.0  0.30157  0.21282  0.14709  1.0000
  N   N37       1.0  0.34009  0.24564  0.03179  1.0000
  S   S159      1.0  0.26264  0.43265  0.20415  1.0000
  C   C391      1.0  0.41398  0.46657  0.16429  1.0000
  H   H620      1.0  0.43071  0.02312  0.17553  1.0000
  C   C392      1.0  0.47394  0.09346  0.02581  1.0000
  H   H621      1.0  0.48484  0.33893  0.18398  1.0000
  C   C393      1.0  0.49972  0.11137  0.02832  1.0000
  C   C394      1.0  0.25848  0.33164  0.48583  1.0000
  S   S160      1.0  0.45306  0.99067  0.14903  1.0000
  H   H622      1.0  0.42942  0.46681  0.12865  1.0000
  H   H623      1.0  0.49467  0.37968  0.26866  1.0000
  H   H624      1.0  0.41866  0.99888  0.14698  1.0000
  H   H625      1.0  0.49819  0.11375  0.40406  1.0000
  H   H626      1.0  0.43449  0.98946  0.18745  1.0000
  H   H627      1.0  0.47851  0.30571  0.17360  1.0000
  H   H628      1.0  0.41342  0.47303  0.11237  1.0000
  C   C395      1.0  0.34106  0.99895  0.08842  1.0000
  H   H629      1.0  0.42636  0.47101  0.16646  1.0000
  H   H630      1.0  0.35077  0.00708  0.09753  1.0000
  H   H631      1.0  0.49465  0.28038  0.14811  1.0000
  H   H632      1.0  0.49888  0.31036  0.26565  1.0000
  H   H633      1.0  0.49297  0.08619  0.44677  1.0000
  C   C396      1.0  0.25785  0.36053  0.18483  1.0000
  C   C397      1.0  0.39203  0.47362  0.14295  1.0000
  H   H634      1.0  0.45488  0.47803  0.10768  1.0000
  N   N38       1.0  0.40868  0.47850  0.14463  1.0000
  H   H635      1.0  0.40761  0.47579  0.17761  1.0000
  C   C398      1.0  0.25539  0.45893  0.22169  1.0000
  H   H636      1.0  0.25576  0.37648  0.22428  1.0000
  N   N39       1.0  0.50493  0.39100  0.29719  1.0000
  H   H637      1.0  0.25545  0.03080  0.22735  1.0000
  H   H638      1.0  0.25529  0.05365  0.98826  1.0000
  Fe  Fe81      1.0  0.46674  0.13755  0.68478  1.0000
  S   S161      1.0  0.47794  0.15751  0.65654  1.0000
  S   S162      1.0  0.47931  0.13397  0.71555  1.0000
  Fe  Fe82      1.0  0.43510  0.13419  0.66380  1.0000
  S   S163      1.0  0.44459  0.15345  0.63466  1.0000
  S   S164      1.0  0.41051  0.11870  0.65963  1.0000
  Fe  Fe83      1.0  0.46459  0.12412  0.63939  1.0000
  S   S165      1.0  0.47184  0.09939  0.61094  1.0000
  Fe  Fe84      1.0  0.45682  0.18519  0.65408  1.0000
  S   S166      1.0  0.45435  0.23418  0.65049  1.0000
  S   S167      1.0  0.45451  0.10284  0.66751  1.0000
  S   S168      1.0  0.44625  0.16728  0.68342  1.0000
  Fe  Fe85      1.0  0.29051  0.17994  0.68209  1.0000
  S   S169      1.0  0.28525  0.16407  0.65030  1.0000
  S   S170      1.0  0.26953  0.18784  0.70342  1.0000
  Fe  Fe86      1.0  0.32536  0.17454  0.67327  1.0000
  S   S171      1.0  0.32236  0.15947  0.64105  1.0000
  S   S172      1.0  0.34865  0.18011  0.68789  1.0000
  Fe  Fe87      1.0  0.30422  0.19375  0.63984  1.0000
  S   S173      1.0  0.30142  0.22133  0.61140  1.0000
  Fe  Fe88      1.0  0.30374  0.13094  0.65405  1.0000
  S   S174      1.0  0.30313  0.08198  0.65006  1.0000
  S   S175      1.0  0.30860  0.21118  0.67118  1.0000
  S   S176      1.0  0.30766  0.14457  0.68678  1.0000
  Fe  Fe89      1.0  0.46496  0.42148  0.54002  1.0000
  S   S177      1.0  0.47590  0.40291  0.56815  1.0000
  H   H639      1.0  0.43078  0.03706  0.65407  1.0000
  Fe  Fe90      1.0  0.43322  0.42350  0.56194  1.0000
  S   S178      1.0  0.44230  0.40494  0.59123  1.0000
  S   S179      1.0  0.40916  0.44239  0.56440  1.0000
  Fe  Fe91      1.0  0.46199  0.43515  0.58578  1.0000
  H   H640      1.0  0.26483  0.08783  0.91336  1.0000
  Fe  Fe92      1.0  0.45533  0.37395  0.57139  1.0000
  S   S180      1.0  0.45919  0.32571  0.57680  1.0000
  S   S181      1.0  0.45237  0.45572  0.55770  1.0000
  S   S182      1.0  0.44495  0.39051  0.54205  1.0000
  Fe  Fe93      1.0  0.29859  0.38459  0.58393  1.0000
  S   S183      1.0  0.30290  0.36824  0.55202  1.0000
  S   S184      1.0  0.29617  0.35691  0.61261  1.0000
  Fe  Fe94      1.0  0.30149  0.44788  0.57104  1.0000
  S   S185      1.0  0.30667  0.43515  0.53821  1.0000
  N   N40       1.0  0.48883  0.36239  0.62368  1.0000
  Fe  Fe95      1.0  0.28723  0.40343  0.54146  1.0000
  H   H641      1.0  0.48248  0.24745  0.91921  1.0000
  Fe  Fe96      1.0  0.32186  0.40126  0.55147  1.0000
  S   S186      1.0  0.34538  0.38640  0.54025  1.0000
  S   S187      1.0  0.28148  0.41756  0.57384  1.0000
  S   S188      1.0  0.31818  0.41601  0.58382  1.0000
  H   H642      1.0  0.26013  0.16205  0.89360  1.0000
  C   C399      1.0  0.39160  0.42600  0.55784  1.0000
  C   C400      1.0  0.37778  0.43934  0.56368  1.0000
  C   C401      1.0  0.36356  0.42749  0.55845  1.0000
  C   C402      1.0  0.36301  0.40235  0.54703  1.0000
  C   C403      1.0  0.37681  0.38892  0.54126  1.0000
  C   C404      1.0  0.39105  0.40055  0.54675  1.0000
  H   H643      1.0  0.37807  0.45907  0.57220  1.0000
  H   H644      1.0  0.35303  0.43806  0.56298  1.0000
  H   H645      1.0  0.37651  0.36947  0.53240  1.0000
  H   H646      1.0  0.40158  0.39016  0.54204  1.0000
  C   C405      1.0  0.30286  0.05817  0.62868  1.0000
  C   C406      1.0  0.30144  0.06775  0.60841  1.0000
  C   C407      1.0  0.30096  0.04792  0.59215  1.0000
  C   C408      1.0  0.30205  0.01825  0.59579  1.0000
  C   C409      1.0  0.30364  0.00869  0.61604  1.0000
  C   C410      1.0  0.30397  0.02850  0.63233  1.0000
  H   H647      1.0  0.30055  0.09041  0.60527  1.0000
  H   H648      1.0  0.29974  0.05569  0.57659  1.0000
  H   H649      1.0  0.26089  0.45041  0.54707  1.0000
  H   H650      1.0  0.30499  0.02071  0.64789  1.0000
  C   C411      1.0  0.30015  0.25902  0.61206  1.0000
  C   C412      1.0  0.30058  0.27405  0.63051  1.0000
  C   C413      1.0  0.29904  0.30400  0.63047  1.0000
  C   C414      1.0  0.29731  0.31920  0.61199  1.0000
  C   C415      1.0  0.29693  0.30419  0.59355  1.0000
  C   C416      1.0  0.29831  0.27422  0.59361  1.0000
  H   H651      1.0  0.30208  0.26262  0.64478  1.0000
  H   H652      1.0  0.29939  0.31550  0.64480  1.0000
  H   H653      1.0  0.29543  0.31560  0.57924  1.0000
  H   H654      1.0  0.29786  0.26273  0.57928  1.0000
  C   C417      1.0  0.45507  0.25881  0.62942  1.0000
  C   C418      1.0  0.46027  0.25109  0.60982  1.0000
  C   C419      1.0  0.46114  0.27173  0.59389  1.0000
  C   C420      1.0  0.45662  0.30025  0.59716  1.0000
  C   C421      1.0  0.45099  0.30779  0.61664  1.0000
  C   C422      1.0  0.45039  0.28728  0.63267  1.0000
  H   H655      1.0  0.46395  0.22937  0.60700  1.0000
  H   H656      1.0  0.46551  0.26557  0.57892  1.0000
  H   H657      1.0  0.44724  0.32944  0.61942  1.0000
  H   H658      1.0  0.41402  0.05861  0.65133  1.0000
  C   C423      1.0  0.47389  0.00122  0.60988  1.0000
  C   C424      1.0  0.47063  0.01687  0.59212  1.0000
  C   C425      1.0  0.47031  0.04693  0.59261  1.0000
  C   C426      1.0  0.47274  0.06162  0.61097  1.0000
  C   C427      1.0  0.47568  0.04599  0.62883  1.0000
  C   C428      1.0  0.47650  0.01594  0.62819  1.0000
  H   H659      1.0  0.46840  0.00596  0.57796  1.0000
  H   H660      1.0  0.46796  0.05888  0.57874  1.0000
  H   H661      1.0  0.47765  0.05708  0.64306  1.0000
  H   H662      1.0  0.47907  0.00405  0.64201  1.0000
  C   C429      1.0  0.39356  0.13672  0.66738  1.0000
  C   C430      1.0  0.39303  0.15427  0.68464  1.0000
  C   C431      1.0  0.37923  0.16768  0.69056  1.0000
  C   C432      1.0  0.36585  0.16377  0.67929  1.0000
  C   C433      1.0  0.36642  0.14652  0.66187  1.0000
  C   C434      1.0  0.38016  0.13274  0.65612  1.0000
  H   H663      1.0  0.40317  0.15703  0.69370  1.0000
  H   H664      1.0  0.37887  0.18084  0.70415  1.0000
  H   H665      1.0  0.35625  0.14371  0.65290  1.0000
  H   H666      1.0  0.38045  0.11921  0.64273  1.0000
  C   C435      1.0  0.26336  0.14365  0.90356  1.0000
  H   H667      1.0  0.46775  0.36403  0.60739  1.0000
  H   H668      1.0  0.27015  0.47535  0.56364  1.0000
  H   H669      1.0  0.30442  0.98601  0.61919  1.0000
  C   C436      1.0  0.26209  0.21349  0.72135  1.0000
  C   C437      1.0  0.33710  0.34381  0.61322  1.0000
  H   H670      1.0  0.36378  0.35479  0.57534  1.0000
  H   H671      1.0  0.41322  0.02096  0.64599  1.0000
  C   C438      1.0  0.26538  0.35134  0.49921  1.0000
  H   H672      1.0  0.27175  0.21983  0.63411  1.0000
  C   C439      1.0  0.26952  0.23931  0.72546  1.0000
  C   C440      1.0  0.49187  0.10892  0.72762  1.0000
  C   C441      1.0  0.26110  0.47316  0.55197  1.0000
  H   H673      1.0  0.49496  0.45647  0.75833  1.0000
  H   H674      1.0  0.40333  0.03215  0.61113  1.0000
  H   H675      1.0  0.25767  0.02592  0.53347  1.0000
  H   H676      1.0  0.49327  0.35845  0.59129  1.0000
  C   C442      1.0  0.47320  0.37361  0.62097  1.0000
  N   N41       1.0  0.40818  0.21924  0.64398  1.0000
  C   C443      1.0  0.39195  0.21069  0.64240  1.0000
  C   C444      1.0  0.41487  0.20518  0.66207  1.0000
  C   C445      1.0  0.40928  0.25058  0.64625  1.0000
  C   C446      1.0  0.41668  0.21045  0.62524  1.0000
  H   H677      1.0  0.38644  0.22109  0.62905  1.0000
  H   H678      1.0  0.38521  0.21642  0.65647  1.0000
  H   H679      1.0  0.39084  0.18716  0.64050  1.0000
  H   H680      1.0  0.42672  0.21270  0.66468  1.0000
  H   H681      1.0  0.40811  0.20960  0.67634  1.0000
  H   H682      1.0  0.41546  0.18163  0.66013  1.0000
  H   H683      1.0  0.42144  0.25749  0.64749  1.0000
  H   H684      1.0  0.40308  0.25789  0.66033  1.0000
  H   H685      1.0  0.40443  0.26200  0.63284  1.0000
  H   H686      1.0  0.41593  0.18694  0.62292  1.0000
  H   H687      1.0  0.42905  0.21597  0.62613  1.0000
  H   H688      1.0  0.41219  0.22113  0.61130  1.0000
  N   N42       1.0  0.34078  0.07625  0.68616  1.0000
  C   C447      1.0  0.35128  0.05177  0.68859  1.0000
  C   C448      1.0  0.32513  0.06759  0.69265  1.0000
  C   C449      1.0  0.34078  0.08532  0.66439  1.0000
  C   C450      1.0  0.34594  0.10025  0.69896  1.0000
  H   H689      1.0  0.36320  0.05761  0.68387  1.0000
  H   H690      1.0  0.34771  0.03339  0.67901  1.0000
  H   H691      1.0  0.35152  0.04429  0.70483  1.0000
  H   H692      1.0  0.32075  0.04992  0.68301  1.0000
  H   H693      1.0  0.32465  0.06043  0.70895  1.0000
  H   H694      1.0  0.33334  0.10434  0.66213  1.0000
  H   H695      1.0  0.33628  0.06819  0.65435  1.0000
  H   H696      1.0  0.35246  0.09098  0.65871  1.0000
  H   H697      1.0  0.33854  0.11941  0.69705  1.0000
  H   H698      1.0  0.35783  0.10694  0.69478  1.0000
  H   H699      1.0  0.34571  0.09452  0.71555  1.0000
  C   C451      1.0  0.26284  0.25919  0.73924  1.0000
  S   S189      1.0  0.26772  0.40505  0.51790  1.0000
  C   C452      1.0  0.43464  0.07207  0.62178  1.0000
  C   C453      1.0  0.48996  0.45201  0.49662  1.0000
  H   H700      1.0  0.42629  0.00184  0.61460  1.0000
  H   H701      1.0  0.47327  0.39720  0.61857  1.0000
  H   H702      1.0  0.26738  0.15245  0.91836  1.0000
  H   H703      1.0  0.28042  0.24399  0.71804  1.0000
  H   H704      1.0  0.48245  0.18112  0.92061  1.0000
  S   S190      1.0  0.30087  0.99431  0.57455  1.0000
  H   H705      1.0  0.25666  0.19805  0.66294  1.0000
  H   H706      1.0  0.26116  0.38033  0.76651  1.0000
  C   C454      1.0  0.41097  0.05122  0.61077  1.0000
  H   H707      1.0  0.41394  0.05588  0.59439  1.0000
  H   H708      1.0  0.25812  0.37371  0.82348  1.0000
  H   H709      1.0  0.40429  0.06972  0.61680  1.0000
  C   C455      1.0  0.43339  0.02162  0.61445  1.0000
  C   C456      1.0  0.50467  0.00107  0.49104  1.0000
  H   H710      1.0  0.26871  0.27906  0.74217  1.0000
  C   C457      1.0  0.49571  0.37623  0.64161  1.0000
  C   C458      1.0  0.25951  0.33573  0.79265  1.0000
  H   H711      1.0  0.28238  0.00020  0.53495  1.0000
  N   N43       1.0  0.49594  0.21379  0.90554  1.0000
  C   C459      1.0  0.35708  0.35945  0.58964  1.0000
  H   H712      1.0  0.43873  0.07672  0.60582  1.0000
  H   H713      1.0  0.42847  0.09132  0.62746  1.0000
  H   H714      1.0  0.48516  0.17636  0.89344  1.0000
  C   C460      1.0  0.26141  0.98889  0.56461  1.0000
  H   H715      1.0  0.36532  0.36218  0.60225  1.0000
  H   H716      1.0  0.35133  0.38041  0.58714  1.0000
  H   H717      1.0  0.48893  0.37169  0.65590  1.0000
  H   H718      1.0  0.44494  0.06949  0.63135  1.0000
  H   H719      1.0  0.49616  0.39992  0.63957  1.0000
  S   S191      1.0  0.47031  0.45837  0.61388  1.0000
  C   C461      1.0  0.35379  0.30912  0.59712  1.0000
  H   H720      1.0  0.31691  0.08554  0.69104  1.0000
  H   H721      1.0  0.49219  0.07799  0.70339  1.0000
  C   C462      1.0  0.26295  0.23701  0.63377  1.0000
  H   H722      1.0  0.26861  0.25637  0.62710  1.0000
  H   H723      1.0  0.48750  0.98823  0.51370  1.0000
  H   H724      1.0  0.26178  0.32891  0.77653  1.0000
  H   H725      1.0  0.32868  0.32678  0.61736  1.0000
  H   H726      1.0  0.27542  0.34523  0.50764  1.0000
  H   H727      1.0  0.32654  0.31703  0.57983  1.0000
  H   H728      1.0  0.36192  0.31015  0.61002  1.0000
  H   H729      1.0  0.50178  0.16576  0.97708  1.0000
  H   H730      1.0  0.50270  0.25050  0.92298  1.0000
  H   H731      1.0  0.32886  0.35449  0.57477  1.0000
  H   H732      1.0  0.27069  0.33836  0.80026  1.0000
  C   C463      1.0  0.26891  0.25042  0.66840  1.0000
  S   S192      1.0  0.47982  0.42459  0.51048  1.0000
  H   H733      1.0  0.26767  0.00935  0.56695  1.0000
  C   C464      1.0  0.48974  0.48070  0.50258  1.0000
  H   H734      1.0  0.49406  0.13483  0.75461  1.0000
  H   H735      1.0  0.34475  0.34660  0.62648  1.0000
  C   C465      1.0  0.33516  0.33419  0.57707  1.0000
  H   H736      1.0  0.44630  0.29354  0.64775  1.0000
  H   H737      1.0  0.48594  0.23960  0.88182  1.0000
  C   C466      1.0  0.42050  0.04041  0.64450  1.0000
  H   H738      1.0  0.36039  0.30315  0.58301  1.0000
  H   H739      1.0  0.27325  0.13270  0.89601  1.0000
  N   N44       1.0  0.34580  0.33664  0.59429  1.0000
  H   H740      1.0  0.49969  0.32202  0.62990  1.0000
  C   C467      1.0  0.49681  0.22845  0.88538  1.0000
  H   H741      1.0  0.25854  0.10740  0.93560  1.0000
  C   C468      1.0  0.50110  0.18820  0.98080  1.0000
  H   H742      1.0  0.34131  0.32958  0.56234  1.0000
  N   N45       1.0  0.42486  0.04631  0.62286  1.0000
  H   H743      1.0  0.33048  0.36398  0.61132  1.0000
  H   H744      1.0  0.27720  0.23259  0.67010  1.0000
  H   H745      1.0  0.47213  0.20314  0.90292  1.0000
  C   C469      1.0  0.49639  0.08326  0.71839  1.0000
  H   H746      1.0  0.34550  0.29150  0.60054  1.0000
  H   H747      1.0  0.48054  0.32525  0.64023  1.0000
  C   C470      1.0  0.49309  0.23497  0.92190  1.0000
  H   H748      1.0  0.26992  0.38981  0.79028  1.0000
  H   H749      1.0  0.27917  0.46313  0.51912  1.0000
  H   H750      1.0  0.46568  0.36893  0.63453  1.0000
  C   C471      1.0  0.48335  0.19266  0.90562  1.0000
  H   H751      1.0  0.49180  0.99584  0.55074  1.0000
  H   H752      1.0  0.42385  0.46800  0.59806  1.0000
  C   C472      1.0  0.49750  0.11516  0.74723  1.0000
  C   C473      1.0  0.25877  0.38561  0.78289  1.0000
  H   H753      1.0  0.27535  0.26949  0.66267  1.0000
  H   H754      1.0  0.44378  0.01704  0.62351  1.0000
  C   C474      1.0  0.25933  0.37885  0.50156  1.0000
  C   C475      1.0  0.49820  0.36871  0.60509  1.0000
  H   H755      1.0  0.43723  0.02557  0.59829  1.0000
  N   N46       1.0  0.25647  0.24256  0.65448  1.0000
  H   H756      1.0  0.48367  0.32004  0.61327  1.0000
  H   H757      1.0  0.49939  0.21315  0.87274  1.0000
  H   H758      1.0  0.26438  0.25527  0.68406  1.0000
  H   H759      1.0  0.49183  0.22454  0.93724  1.0000
  C   C476      1.0  0.48817  0.33109  0.62699  1.0000
  H   H760      1.0  0.49883  0.39215  0.60198  1.0000
  H   H761      1.0  0.49821  0.46525  0.79561  1.0000
  H   H762      1.0  0.50411  0.02340  0.49513  1.0000
  Fe  Fe97      1.0  0.43087  0.67379  0.06091  1.0000
  S   S193      1.0  0.43687  0.65634  0.09191  1.0000
  S   S194      1.0  0.40700  0.69239  0.05628  1.0000
  Fe  Fe98      1.0  0.46470  0.67101  0.04479  1.0000
  S   S195      1.0  0.47262  0.65377  0.07529  1.0000
  S   S196      1.0  0.48146  0.67032  0.01680  1.0000
  Fe  Fe99      1.0  0.45198  0.62470  0.07529  1.0000
  S   S197      1.0  0.45314  0.57543  0.07821  1.0000
  Fe  Fe100     1.0  0.45686  0.68674  0.08936  1.0000
  S   S198      1.0  0.46171  0.71336  0.11756  1.0000
  S   S199      1.0  0.44458  0.64050  0.04409  1.0000
  S   S200      1.0  0.45027  0.70584  0.05913  1.0000
  Fe  Fe101     1.0  0.28483  0.64914  0.03979  1.0000
  S   S201      1.0  0.27697  0.66570  0.07075  1.0000
  S   S202      1.0  0.26881  0.64950  0.01186  1.0000
  Fe  Fe102     1.0  0.31883  0.64767  0.05364  1.0000
  S   S203      1.0  0.31303  0.66454  0.08500  1.0000
  S   S204      1.0  0.34255  0.63070  0.04476  1.0000
  Fe  Fe103     1.0  0.29331  0.63345  0.08399  1.0000
  S   S205      1.0  0.28892  0.60684  0.11287  1.0000
  Fe  Fe104     1.0  0.29727  0.69558  0.06930  1.0000
  S   S206      1.0  0.29534  0.74462  0.07206  1.0000
  S   S207      1.0  0.29981  0.61487  0.05338  1.0000
  S   S208      1.0  0.30453  0.68049  0.03769  1.0000
  Fe  Fe105     1.0  0.45338  0.87811  0.14281  1.0000
  S   S209      1.0  0.44830  0.86270  0.17493  1.0000
  S   S210      1.0  0.45863  0.84920  0.11573  1.0000
  Fe  Fe106     1.0  0.45241  0.94189  0.15427  1.0000
  S   S211      1.0  0.44775  0.93023  0.18752  1.0000
  H   H763      1.0  0.49144  0.57360  0.99693  1.0000
  Fe  Fe107     1.0  0.46561  0.89561  0.18439  1.0000
  S   S212      1.0  0.48685  0.89026  0.20465  1.0000
  Fe  Fe108     1.0  0.43092  0.89846  0.17526  1.0000
  S   S213      1.0  0.40743  0.89284  0.19049  1.0000
  S   S214      1.0  0.47148  0.90959  0.15198  1.0000
  S   S215      1.0  0.43470  0.91146  0.14235  1.0000
  Fe  Fe109     1.0  0.29114  0.94413  0.13945  1.0000
  S   S216      1.0  0.30180  0.96177  0.16770  1.0000
  C   C477      1.0  0.48594  0.84125  0.22971  1.0000
  Fe  Fe110     1.0  0.29573  0.88109  0.15265  1.0000
  S   S217      1.0  0.30698  0.89524  0.18192  1.0000
  S   S218      1.0  0.29325  0.83247  0.14771  1.0000
  Fe  Fe111     1.0  0.28792  0.92812  0.18478  1.0000
  S   S219      1.0  0.27390  0.93193  0.21518  1.0000
  Fe  Fe112     1.0  0.31977  0.92771  0.16238  1.0000
  S   S220      1.0  0.34463  0.94213  0.15695  1.0000
  S   S221      1.0  0.27612  0.91223  0.15650  1.0000
  S   S222      1.0  0.30956  0.91165  0.13323  1.0000
  C   C478      1.0  0.39734  0.75745  0.09051  1.0000
  C   C479      1.0  0.48872  0.59868  0.04563  1.0000
  C   C480      1.0  0.26333  0.76802  0.03065  1.0000
  C   C481      1.0  0.31974  0.96624  0.08714  1.0000
  C   C482      1.0  0.26212  0.48589  0.22382  1.0000
  H   H764      1.0  0.27447  0.51505  0.16625  1.0000
  H   H765      1.0  0.33666  0.59633  0.10817  1.0000
  N   N47       1.0  0.33263  0.97612  0.09963  1.0000
  H   H766      1.0  0.27303  0.62498  0.28414  1.0000
  C   C483      1.0  0.38984  0.90387  0.17977  1.0000
  C   C484      1.0  0.38935  0.91898  0.16120  1.0000
  C   C485      1.0  0.37536  0.93006  0.15425  1.0000
  C   C486      1.0  0.36161  0.92524  0.16535  1.0000
  C   C487      1.0  0.36201  0.90914  0.18349  1.0000
  C   C488      1.0  0.37608  0.89878  0.19075  1.0000
  H   H767      1.0  0.39979  0.92251  0.15241  1.0000
  H   H768      1.0  0.37518  0.94238  0.14016  1.0000
  H   H769      1.0  0.35155  0.90539  0.19225  1.0000
  H   H770      1.0  0.37632  0.88702  0.20510  1.0000
  C   C489      1.0  0.29526  0.76858  0.09341  1.0000
  C   C490      1.0  0.29441  0.75900  0.11380  1.0000
  C   C491      1.0  0.29388  0.77885  0.13008  1.0000
  C   C492      1.0  0.29433  0.80857  0.12635  1.0000
  C   C493      1.0  0.29532  0.81815  0.10595  1.0000
  C   C494      1.0  0.29570  0.79830  0.08965  1.0000
  H   H771      1.0  0.29403  0.73631  0.11705  1.0000
  H   H772      1.0  0.29310  0.77110  0.14574  1.0000
  H   H773      1.0  0.29564  0.84085  0.10274  1.0000
  H   H774      1.0  0.29636  0.80609  0.07401  1.0000
  C   C495      1.0  0.29277  0.50905  0.11253  1.0000
  C   C496      1.0  0.28901  0.52394  0.09454  1.0000
  C   C497      1.0  0.28797  0.55393  0.09439  1.0000
  C   C498      1.0  0.29050  0.56926  0.11233  1.0000
  C   C499      1.0  0.29431  0.55441  0.13033  1.0000
  C   C500      1.0  0.29567  0.52444  0.13036  1.0000
  H   H775      1.0  0.28675  0.51219  0.08067  1.0000
  H   H776      1.0  0.28488  0.56515  0.08050  1.0000
  H   H777      1.0  0.29642  0.56622  0.14421  1.0000
  H   H778      1.0  0.29903  0.51330  0.14414  1.0000
  C   C501      1.0  0.45614  0.50935  0.13158  1.0000
  C   C502      1.0  0.45623  0.53891  0.13565  1.0000
  C   C503      1.0  0.45519  0.55940  0.11966  1.0000
  C   C504      1.0  0.45409  0.55066  0.09925  1.0000
  C   C505      1.0  0.45390  0.52108  0.09519  1.0000
  C   C506      1.0  0.45489  0.50059  0.11119  1.0000
  H   H779      1.0  0.45720  0.54607  0.15132  1.0000
  H   H780      1.0  0.45538  0.58198  0.12314  1.0000
  H   H781      1.0  0.45307  0.51394  0.07951  1.0000
  C   C507      1.0  0.50411  0.85308  0.15546  1.0000
  C   C508      1.0  0.46060  0.75107  0.11680  1.0000
  C   C509      1.0  0.46322  0.76639  0.09859  1.0000
  C   C510      1.0  0.46252  0.79643  0.09854  1.0000
  C   C511      1.0  0.45897  0.81142  0.11659  1.0000
  C   C512      1.0  0.45601  0.79607  0.13474  1.0000
  C   C513      1.0  0.45706  0.76603  0.13489  1.0000
  H   H782      1.0  0.46608  0.75512  0.08460  1.0000
  H   H783      1.0  0.46480  0.80814  0.08442  1.0000
  H   H784      1.0  0.45279  0.80724  0.14860  1.0000
  H   H785      1.0  0.45488  0.75427  0.14900  1.0000
  C   C514      1.0  0.38922  0.67424  0.05431  1.0000
  C   C515      1.0  0.38834  0.64512  0.04977  1.0000
  C   C516      1.0  0.37397  0.63210  0.04699  1.0000
  C   C517      1.0  0.36032  0.64783  0.04922  1.0000
  C   C518      1.0  0.36119  0.67675  0.05431  1.0000
  C   C519      1.0  0.37556  0.68993  0.05657  1.0000
  H   H786      1.0  0.39875  0.63287  0.04775  1.0000
  H   H787      1.0  0.37345  0.60983  0.04276  1.0000
  H   H788      1.0  0.35080  0.68917  0.05591  1.0000
  H   H789      1.0  0.37606  0.71252  0.05981  1.0000
  C   C520      1.0  0.48980  0.56010  0.42889  1.0000
  H   H790      1.0  0.26020  0.69634  0.03809  1.0000
  C   C521      1.0  0.49317  0.72535  0.00862  1.0000
  H   H791      1.0  0.48664  0.73239  0.02191  1.0000
  H   H792      1.0  0.39482  0.73952  0.07994  1.0000
  C   C522      1.0  0.25979  0.57343  0.28904  1.0000
  C   C523      1.0  0.49433  0.86489  0.22250  1.0000
  H   H793      1.0  0.49788  0.54419  0.42217  1.0000
  C   C524      1.0  0.41674  0.78280  0.10904  1.0000
  H   H794      1.0  0.32924  0.86596  0.46110  1.0000
  H   H795      1.0  0.32910  0.57702  0.05385  1.0000
  H   H796      1.0  0.32091  0.53936  0.10313  1.0000
  H   H797      1.0  0.48563  0.88211  0.28596  1.0000
  H   H798      1.0  0.42191  0.96479  0.15859  1.0000
  C   C525      1.0  0.26857  0.49473  0.16243  1.0000
  H   H799      1.0  0.32154  0.83028  0.46122  1.0000
  H   H800      1.0  0.26100  0.52680  0.23897  1.0000
  H   H801      1.0  0.40288  0.97473  0.15150  1.0000
  H   H802      1.0  0.35484  0.58448  0.06786  1.0000
  H   H803      1.0  0.28318  0.74415  0.00376  1.0000
  H   H804      1.0  0.35284  0.95849  0.11318  1.0000
  H   H805      1.0  0.38760  0.48249  0.12836  1.0000
  H   H806      1.0  0.49484  0.60925  0.00587  1.0000
  H   H807      1.0  0.31480  0.55815  0.06862  1.0000
  H   H808      1.0  0.26668  0.93876  0.33541  1.0000
  C   C526      1.0  0.40527  0.97296  0.19282  1.0000
  H   H809      1.0  0.26651  0.78256  0.01768  1.0000
  H   H810      1.0  0.47486  0.83765  0.15577  1.0000
  H   H811      1.0  0.43107  0.73179  0.10796  1.0000
  H   H812      1.0  0.33088  0.53925  0.05788  1.0000
  H   H813      1.0  0.27572  0.48355  0.15070  1.0000
  H   H814      1.0  0.30200  0.89394  0.48319  1.0000
  H   H815      1.0  0.31830  0.59177  0.09684  1.0000
  H   H816      1.0  0.49156  0.81654  0.12901  1.0000
  H   H817      1.0  0.50244  0.76730  0.00178  1.0000
  C   C527      1.0  0.33325  0.54114  0.09890  1.0000
  H   H818      1.0  0.25595  0.74586  0.99394  1.0000
  C   C528      1.0  0.41864  0.73173  0.10468  1.0000
  N   N48       1.0  0.41384  0.75885  0.09497  1.0000
  H   H819      1.0  0.31950  0.97137  0.12765  1.0000
  H   H820      1.0  0.42451  0.51367  0.14523  1.0000
  H   H821      1.0  0.39330  0.77747  0.08306  1.0000
  H   H822      1.0  0.43517  0.76408  0.07839  1.0000
  H   H823      1.0  0.40607  0.52101  0.15653  1.0000
  H   H824      1.0  0.48837  0.55439  0.44545  1.0000
  H   H825      1.0  0.42910  0.78439  0.11262  1.0000
  H   H826      1.0  0.39032  0.75394  0.10473  1.0000
  N   N49       1.0  0.50286  0.87347  0.30838  1.0000
  H   H827      1.0  0.48031  0.53696  0.02115  1.0000
  H   H828      1.0  0.32374  0.95768  0.07211  1.0000
  H   H829      1.0  0.29147  0.84460  0.48326  1.0000
  C   C529      1.0  0.34303  0.95189  0.10365  1.0000
  C   C530      1.0  0.25978  0.71938  0.04220  1.0000
  H   H830      1.0  0.50267  0.78902  0.18046  1.0000
  C   C531      1.0  0.46839  0.58970  0.02194  1.0000
  C   C532      1.0  0.27964  0.73080  0.01721  1.0000
  H   H831      1.0  0.50040  0.59291  0.05069  1.0000
  C   C533      1.0  0.25567  0.50606  0.23756  1.0000
  C   C534      1.0  0.25735  0.62369  0.99876  1.0000
  H   H832      1.0  0.35934  0.57133  0.09286  1.0000
  H   H833      1.0  0.47591  0.54670  0.04722  1.0000
  H   H834      1.0  0.48882  0.62187  0.04171  1.0000
  C   C535      1.0  0.49842  0.80665  0.14145  1.0000
  C   C536      1.0  0.49471  0.58624  0.01057  1.0000
  H   H835      1.0  0.49581  0.91727  0.31142  1.0000
  H   H836      1.0  0.40366  0.98123  0.20866  1.0000
  H   H837      1.0  0.41331  0.80366  0.10221  1.0000
  H   H838      1.0  0.28056  0.70801  0.01252  1.0000
  H   H839      1.0  0.26059  0.56587  0.27289  1.0000
  H   H840      1.0  0.41034  0.78009  0.12385  1.0000
  H   H841      1.0  0.46443  0.57716  0.00863  1.0000
  H   H842      1.0  0.41237  0.72771  0.11942  1.0000
  C   C537      1.0  0.26854  0.95478  0.32289  1.0000
  H   H843      1.0  0.33957  0.54438  0.11336  1.0000
  N   N50       1.0  0.48396  0.58131  0.02802  1.0000
  S   S223      1.0  0.28438  0.97195  0.11230  1.0000
  H   H844      1.0  0.48081  0.59564  0.05905  1.0000
  H   H845      1.0  0.47856  0.55708  0.42147  1.0000
  C   C538      1.0  0.35248  0.56685  0.07905  1.0000
  C   C539      1.0  0.33080  0.59199  0.09353  1.0000
  H   H846      1.0  0.38553  0.48360  0.15588  1.0000
  H   H847      1.0  0.49836  0.84368  0.33310  1.0000
  H   H848      1.0  0.35681  0.54679  0.07198  1.0000
  C   C540      1.0  0.50219  0.74516  0.99713  1.0000
  H   H849      1.0  0.41946  0.78378  0.06798  1.0000
  H   H850      1.0  0.27233  0.49123  0.21497  1.0000
  H   H851      1.0  0.49551  0.54364  0.03875  1.0000
  H   H852      1.0  0.49165  0.84558  0.28733  1.0000
  H   H853      1.0  0.33704  0.93444  0.11231  1.0000
  H   H854      1.0  0.47443  0.83782  0.22440  1.0000
  N   N51       1.0  0.49559  0.58962  0.42612  1.0000
  C   C541      1.0  0.49916  0.89867  0.32109  1.0000
  H   H855      1.0  0.47939  0.85970  0.30709  1.0000
  C   C542      1.0  0.48195  0.82688  0.16752  1.0000
  H   H856      1.0  0.26074  0.50747  0.12367  1.0000
  H   H857      1.0  0.34768  0.94260  0.08918  1.0000
  H   H858      1.0  0.41651  0.71316  0.09457  1.0000
  H   H859      1.0  0.47674  0.80561  0.17092  1.0000
  H   H860      1.0  0.26773  0.72269  0.05511  1.0000
  N   N52       1.0  0.33597  0.56488  0.08420  1.0000
  H   H861      1.0  0.39403  0.96446  0.18789  1.0000
  C   C543      1.0  0.48396  0.55076  0.03399  1.0000
  H   H862      1.0  0.49355  0.78494  0.14438  1.0000
  H   H863      1.0  0.27010  0.94286  0.30826  1.0000
  C   C544      1.0  0.42266  0.76338  0.07564  1.0000
  H   H864      1.0  0.40842  0.51922  0.12905  1.0000
  C   C545      1.0  0.49233  0.82226  0.24420  1.0000
  C   C546      1.0  0.49255  0.69661  0.00283  1.0000
  H   H865      1.0  0.33679  0.52024  0.09232  1.0000
  H   H866      1.0  0.26276  0.61228  0.31894  1.0000
  H   H867      1.0  0.48955  0.89409  0.33207  1.0000
  H   H868      1.0  0.50366  0.86707  0.16923  1.0000
  N   N53       1.0  0.25559  0.97497  0.32175  1.0000
  C   C547      1.0  0.32732  0.55954  0.06533  1.0000
  H   H869      1.0  0.33310  0.61050  0.08315  1.0000
  H   H870      1.0  0.30938  0.86018  0.45569  1.0000
  C   C548      1.0  0.26119  0.62288  0.27830  1.0000
  H   H871      1.0  0.26211  0.61669  0.26186  1.0000
  C   C549      1.0  0.49746  0.59613  0.40397  1.0000
  H   H872      1.0  0.42064  0.74584  0.06456  1.0000
  H   H873      1.0  0.48561  0.80433  0.24987  1.0000
  H   H874      1.0  0.28812  0.73448  0.02945  1.0000
  C   C550      1.0  0.26252  0.95904  0.22726  1.0000
  H   H875      1.0  0.46794  0.61272  0.01749  1.0000
  H   H876      1.0  0.41327  0.95446  0.19366  1.0000
  N   N54       1.0  0.26396  0.73772  0.02442  1.0000
  H   H877      1.0  0.47319  0.60837  0.42829  1.0000
  H   H878      1.0  0.26078  0.58880  0.01983  1.0000
  H   H879      1.0  0.48866  0.63236  0.43368  1.0000
  N   N55       1.0  0.49795  0.82428  0.16020  1.0000
  C   C551      1.0  0.48461  0.60989  0.43549  1.0000
  H   H880      1.0  0.27156  0.57401  0.29519  1.0000
  H   H881      1.0  0.27947  0.96614  0.32587  1.0000
  H   H882      1.0  0.25979  0.53888  0.13919  1.0000
  H   H883      1.0  0.27144  0.77227  0.04333  1.0000
  H   H884      1.0  0.45995  0.58621  0.03474  1.0000
  C   C552      1.0  0.48927  0.86492  0.29672  1.0000
  H   H885      1.0  0.48109  0.83970  0.18179  1.0000
  S   S224      1.0  0.45731  0.48458  0.15260  1.0000
  H   H886      1.0  0.48298  0.60556  0.45221  1.0000
  C   C553      1.0  0.41201  0.50948  0.14382  1.0000
  C   C554      1.0  0.31901  0.85285  0.46536  1.0000
  H   H887      1.0  0.50203  0.61812  0.40132  1.0000
  H   H888      1.0  0.31311  0.94897  0.09514  1.0000
  H   H889      1.0  0.48645  0.59431  0.39581  1.0000
  H   H890      1.0  0.49737  0.86393  0.14332  1.0000
  H   H891      1.0  0.25575  0.64437  0.27895  1.0000
  H   H892      1.0  0.25535  0.90527  0.47856  1.0000
  H   H893      1.0  0.45279  0.98175  0.10420  1.0000
  Fe  Fe113     1.0  0.46494  0.63362  0.68707  1.0000
  S   S225      1.0  0.47783  0.65158  0.65939  1.0000
  S   S226      1.0  0.47429  0.62167  0.71915  1.0000
  Fe  Fe114     1.0  0.43376  0.63673  0.66456  1.0000
  S   S227      1.0  0.44500  0.65375  0.63574  1.0000
  S   S228      1.0  0.40848  0.62668  0.65937  1.0000
  Fe  Fe115     1.0  0.46321  0.62090  0.64145  1.0000
  S   S229      1.0  0.47042  0.59453  0.61373  1.0000
  Fe  Fe116     1.0  0.45827  0.68312  0.65575  1.0000
  S   S230      1.0  0.45888  0.73238  0.65093  1.0000
  S   S231      1.0  0.45119  0.60181  0.66896  1.0000
  S   S232      1.0  0.44627  0.66728  0.68482  1.0000
  Fe  Fe117     1.0  0.28783  0.67976  0.68329  1.0000
  S   S233      1.0  0.28343  0.66284  0.65149  1.0000
  S   S234      1.0  0.26599  0.68912  0.70279  1.0000
  Fe  Fe118     1.0  0.32287  0.67601  0.67549  1.0000
  S   S235      1.0  0.32065  0.65999  0.64335  1.0000
  S   S236      1.0  0.34588  0.68267  0.69072  1.0000
  Fe  Fe119     1.0  0.30208  0.69324  0.64111  1.0000
  S   S237      1.0  0.29896  0.71989  0.61226  1.0000
  Fe  Fe120     1.0  0.30228  0.63085  0.65627  1.0000
  S   S238      1.0  0.30227  0.58190  0.65247  1.0000
  S   S239      1.0  0.30557  0.71166  0.67238  1.0000
  S   S240      1.0  0.30543  0.64540  0.68897  1.0000
  Fe  Fe121     1.0  0.46889  0.92077  0.53921  1.0000
  S   S241      1.0  0.47899  0.90229  0.56810  1.0000
  S   S242      1.0  0.48483  0.92517  0.51051  1.0000
  Fe  Fe122     1.0  0.43668  0.92483  0.56001  1.0000
  S   S243      1.0  0.44521  0.90784  0.59002  1.0000
  S   S244      1.0  0.41209  0.94084  0.56323  1.0000
  Fe  Fe123     1.0  0.46536  0.93678  0.58410  1.0000
  C   C555      1.0  0.41595  0.85445  0.59961  1.0000
  Fe  Fe124     1.0  0.45781  0.87466  0.57162  1.0000
  S   S245      1.0  0.45536  0.82587  0.57773  1.0000
  S   S246      1.0  0.45613  0.95621  0.55536  1.0000
  S   S247      1.0  0.44848  0.89066  0.54137  1.0000
  Fe  Fe125     1.0  0.30199  0.88297  0.58394  1.0000
  S   S248      1.0  0.30723  0.86585  0.55245  1.0000
  S   S249      1.0  0.29848  0.85582  0.61266  1.0000
  Fe  Fe126     1.0  0.30417  0.94577  0.57066  1.0000
  S   S250      1.0  0.31001  0.93267  0.53816  1.0000
  H   H894      1.0  0.27954  0.73629  0.72651  1.0000
  Fe  Fe127     1.0  0.29114  0.89980  0.54107  1.0000
  S   S251      1.0  0.27462  0.89984  0.51378  1.0000
  Fe  Fe128     1.0  0.32560  0.89985  0.55168  1.0000
  S   S252      1.0  0.34826  0.88798  0.53607  1.0000
  S   S253      1.0  0.28444  0.91469  0.57287  1.0000
  S   S254      1.0  0.32134  0.91508  0.58392  1.0000
  H   H895      1.0  0.26245  0.68421  0.78825  1.0000
  C   C556      1.0  0.39456  0.92567  0.55527  1.0000
  C   C557      1.0  0.38090  0.93432  0.56510  1.0000
  C   C558      1.0  0.36669  0.92282  0.55949  1.0000
  C   C559      1.0  0.36596  0.90269  0.54379  1.0000
  C   C560      1.0  0.37961  0.89404  0.53389  1.0000
  C   C561      1.0  0.39385  0.90551  0.53955  1.0000
  H   H896      1.0  0.38129  0.95007  0.57714  1.0000
  H   H897      1.0  0.35627  0.92979  0.56717  1.0000
  H   H898      1.0  0.37915  0.87872  0.52158  1.0000
  H   H899      1.0  0.40421  0.89926  0.53143  1.0000
  C   C562      1.0  0.30168  0.55869  0.63080  1.0000
  C   C563      1.0  0.30253  0.52891  0.63403  1.0000
  C   C564      1.0  0.30202  0.50958  0.61746  1.0000
  C   C565      1.0  0.30059  0.51979  0.59735  1.0000
  C   C566      1.0  0.29980  0.54958  0.59412  1.0000
  C   C567      1.0  0.30038  0.56890  0.61067  1.0000
  H   H900      1.0  0.30345  0.52066  0.64949  1.0000
  C   C568      1.0  0.42746  0.48707  0.60686  1.0000
  H   H901      1.0  0.29873  0.55783  0.57867  1.0000
  H   H902      1.0  0.29972  0.59168  0.60786  1.0000
  C   C569      1.0  0.29989  0.75767  0.61231  1.0000
  C   C570      1.0  0.30315  0.77281  0.63011  1.0000
  C   C571      1.0  0.30284  0.80290  0.62996  1.0000
  C   C572      1.0  0.29969  0.81812  0.61187  1.0000
  C   C573      1.0  0.29684  0.80299  0.59391  1.0000
  C   C574      1.0  0.29684  0.77289  0.59419  1.0000
  H   H903      1.0  0.30592  0.76137  0.64398  1.0000
  H   H904      1.0  0.30517  0.81447  0.64387  1.0000
  H   H905      1.0  0.29428  0.81446  0.57994  1.0000
  H   H906      1.0  0.29433  0.76133  0.58033  1.0000
  C   C575      1.0  0.45804  0.75787  0.63019  1.0000
  C   C576      1.0  0.45581  0.74992  0.60978  1.0000
  C   C577      1.0  0.45500  0.77098  0.59410  1.0000
  C   C578      1.0  0.45650  0.80036  0.59841  1.0000
  C   C579      1.0  0.45852  0.80834  0.61885  1.0000
  C   C580      1.0  0.45924  0.78728  0.63455  1.0000
  H   H907      1.0  0.45492  0.72751  0.60600  1.0000
  H   H908      1.0  0.45348  0.76437  0.57840  1.0000
  H   H909      1.0  0.45971  0.83071  0.62258  1.0000
  H   H910      1.0  0.46097  0.79386  0.65022  1.0000
  H   H911      1.0  0.48717  0.96951  0.56998  1.0000
  C   C581      1.0  0.47150  0.51176  0.59532  1.0000
  C   C582      1.0  0.47164  0.54184  0.59561  1.0000
  C   C583      1.0  0.47058  0.55671  0.61424  1.0000
  C   C584      1.0  0.46948  0.54116  0.63263  1.0000
  C   C585      1.0  0.46963  0.51104  0.63236  1.0000
  C   C586      1.0  0.26766  0.73393  0.73117  1.0000
  H   H912      1.0  0.47256  0.55370  0.58132  1.0000
  H   H913      1.0  0.46875  0.55235  0.64707  1.0000
  H   H914      1.0  0.44011  0.48595  0.60803  1.0000
  C   C587      1.0  0.39146  0.64367  0.66808  1.0000
  C   C588      1.0  0.39077  0.65977  0.68608  1.0000
  C   C589      1.0  0.37679  0.67208  0.69261  1.0000
  C   C590      1.0  0.36342  0.66853  0.68122  1.0000
  C   C591      1.0  0.36422  0.65294  0.66302  1.0000
  C   C592      1.0  0.37811  0.64031  0.65664  1.0000
  H   H915      1.0  0.40087  0.66209  0.69526  1.0000
  H   H916      1.0  0.37627  0.68397  0.70678  1.0000
  H   H917      1.0  0.35408  0.65037  0.65397  1.0000
  H   H918      1.0  0.37854  0.62799  0.64265  1.0000
  C   C593      1.0  0.35275  0.55509  0.68656  1.0000
  C   C594      1.0  0.32645  0.56886  0.69274  1.0000
  H   H919      1.0  0.47240  0.50061  0.58087  1.0000
  H   H920      1.0  0.42828  0.84746  0.56132  1.0000
  C   C595      1.0  0.47058  0.49623  0.61371  1.0000
  H   H921      1.0  0.49233  0.50583  0.77192  1.0000
  N   N56       1.0  0.26395  0.49256  0.53433  1.0000
  C   C596      1.0  0.34682  0.60262  0.69848  1.0000
  H   H922      1.0  0.33899  0.62133  0.69746  1.0000
  H   H923      1.0  0.40172  0.49575  0.58586  1.0000
  C   C597      1.0  0.26055  0.78277  0.64685  1.0000
  H   H924      1.0  0.33112  0.82296  0.49652  1.0000
  C   C598      1.0  0.27378  0.76445  0.67636  1.0000
  H   H925      1.0  0.39141  0.87716  0.58176  1.0000
  H   H926      1.0  0.44238  0.51539  0.57668  1.0000
  H   H927      1.0  0.26876  0.70693  0.80859  1.0000
  H   H928      1.0  0.41547  0.87821  0.60046  1.0000
  H   H929      1.0  0.41047  0.84964  0.54829  1.0000
  H   H930      1.0  0.34918  0.53688  0.67683  1.0000
  C   C599      1.0  0.49532  0.98104  0.50182  1.0000
  H   H931      1.0  0.42242  0.53801  0.62486  1.0000
  H   H932      1.0  0.35845  0.61021  0.69377  1.0000
  H   H933      1.0  0.28134  0.49969  0.51101  1.0000
  H   H934      1.0  0.42638  0.53590  0.56805  1.0000
  H   H935      1.0  0.38624  0.84655  0.56713  1.0000
  C   C600      1.0  0.27588  0.97984  0.53347  1.0000
  H   H936      1.0  0.32562  0.84725  0.51648  1.0000
  H   H937      1.0  0.26506  0.71344  0.66127  1.0000
  C   C601      1.0  0.26122  0.75218  0.74626  1.0000
  H   H938      1.0  0.41703  0.87929  0.56313  1.0000
  H   H939      1.0  0.33266  0.60724  0.66266  1.0000
  C   C602      1.0  0.49779  0.50156  0.49083  1.0000
  C   C603      1.0  0.34068  0.58889  0.66396  1.0000
  C   C604      1.0  0.40910  0.81238  0.58060  1.0000
  C   C605      1.0  0.49590  0.95193  0.49690  1.0000
  N   N57       1.0  0.41116  0.72455  0.64855  1.0000
  C   C606      1.0  0.39442  0.71999  0.64811  1.0000
  C   C607      1.0  0.41457  0.75550  0.64826  1.0000
  C   C608      1.0  0.41844  0.71093  0.63047  1.0000
  C   C609      1.0  0.41730  0.71166  0.66743  1.0000
  H   H940      1.0  0.38854  0.72911  0.66189  1.0000
  H   H941      1.0  0.39158  0.69680  0.64787  1.0000
  H   H942      1.0  0.38932  0.72987  0.63427  1.0000
  H   H943      1.0  0.42716  0.75946  0.64863  1.0000
  H   H944      1.0  0.41023  0.76599  0.63417  1.0000
  H   H945      1.0  0.40934  0.76635  0.66182  1.0000
  H   H946      1.0  0.43111  0.71347  0.63058  1.0000
  H   H947      1.0  0.41434  0.72038  0.61588  1.0000
  H   H948      1.0  0.41598  0.68755  0.63018  1.0000
  H   H949      1.0  0.41608  0.68801  0.66740  1.0000
  H   H950      1.0  0.41135  0.71978  0.68145  1.0000
  H   H951      1.0  0.42970  0.71647  0.66892  1.0000
  H   H952      1.0  0.35200  0.59594  0.65773  1.0000
  C   C610      1.0  0.26421  0.52241  0.54160  1.0000
  H   H953      1.0  0.33859  0.85885  0.49667  1.0000
  H   H954      1.0  0.27141  0.78394  0.68556  1.0000
  H   H955      1.0  0.32189  0.89968  0.48911  1.0000
  C   C611      1.0  0.41636  0.85558  0.56262  1.0000
  H   H956      1.0  0.26931  0.83755  0.51884  1.0000
  C   C612      1.0  0.26317  0.84495  0.50557  1.0000
  H   H957      1.0  0.42439  0.55926  0.60187  1.0000
  C   C613      1.0  0.49143  0.59807  0.75037  1.0000
  C   C614      1.0  0.25874  0.71260  0.72230  1.0000
  H   H958      1.0  0.36436  0.56201  0.68114  1.0000
  N   N58       1.0  0.40839  0.84393  0.58102  1.0000
  H   H959      1.0  0.32204  0.55136  0.68296  1.0000
  C   C615      1.0  0.26359  0.87397  0.50015  1.0000
  C   C616      1.0  0.42758  0.53855  0.60912  1.0000
  H   H960      1.0  0.50085  0.66604  0.98066  1.0000
  H   H961      1.0  0.27340  0.52557  0.55304  1.0000
  H   H962      1.0  0.25844  0.93669  0.54791  1.0000
  C   C617      1.0  0.30148  0.83785  0.49244  1.0000
  H   H963      1.0  0.26644  0.53771  0.52875  1.0000
  H   H964      1.0  0.32673  0.56089  0.70884  1.0000
  H   H965      1.0  0.28840  0.48842  0.53537  1.0000
  H   H966      1.0  0.26830  0.76845  0.75301  1.0000
  H   H967      1.0  0.42121  0.80478  0.58063  1.0000
  C   C618      1.0  0.32817  0.84562  0.49974  1.0000
  C   C619      1.0  0.40577  0.51411  0.59515  1.0000
  H   H968      1.0  0.29804  0.83986  0.50891  1.0000
  H   H969      1.0  0.30856  0.88814  0.50862  1.0000
  H   H970      1.0  0.40172  0.53403  0.58758  1.0000
  H   H971      1.0  0.40310  0.80275  0.59416  1.0000
  C   C620      1.0  0.49097  0.60451  0.72920  1.0000
  H   H972      1.0  0.49738  0.52365  0.49557  1.0000
  H   H973      1.0  0.28499  0.76762  0.66831  1.0000
  C   C621      1.0  0.49490  0.97433  0.55673  1.0000
  H   H974      1.0  0.31785  0.58636  0.69215  1.0000
  H   H975      1.0  0.33628  0.57183  0.65378  1.0000
  H   H976      1.0  0.25627  0.67511  0.83435  1.0000
  N   N59       1.0  0.42262  0.51391  0.59681  1.0000
  S   S255      1.0  0.47509  0.96345  0.60977  1.0000
  H   H977      1.0  0.38575  0.84477  0.59470  1.0000
  H   H978      1.0  0.42826  0.84821  0.59973  1.0000
  N   N60       1.0  0.34168  0.57887  0.68545  1.0000
  H   H979      1.0  0.40005  0.51250  0.61050  1.0000
  H   H980      1.0  0.41042  0.84576  0.61384  1.0000
  H   H981      1.0  0.27513  0.74626  0.68727  1.0000
  H   H982      1.0  0.27611  0.73312  0.64248  1.0000
  C   C622      1.0  0.42967  0.51582  0.57605  1.0000
  H   H983      1.0  0.48158  0.60309  0.76000  1.0000
  H   H984      1.0  0.35380  0.54699  0.70257  1.0000
  H   H985      1.0  0.44021  0.53876  0.61084  1.0000
  H   H986      1.0  0.34727  0.59618  0.71491  1.0000
  S   S256      1.0  0.29942  0.49656  0.57574  1.0000
  C   C623      1.0  0.39224  0.85342  0.58119  1.0000
  H   H987      1.0  0.40373  0.80383  0.56656  1.0000
  H   H988      1.0  0.27563  0.97402  0.51695  1.0000
  N   N61       1.0  0.26146  0.75881  0.66170  1.0000
  H   H989      1.0  0.27139  0.78509  0.63771  1.0000
  H   H990      1.0  0.46893  0.49923  0.64667  1.0000
  H   H991      1.0  0.28257  0.96314  0.54142  1.0000
  H   H992      1.0  0.42605  0.49761  0.56631  1.0000
  C   C624      1.0  0.26480  0.73207  0.65058  1.0000
  H   H993      1.0  0.25792  0.72157  0.78792  1.0000
  H   H994      1.0  0.26090  0.89800  0.80306  1.0000
  H   H995      1.0  0.25607  0.72751  0.63885  1.0000
  H   H996      1.0  0.48324  0.48683  0.51613  1.0000
  H   H997      1.0  0.50370  0.60226  0.70072  1.0000
  H   H998      1.0  0.50433  0.58010  0.77541  1.0000
  C   C625      1.0  0.25913  0.70256  0.79815  1.0000
  C   C626      1.0  0.50377  0.59756  0.71699  1.0000
  H   H999      1.0  0.26786  0.97215  0.57306  1.0000
  H   H1000     1.0  0.49240  0.95841  0.54468  1.0000
  C   C627      1.0  0.50440  0.58511  0.75921  1.0000
  C   C628      1.0  0.27885  0.48566  0.52451  1.0000
  C   C629      1.0  0.31179  0.88567  0.49219  1.0000
  N   N62       1.0  0.31512  0.85547  0.48743  1.0000
  H   H1001     1.0  0.30258  0.48680  0.62028  1.0000
  H   H1002     1.0  0.25843  0.80347  0.65470  1.0000
  H   H1003     1.0  0.50415  0.64790  0.77727  1.0000
  H   H1004     1.0  0.30356  0.81481  0.48937  1.0000
  H   H1005     1.0  0.26075  0.84474  0.80519  1.0000
  H   H1006     1.0  0.42255  0.48500  0.62265  1.0000
  C   C630      1.0  0.50487  0.50850  0.76933  1.0000
  C   C631      1.0  0.50120  0.68812  0.98541  1.0000
  H   H1007     1.0  0.50248  0.82609  0.85848  1.0000
  N   N63       1.0  0.26032  0.98201  0.54257  1.0000
  Fe  Fe129     1.0  0.56832  0.29979  0.31310  1.0000
  S   S257      1.0  0.55509  0.28267  0.34037  1.0000
  S   S258      1.0  0.59302  0.30759  0.32204  1.0000
  Fe  Fe130     1.0  0.53871  0.30632  0.28751  1.0000
  S   S259      1.0  0.52392  0.28829  0.31321  1.0000
  S   S260      1.0  0.53100  0.32766  0.25738  1.0000
  Fe  Fe131     1.0  0.53791  0.31685  0.33342  1.0000
  S   S261      1.0  0.52836  0.34493  0.35883  1.0000
  Fe  Fe132     1.0  0.54275  0.25546  0.31794  1.0000
  S   S262      1.0  0.54123  0.20646  0.32142  1.0000
  S   S263      1.0  0.55193  0.33596  0.30786  1.0000
  S   S264      1.0  0.55665  0.27150  0.29049  1.0000
  Fe  Fe133     1.0  0.71536  0.27550  0.29193  1.0000
  S   S265      1.0  0.72014  0.28932  0.32436  1.0000
  S   S266      1.0  0.73584  0.27651  0.26886  1.0000
  Fe  Fe134     1.0  0.68035  0.27617  0.30102  1.0000
  S   S267      1.0  0.68300  0.29060  0.33356  1.0000
  S   S268      1.0  0.65758  0.26731  0.28567  1.0000
  Fe  Fe135     1.0  0.70100  0.32123  0.32132  1.0000
  S   S269      1.0  0.70353  0.37004  0.32563  1.0000
  Fe  Fe136     1.0  0.70189  0.25764  0.33406  1.0000
  S   S270      1.0  0.70449  0.23027  0.36280  1.0000
  S   S271      1.0  0.69695  0.30886  0.28839  1.0000
  S   S272      1.0  0.69838  0.24153  0.30205  1.0000
  Fe  Fe137     1.0  0.57377  0.02053  0.41141  1.0000
  S   S273      1.0  0.56459  0.03702  0.38163  1.0000
  S   S274      1.0  0.59865  0.00591  0.40744  1.0000
  Fe  Fe138     1.0  0.54134  0.02104  0.43238  1.0000
  S   S275      1.0  0.53053  0.03753  0.40337  1.0000
  S   S276      1.0  0.52627  0.01913  0.46203  1.0000
  Fe  Fe139     1.0  0.54561  0.00526  0.38732  1.0000
  H   H1008     1.0  0.61292  0.20146  0.31051  1.0000
  Fe  Fe140     1.0  0.55055  0.06793  0.40015  1.0000
  S   S277      1.0  0.54916  0.11692  0.39588  1.0000
  H   H1009     1.0  0.57677  0.33451  0.35397  1.0000
  S   S278      1.0  0.56080  0.05325  0.43007  1.0000
  Fe  Fe141     1.0  0.70659  0.00580  0.40677  1.0000
  S   S279      1.0  0.70120  0.02037  0.43917  1.0000
  H   H1010     1.0  0.59164  0.16572  0.31287  1.0000
  Fe  Fe142     1.0  0.70792  0.06804  0.39163  1.0000
  S   S280      1.0  0.70271  0.08645  0.42271  1.0000
  S   S281      1.0  0.70948  0.09445  0.36227  1.0000
  Fe  Fe143     1.0  0.71954  0.05407  0.43464  1.0000
  S   S282      1.0  0.73864  0.05884  0.45852  1.0000
  Fe  Fe144     1.0  0.68490  0.05146  0.42472  1.0000
  S   S283      1.0  0.66092  0.06213  0.43697  1.0000
  S   S284      1.0  0.72591  0.03753  0.40300  1.0000
  S   S285      1.0  0.68907  0.03499  0.39295  1.0000
  H   H1011     1.0  0.72890  0.11698  0.47065  1.0000
  C   C632      1.0  0.51454  0.99262  0.47480  1.0000
  H   H1012     1.0  0.62942  0.00316  0.39160  1.0000
  H   H1013     1.0  0.51178  0.10670  0.03228  1.0000
  H   H1014     1.0  0.73610  0.34479  0.32843  1.0000
  H   H1015     1.0  0.51978  0.07074  0.44178  1.0000
  C   C633      1.0  0.58638  0.17870  0.32537  1.0000
  C   C634      1.0  0.54537  0.47471  0.48098  1.0000
  C   C635      1.0  0.61551  0.02429  0.41455  1.0000
  C   C636      1.0  0.61565  0.04356  0.43085  1.0000
  C   C637      1.0  0.62961  0.05529  0.43736  1.0000
  C   C638      1.0  0.64354  0.04818  0.42751  1.0000
  C   C639      1.0  0.64331  0.02997  0.41061  1.0000
  C   C640      1.0  0.62941  0.01780  0.40436  1.0000
  H   H1016     1.0  0.60507  0.04866  0.43891  1.0000
  H   H1017     1.0  0.65707  0.42368  0.40129  1.0000
  H   H1018     1.0  0.65388  0.02515  0.40252  1.0000
  H   H1019     1.0  0.73923  0.40715  0.99155  1.0000
  C   C641      1.0  0.70465  0.39448  0.34658  1.0000
  C   C642      1.0  0.70576  0.38545  0.36701  1.0000
  C   C643      1.0  0.70708  0.40572  0.38289  1.0000
  C   C644      1.0  0.70722  0.43534  0.37869  1.0000
  C   C645      1.0  0.70597  0.44438  0.35827  1.0000
  C   C646      1.0  0.70476  0.42410  0.34238  1.0000
  H   H1020     1.0  0.70576  0.36283  0.37059  1.0000
  H   H1021     1.0  0.70806  0.39835  0.39858  1.0000
  H   H1022     1.0  0.70616  0.46698  0.35466  1.0000
  H   H1023     1.0  0.70396  0.43145  0.32666  1.0000
  C   C647      1.0  0.70648  0.19262  0.36212  1.0000
  C   C648      1.0  0.70472  0.17722  0.34401  1.0000
  C   C649      1.0  0.70588  0.14719  0.34423  1.0000
  C   C650      1.0  0.70876  0.13227  0.36253  1.0000
  C   C651      1.0  0.71062  0.14767  0.38062  1.0000
  C   C652      1.0  0.70945  0.17770  0.38042  1.0000
  H   H1024     1.0  0.70245  0.18843  0.32983  1.0000
  H   H1025     1.0  0.70450  0.13546  0.33014  1.0000
  H   H1026     1.0  0.71319  0.13649  0.39471  1.0000
  H   H1027     1.0  0.71098  0.18946  0.39446  1.0000
  H   H1028     1.0  0.57375  0.17536  0.32486  1.0000
  H   H1029     1.0  0.66468  0.99151  0.42904  1.0000
  H   H1030     1.0  0.75127  0.44540  0.05009  1.0000
  H   H1031     1.0  0.74841  0.08461  0.21903  1.0000
  H   H1032     1.0  0.52388  0.36480  0.22362  1.0000
  C   C653      1.0  0.54342  0.18204  0.34245  1.0000
  C   C654      1.0  0.54601  0.19114  0.36250  1.0000
  C   C655      1.0  0.54780  0.17091  0.37851  1.0000
  C   C656      1.0  0.54714  0.14128  0.37479  1.0000
  C   C657      1.0  0.54470  0.13218  0.35471  1.0000
  C   C658      1.0  0.54282  0.15241  0.33871  1.0000
  H   H1033     1.0  0.54644  0.21377  0.36574  1.0000
  H   H1034     1.0  0.54967  0.17832  0.39394  1.0000
  H   H1035     1.0  0.54410  0.10955  0.35150  1.0000
  H   H1036     1.0  0.54082  0.14501  0.32330  1.0000
  C   C659      1.0  0.53295  0.38173  0.35964  1.0000
  C   C660      1.0  0.53885  0.39591  0.34231  1.0000
  C   C661      1.0  0.54258  0.42507  0.34318  1.0000
  C   C662      1.0  0.54077  0.44024  0.36155  1.0000
  C   C663      1.0  0.53491  0.42613  0.37899  1.0000
  C   C664      1.0  0.53089  0.39698  0.37796  1.0000
  C   C665      1.0  0.51011  0.34458  0.16050  1.0000
  H   H1037     1.0  0.60262  0.36512  0.37518  1.0000
  H   H1038     1.0  0.53345  0.43765  0.39322  1.0000
  H   H1039     1.0  0.52629  0.38617  0.39147  1.0000
  C   C666      1.0  0.61074  0.29627  0.31130  1.0000
  C   C667      1.0  0.62407  0.30092  0.32252  1.0000
  C   C668      1.0  0.63847  0.29226  0.31483  1.0000
  C   C669      1.0  0.63969  0.27875  0.29582  1.0000
  C   C670      1.0  0.62633  0.27396  0.28462  1.0000
  C   C671      1.0  0.61190  0.28282  0.29224  1.0000
  H   H1040     1.0  0.62332  0.31130  0.33726  1.0000
  H   H1041     1.0  0.64865  0.29606  0.32359  1.0000
  H   H1042     1.0  0.62721  0.26373  0.26981  1.0000
  H   H1043     1.0  0.60180  0.27967  0.28322  1.0000
  S   S286      1.0  0.70867  0.45980  0.39959  1.0000
  C   C672      1.0  0.66544  0.47724  0.41070  1.0000
  N   N64       1.0  0.74734  0.35440  0.29953  1.0000
  H   H1044     1.0  0.73710  0.38194  0.32227  1.0000
  H   H1045     1.0  0.73204  0.26359  0.17309  1.0000
  H   H1046     1.0  0.51077  0.40896  0.32632  1.0000
  H   H1047     1.0  0.51810  0.42279  0.28061  1.0000
  H   H1048     1.0  0.59355  0.00460  0.36219  1.0000
  H   H1049     1.0  0.58892  0.40268  0.32852  1.0000
  C   C673      1.0  0.60714  0.21296  0.32338  1.0000
  C   C674      1.0  0.58036  0.40381  0.36841  1.0000
  H   H1050     1.0  0.52578  0.10044  0.45683  1.0000
  S   S287      1.0  0.55530  0.98704  0.41621  1.0000
  C   C675      1.0  0.51316  0.33663  0.24594  1.0000
  H   H1051     1.0  0.56811  0.40980  0.36702  1.0000
  H   H1052     1.0  0.73540  0.34603  0.27156  1.0000
  H   H1053     1.0  0.52615  0.14384  0.42088  1.0000
  H   H1054     1.0  0.58725  0.42272  0.36341  1.0000
  H   H1055     1.0  0.73432  0.46683  0.04815  1.0000
  H   H1056     1.0  0.51291  0.45922  0.45350  1.0000
  H   H1057     1.0  0.57552  0.34917  0.37929  1.0000
  H   H1058     1.0  0.52218  0.38653  0.27343  1.0000
  C   C676      1.0  0.74426  0.26177  0.17741  1.0000
  H   H1059     1.0  0.58422  0.36588  0.32431  1.0000
  H   H1060     1.0  0.59027  0.16990  0.34029  1.0000
  H   H1061     1.0  0.52058  0.29658  0.17822  1.0000
  H   H1062     1.0  0.68272  0.10765  0.38365  1.0000
  H   H1063     1.0  0.65914  0.46684  0.42372  1.0000
  H   H1064     1.0  0.74885  0.30917  0.30539  1.0000
  C   C677      1.0  0.50842  0.30202  0.18172  1.0000
  H   H1065     1.0  0.67021  0.15976  0.42279  1.0000
  N   N65       1.0  0.58410  0.37830  0.35604  1.0000
  H   H1066     1.0  0.67784  0.47272  0.41265  1.0000
  C   C678      1.0  0.74603  0.46361  0.04165  1.0000
  C   C679      1.0  0.74794  0.21980  0.15653  1.0000
  H   H1067     1.0  0.51760  0.10205  0.40100  1.0000
  C   C680      1.0  0.73825  0.22295  0.24988  1.0000
  N   N66       1.0  0.59034  0.20930  0.32302  1.0000
  C   C681      1.0  0.64862  0.13007  0.40324  1.0000
  H   H1068     1.0  0.50722  0.05639  0.02167  1.0000
  C   C682      1.0  0.73308  0.35176  0.28787  1.0000
  C   C683      1.0  0.74436  0.25038  0.25221  1.0000
  H   H1069     1.0  0.67315  0.12212  0.42689  1.0000
  C   C684      1.0  0.67034  0.10640  0.38768  1.0000
  H   H1070     1.0  0.66879  0.08798  0.39838  1.0000
  H   H1071     1.0  0.74045  0.18213  0.23484  1.0000
  H   H1072     1.0  0.57194  0.21671  0.30224  1.0000
  C   C685      1.0  0.67403  0.13968  0.41526  1.0000
  H   H1073     1.0  0.54711  0.43589  0.32964  1.0000
  H   H1074     1.0  0.56188  0.35911  0.36040  1.0000
  H   H1075     1.0  0.54045  0.38450  0.32816  1.0000
  C   C686      1.0  0.74674  0.08589  0.47438  1.0000
  C   C687      1.0  0.74354  0.36145  0.32112  1.0000
  N   N67       1.0  0.66009  0.46700  0.39068  1.0000
  H   H1076     1.0  0.63905  0.46499  0.37419  1.0000
  H   H1077     1.0  0.52221  0.34005  0.15603  1.0000
  C   C688      1.0  0.58158  0.38470  0.33411  1.0000
  C   C689      1.0  0.58320  0.22559  0.34001  1.0000
  H   H1078     1.0  0.64406  0.15001  0.41024  1.0000
  H   H1079     1.0  0.58706  0.21778  0.35521  1.0000
  C   C690      1.0  0.60030  0.37043  0.35888  1.0000
  C   C691      1.0  0.50660  0.46540  0.46718  1.0000
  H   H1080     1.0  0.56951  0.39070  0.33134  1.0000
  H   H1081     1.0  0.65959  0.42756  0.37389  1.0000
  H   H1082     1.0  0.74881  0.20565  0.17031  1.0000
  H   H1083     1.0  0.60813  0.38809  0.35400  1.0000
  H   H1084     1.0  0.50817  0.31471  0.19611  1.0000
  H   H1085     1.0  0.73575  0.22011  0.15191  1.0000
  H   H1086     1.0  0.72567  0.33465  0.29444  1.0000
  H   H1087     1.0  0.66305  0.17774  0.38852  1.0000
  H   H1088     1.0  0.51018  0.35853  0.17426  1.0000
  H   H1089     1.0  0.66420  0.10140  0.37336  1.0000
  H   H1090     1.0  0.72623  0.37182  0.28831  1.0000
  H   H1091     1.0  0.60347  0.35137  0.34957  1.0000
  H   H1092     1.0  0.52905  0.40015  0.29715  1.0000
  H   H1093     1.0  0.72801  0.21692  0.25847  1.0000
  C   C692      1.0  0.74537  0.20320  0.23641  1.0000
  S   S288      1.0  0.54656  0.47636  0.36188  1.0000
  H   H1094     1.0  0.53380  0.09526  0.43164  1.0000
  H   H1095     1.0  0.57050  0.22366  0.33991  1.0000
  H   H1096     1.0  0.64708  0.11256  0.41482  1.0000
  H   H1097     1.0  0.67868  0.15924  0.37653  1.0000
  C   C693      1.0  0.51314  0.35596  0.22924  1.0000
  N   N68       1.0  0.66488  0.13329  0.39701  1.0000
  H   H1098     1.0  0.61044  0.23591  0.32186  1.0000
  H   H1099     1.0  0.64140  0.12469  0.38993  1.0000
  H   H1100     1.0  0.68637  0.14234  0.41111  1.0000
  C   C694      1.0  0.58453  0.22005  0.30329  1.0000
  H   H1101     1.0  0.61195  0.20486  0.33798  1.0000
  H   H1102     1.0  0.62964  0.06950  0.45038  1.0000
  H   H1103     1.0  0.58240  0.40002  0.38500  1.0000
  C   C695      1.0  0.66316  0.43603  0.38898  1.0000
  C   C696      1.0  0.52306  0.09370  0.44099  1.0000
  C   C697      1.0  0.73959  0.11220  0.47801  1.0000
  H   H1104     1.0  0.65967  0.15301  0.36802  1.0000
  H   H1105     1.0  0.67561  0.43142  0.39037  1.0000
  H   H1106     1.0  0.74498  0.45657  0.02545  1.0000
  H   H1107     1.0  0.75080  0.39826  0.29071  1.0000
  H   H1108     1.0  0.58606  0.24876  0.33880  1.0000
  C   C698      1.0  0.66657  0.15686  0.38189  1.0000
  H   H1109     1.0  0.59003  0.20902  0.29001  1.0000
  H   H1110     1.0  0.58676  0.24335  0.30141  1.0000
  C   C699      1.0  0.57416  0.35425  0.36274  1.0000
  C   C700      1.0  0.64350  0.47250  0.38909  1.0000
  H   H1111     1.0  0.63688  0.46172  0.40167  1.0000
  H   H1112     1.0  0.74466  0.24863  0.19175  1.0000
  H   H1113     1.0  0.74083  0.26864  0.13661  1.0000
  H   H1114     1.0  0.68096  0.47944  0.37516  1.0000
  H   H1115     1.0  0.51617  0.35958  0.31589  1.0000
  H   H1116     1.0  0.51350  0.29345  0.14160  1.0000
  C   C701      1.0  0.51918  0.40059  0.28665  1.0000
  C   C702      1.0  0.74381  0.38576  0.99036  1.0000
  H   H1117     1.0  0.66501  0.47467  0.35862  1.0000
  H   H1118     1.0  0.75471  0.20962  0.14389  1.0000
  H   H1119     1.0  0.75398  0.36337  0.33050  1.0000
  C   C703      1.0  0.51573  0.14141  0.43085  1.0000
  H   H1120     1.0  0.50978  0.34661  0.29171  1.0000
  C   C704      1.0  0.50684  0.36127  0.30455  1.0000
  N   N69       1.0  0.51074  0.11123  0.43212  1.0000
  H   H1121     1.0  0.51857  0.14987  0.44622  1.0000
  H   H1122     1.0  0.74841  0.28356  0.18123  1.0000
  H   H1123     1.0  0.50672  0.15529  0.42424  1.0000
  C   C705      1.0  0.50732  0.10084  0.41133  1.0000
  C   C706      1.0  0.75279  0.26668  0.14198  1.0000
  N   N70       1.0  0.75362  0.24889  0.16078  1.0000
  H   H1124     1.0  0.55224  0.45544  0.47706  1.0000
  H   H1125     1.0  0.60547  0.99083  0.34176  1.0000
  C   C707      1.0  0.59911  0.98489  0.35611  1.0000
  H   H1126     1.0  0.57036  0.99179  0.34282  1.0000
  Fe  Fe145     1.0  0.53910  0.04374  0.78957  1.0000
  S   S289      1.0  0.53191  0.02601  0.82078  1.0000
  S   S290      1.0  0.52482  0.04581  0.76010  1.0000
  Fe  Fe146     1.0  0.57277  0.05124  0.80289  1.0000
  S   S291      1.0  0.56782  0.03429  0.83449  1.0000
  S   S292      1.0  0.59547  0.07303  0.79482  1.0000
  Fe  Fe147     1.0  0.55376  0.00006  0.81977  1.0000
  S   S293      1.0  0.54370  0.45599  0.82232  1.0000
  Fe  Fe148     1.0  0.54667  0.06157  0.83321  1.0000
  S   S294      1.0  0.54320  0.08860  0.86175  1.0000
  S   S295      1.0  0.56016  0.01560  0.78772  1.0000
  S   S296      1.0  0.55236  0.08060  0.80235  1.0000
  Fe  Fe149     1.0  0.71749  0.02852  0.78885  1.0000
  S   S297      1.0  0.72637  0.04392  0.81913  1.0000
  S   S298      1.0  0.73190  0.02356  0.75882  1.0000
  Fe  Fe150     1.0  0.68410  0.02889  0.80551  1.0000
  S   S299      1.0  0.69056  0.04379  0.83690  1.0000
  S   S300      1.0  0.66063  0.01150  0.79719  1.0000
  Fe  Fe151     1.0  0.70649  0.07470  0.82062  1.0000
  S   S301      1.0  0.71199  0.12106  0.82992  1.0000
  Fe  Fe152     1.0  0.70996  0.01240  0.83382  1.0000
  H   H1127     1.0  0.65313  0.23298  0.96666  1.0000
  S   S302      1.0  0.69866  0.06189  0.78902  1.0000
  C   C708      1.0  0.65936  0.46089  0.86581  1.0000
  Fe  Fe153     1.0  0.54283  0.25174  0.88827  1.0000
  S   S303      1.0  0.55174  0.23369  0.91764  1.0000
  S   S304      1.0  0.53428  0.22365  0.86261  1.0000
  Fe  Fe154     1.0  0.54801  0.31458  0.90083  1.0000
  S   S305      1.0  0.55705  0.29999  0.93154  1.0000
  S   S306      1.0  0.54880  0.36348  0.89550  1.0000
  Fe  Fe155     1.0  0.57035  0.26702  0.91363  1.0000
  S   S307      1.0  0.59556  0.25398  0.91241  1.0000
  Fe  Fe156     1.0  0.53752  0.26796  0.93284  1.0000
  S   S308      1.0  0.52096  0.26360  0.96073  1.0000
  S   S309      1.0  0.56218  0.28283  0.88312  1.0000
  S   S310      1.0  0.52770  0.28484  0.90337  1.0000
  Fe  Fe157     1.0  0.68012  0.30818  0.92482  1.0000
  S   S311      1.0  0.68450  0.29365  0.89253  1.0000
  S   S312      1.0  0.65638  0.31840  0.93783  1.0000
  Fe  Fe158     1.0  0.71446  0.30675  0.93605  1.0000
  S   S313      1.0  0.72082  0.29038  0.90447  1.0000
  S   S314      1.0  0.73438  0.31190  0.95867  1.0000
  Fe  Fe159     1.0  0.70451  0.32421  0.89331  1.0000
  S   S315      1.0  0.71246  0.35278  0.86680  1.0000
  Fe  Fe160     1.0  0.70034  0.26097  0.90636  1.0000
  S   S316      1.0  0.69689  0.21250  0.90093  1.0000
  S   S317      1.0  0.69890  0.34139  0.92458  1.0000
  S   S318      1.0  0.69513  0.27470  0.93902  1.0000
  H   H1128     1.0  0.72671  0.37202  0.96883  1.0000
  C   C709      1.0  0.50742  0.46067  0.75603  1.0000
  C   C710      1.0  0.50627  0.06421  0.72869  1.0000
  H   H1129     1.0  0.67691  0.18303  0.93562  1.0000
  C   C711      1.0  0.61185  0.27456  0.91847  1.0000
  C   C712      1.0  0.62543  0.27070  0.90693  1.0000
  C   C713      1.0  0.63901  0.28491  0.91218  1.0000
  C   C714      1.0  0.63922  0.30261  0.92935  1.0000
  C   C715      1.0  0.62556  0.30701  0.94061  1.0000
  C   C716      1.0  0.61193  0.29305  0.93523  1.0000
  H   H1130     1.0  0.62545  0.25650  0.89389  1.0000
  H   H1131     1.0  0.64939  0.28175  0.90318  1.0000
  H   H1132     1.0  0.62564  0.32062  0.95397  1.0000
  H   H1133     1.0  0.60164  0.29577  0.94450  1.0000
  C   C717      1.0  0.70080  0.18791  0.88051  1.0000
  C   C718      1.0  0.71043  0.19462  0.86375  1.0000
  C   C719      1.0  0.71358  0.17399  0.84846  1.0000
  C   C720      1.0  0.70702  0.14646  0.84943  1.0000
  C   C721      1.0  0.69718  0.13988  0.86602  1.0000
  C   C722      1.0  0.69424  0.16034  0.88150  1.0000
  H   H1134     1.0  0.71562  0.21559  0.86267  1.0000
  H   H1135     1.0  0.72117  0.17949  0.83573  1.0000
  H   H1136     1.0  0.69180  0.11909  0.86690  1.0000
  H   H1137     1.0  0.68673  0.15481  0.89430  1.0000
  C   C723      1.0  0.70607  0.45032  0.86371  1.0000
  C   C724      1.0  0.70174  0.43508  0.88155  1.0000
  C   C725      1.0  0.70324  0.40514  0.88255  1.0000
  C   C726      1.0  0.70939  0.39021  0.86582  1.0000
  C   C727      1.0  0.71371  0.40546  0.84797  1.0000
  C   C728      1.0  0.71193  0.43536  0.84683  1.0000
  H   H1138     1.0  0.69720  0.44649  0.89470  1.0000
  H   H1139     1.0  0.69975  0.39371  0.89633  1.0000
  H   H1140     1.0  0.71849  0.39408  0.83495  1.0000
  H   H1141     1.0  0.71537  0.44683  0.83303  1.0000
  H   H1142     1.0  0.69201  0.46284  0.71653  1.0000
  C   C729      1.0  0.74328  0.99761  0.74527  1.0000
  H   H1143     1.0  0.51305  0.18281  0.89715  1.0000
  H   H1144     1.0  0.74048  0.15243  0.49406  1.0000
  H   H1145     1.0  0.55589  0.07696  0.70861  1.0000
  C   C730      1.0  0.54573  0.43050  0.84276  1.0000
  C   C731      1.0  0.54326  0.40125  0.83885  1.0000
  C   C732      1.0  0.54430  0.38040  0.85461  1.0000
  C   C733      1.0  0.54766  0.38853  0.87466  1.0000
  C   C734      1.0  0.55026  0.41774  0.87852  1.0000
  C   C735      1.0  0.54938  0.43854  0.86273  1.0000
  H   H1146     1.0  0.54042  0.39466  0.82352  1.0000
  H   H1147     1.0  0.54224  0.35812  0.85131  1.0000
  H   H1148     1.0  0.55278  0.42444  0.89395  1.0000
  H   H1149     1.0  0.55124  0.46087  0.86610  1.0000
  C   C736      1.0  0.54129  0.12625  0.86126  1.0000
  C   C737      1.0  0.54398  0.14161  0.87927  1.0000
  C   C738      1.0  0.54249  0.17153  0.87963  1.0000
  C   C739      1.0  0.53781  0.18636  0.86214  1.0000
  C   C740      1.0  0.53515  0.17101  0.84409  1.0000
  C   C741      1.0  0.53708  0.14111  0.84355  1.0000
  H   H1150     1.0  0.54716  0.13027  0.89307  1.0000
  H   H1151     1.0  0.54456  0.18297  0.89363  1.0000
  H   H1152     1.0  0.53146  0.18227  0.83050  1.0000
  H   H1153     1.0  0.53486  0.12950  0.82962  1.0000
  C   C742      1.0  0.61348  0.05571  0.79694  1.0000
  C   C743      1.0  0.61466  0.02597  0.79833  1.0000
  C   C744      1.0  0.62918  0.01287  0.79873  1.0000
  C   C745      1.0  0.64267  0.02932  0.79828  1.0000
  C   C746      1.0  0.64149  0.05914  0.79752  1.0000
  C   C747      1.0  0.62696  0.07222  0.79663  1.0000
  H   H1154     1.0  0.60441  0.01296  0.79856  1.0000
  H   H1155     1.0  0.71337  0.99927  0.72523  1.0000
  H   H1156     1.0  0.65176  0.07207  0.79700  1.0000
  H   H1157     1.0  0.62620  0.09524  0.79545  1.0000
  H   H1158     1.0  0.57804  0.10664  0.71780  1.0000
  C   C748      1.0  0.73668  0.36582  0.97734  1.0000
  H   H1159     1.0  0.73885  0.02810  0.88573  1.0000
  H   H1160     1.0  0.63490  0.19708  0.93578  1.0000
  H   H1161     1.0  0.51349  0.43981  0.75710  1.0000
  H   H1162     1.0  0.56552  0.13669  0.72173  1.0000
  H   H1163     1.0  0.73159  0.07562  0.57891  1.0000
  H   H1164     1.0  0.74569  0.04900  0.57256  1.0000
  H   H1165     1.0  0.53638  0.46592  0.76972  1.0000
  H   H1166     1.0  0.73224  0.39814  0.92468  1.0000
  H   H1167     1.0  0.57324  0.06128  0.73679  1.0000
  H   H1168     1.0  0.67157  0.98582  0.72138  1.0000
  H   H1169     1.0  0.54009  0.09943  0.75969  1.0000
  C   C749      1.0  0.70229  0.98936  0.72086  1.0000
  C   C750      1.0  0.71768  0.06756  0.87693  1.0000
  H   H1170     1.0  0.73521  0.12534  0.56726  1.0000
  H   H1171     1.0  0.54283  0.10618  0.71304  1.0000
  C   C751      1.0  0.54896  0.08819  0.72054  1.0000
  C   C752      1.0  0.67302  0.20187  0.94468  1.0000
  H   H1172     1.0  0.59714  0.39519  0.90872  1.0000
  H   H1173     1.0  0.66723  0.23832  0.91315  1.0000
  H   H1174     1.0  0.51851  0.20067  0.95827  1.0000
  H   H1175     1.0  0.57578  0.34623  0.91327  1.0000
  N   N71       1.0  0.51310  0.48105  0.77133  1.0000
  H   H1176     1.0  0.58994  0.15163  0.86720  1.0000
  C   C753      1.0  0.64638  0.18971  0.94078  1.0000
  H   H1177     1.0  0.51142  0.10130  0.77262  1.0000
  H   H1178     1.0  0.71058  0.45559  0.74483  1.0000
  C   C754      1.0  0.74043  0.06940  0.56728  1.0000
  H   H1179     1.0  0.68168  0.01063  0.76277  1.0000
  C   C755      1.0  0.74240  0.33795  0.97555  1.0000
  H   H1180     1.0  0.73304  0.11587  0.86859  1.0000
  S   S319      1.0  0.71618  0.98821  0.86279  1.0000
  H   H1181     1.0  0.54008  0.07283  0.72616  1.0000
  C   C756      1.0  0.73664  0.08112  0.90143  1.0000
  H   H1182     1.0  0.55581  0.12236  0.76533  1.0000
  H   H1183     1.0  0.59757  0.39723  0.88108  1.0000
  H   H1184     1.0  0.62994  0.98980  0.79925  1.0000
  H   H1185     1.0  0.69701  0.00374  0.70932  1.0000
  C   C757      1.0  0.65911  0.22024  0.91582  1.0000
  C   C758      1.0  0.74998  0.47514  0.75805  1.0000
  H   H1186     1.0  0.63711  0.46408  0.83779  1.0000
  N   N72       1.0  0.73416  0.07259  0.87996  1.0000
  H   H1187     1.0  0.73785  0.08994  0.84958  1.0000
  C   C759      1.0  0.50979  0.23722  0.97443  1.0000
  H   H1188     1.0  0.75306  0.13649  0.55584  1.0000
  H   H1189     1.0  0.66166  0.25580  0.94739  1.0000
  C   C760      1.0  0.51055  0.19894  0.90924  1.0000
  H   H1190     1.0  0.64784  0.22677  0.90978  1.0000
  H   H1191     1.0  0.73255  0.06428  0.91239  1.0000
  N   N73       1.0  0.59526  0.35471  0.89357  1.0000
  C   C761      1.0  0.59241  0.38581  0.89454  1.0000
  C   C762      1.0  0.58857  0.34311  0.87469  1.0000
  C   C763      1.0  0.58809  0.34063  0.91170  1.0000
  C   C764      1.0  0.61192  0.34915  0.89341  1.0000
  C   C765      1.0  0.51055  0.20800  0.96996  1.0000
  H   H1192     1.0  0.52030  0.21424  0.90910  1.0000
  H   H1193     1.0  0.67271  0.19570  0.96119  1.0000
  C   C766      1.0  0.74272  0.04602  0.87553  1.0000
  H   H1194     1.0  0.57597  0.34652  0.87447  1.0000
  H   H1195     1.0  0.59352  0.35355  0.86069  1.0000
  H   H1196     1.0  0.59363  0.34711  0.92618  1.0000
  H   H1197     1.0  0.58877  0.31696  0.91061  1.0000
  H   H1198     1.0  0.57290  0.08003  0.76074  1.0000
  H   H1199     1.0  0.61733  0.35705  0.90763  1.0000
  H   H1200     1.0  0.61777  0.35963  0.88006  1.0000
  H   H1201     1.0  0.61435  0.32583  0.89251  1.0000
  H   H1202     1.0  0.73104  0.36101  0.93166  1.0000
  C   C767      1.0  0.57058  0.11761  0.72931  1.0000
  C   C768      1.0  0.65350  0.23774  0.94992  1.0000
  H   H1203     1.0  0.60884  0.09780  0.83345  1.0000
  C   C769      1.0  0.75072  0.34167  0.90309  1.0000
  N   N74       1.0  0.69211  0.98513  0.73901  1.0000
  C   C770      1.0  0.74621  0.13229  0.49136  1.0000
  H   H1204     1.0  0.68290  0.02780  0.73810  1.0000
  H   H1205     1.0  0.61063  0.08283  0.85878  1.0000
  N   N75       1.0  0.55855  0.09823  0.73751  1.0000
  H   H1206     1.0  0.57989  0.39052  0.89464  1.0000
  H   H1207     1.0  0.60472  0.14614  0.84810  1.0000
  H   H1208     1.0  0.64940  0.17035  0.93175  1.0000
  C   C771      1.0  0.51184  0.07041  0.74833  1.0000
  N   N76       1.0  0.65801  0.21240  0.93781  1.0000
  H   H1209     1.0  0.59683  0.06874  0.84148  1.0000
  H   H1210     1.0  0.57338  0.09686  0.83375  1.0000
  H   H1211     1.0  0.64196  0.24561  0.94566  1.0000
  H   H1212     1.0  0.72510  0.37265  0.90677  1.0000
  H   H1213     1.0  0.74898  0.08493  0.90431  1.0000
  H   H1214     1.0  0.50918  0.46908  0.74013  1.0000
  H   H1215     1.0  0.71540  0.06253  0.86067  1.0000
  H   H1216     1.0  0.75133  0.41407  0.89839  1.0000
  H   H1217     1.0  0.51010  0.36065  0.60656  1.0000
  H   H1218     1.0  0.69972  0.02383  0.75311  1.0000
  H   H1219     1.0  0.75188  0.10038  0.86787  1.0000
  H   H1220     1.0  0.68205  0.21845  0.94255  1.0000
  H   H1221     1.0  0.74840  0.32593  0.91571  1.0000
  N   N77       1.0  0.74938  0.37134  0.91055  1.0000
  H   H1222     1.0  0.71334  0.04920  0.88635  1.0000
  H   H1223     1.0  0.74323  0.46804  0.77120  1.0000
  C   C772      1.0  0.75026  0.00538  0.72634  1.0000
  H   H1224     1.0  0.53506  0.46752  0.48992  1.0000
  H   H1225     1.0  0.74987  0.41321  0.60561  1.0000
  H   H1226     1.0  0.51676  0.44856  0.79432  1.0000
  H   H1227     1.0  0.74007  0.11565  0.54123  1.0000
  H   H1228     1.0  0.65713  0.43979  0.85866  1.0000
  H   H1229     1.0  0.55696  0.05818  0.75373  1.0000
  H   H1230     1.0  0.64527  0.18324  0.95720  1.0000
  H   H1231     1.0  0.74093  0.03880  0.85953  1.0000
  H   H1232     1.0  0.74400  0.38831  0.88081  1.0000
  H   H1233     1.0  0.60674  0.13147  0.87348  1.0000
  H   H1234     1.0  0.71077  0.08674  0.88090  1.0000
  C   C773      1.0  0.50739  0.09614  0.75751  1.0000
  H   H1235     1.0  0.73447  0.06494  0.55268  1.0000
  H   H1236     1.0  0.54271  0.13185  0.74539  1.0000
  H   H1237     1.0  0.74878  0.02690  0.72051  1.0000
  H   H1238     1.0  0.69750  0.47519  0.76105  1.0000
  C   C774      1.0  0.75236  0.39146  0.89334  1.0000
  H   H1239     1.0  0.59058  0.31968  0.87343  1.0000
  H   H1240     1.0  0.66337  0.20211  0.90633  1.0000
  C   C775      1.0  0.51056  0.46915  0.79221  1.0000
  C   C776      1.0  0.73375  0.37605  0.91880  1.0000
  H   H1241     1.0  0.66370  0.46134  0.82454  1.0000
  H   H1242     1.0  0.75286  0.37966  0.57647  1.0000
  C   C777      1.0  0.68895  0.01305  0.74866  1.0000
  H   H1243     1.0  0.73038  0.10122  0.90518  1.0000
  H   H1244     1.0  0.51858  0.00029  0.53780  1.0000
  C   C778      1.0  0.74474  0.11846  0.55690  1.0000
  N   N78       1.0  0.59074  0.10929  0.85467  1.0000
  C   C779      1.0  0.58235  0.09642  0.87235  1.0000
  C   C780      1.0  0.57986  0.11615  0.83828  1.0000
  C   C781      1.0  0.60229  0.08881  0.84683  1.0000
  C   C782      1.0  0.59840  0.13581  0.86116  1.0000
  H   H1245     1.0  0.57635  0.07641  0.86795  1.0000
  H   H1246     1.0  0.57339  0.11113  0.87846  1.0000
  H   H1247     1.0  0.59013  0.09098  0.88509  1.0000
  H   H1248     1.0  0.57129  0.13232  0.84336  1.0000
  H   H1249     1.0  0.58583  0.12448  0.82423  1.0000
  H   H1250     1.0  0.67152  0.46084  0.87073  1.0000
  H   H1251     1.0  0.57809  0.12529  0.74175  1.0000
  C   C783      1.0  0.51378  0.99458  0.57877  1.0000
  C   C784      1.0  0.54890  0.11373  0.75261  1.0000
  S   S320      1.0  0.70242  0.99492  0.80371  1.0000
  H   H1252     1.0  0.65204  0.46253  0.87989  1.0000
  C   C785      1.0  0.73952  0.09567  0.86595  1.0000
  H   H1253     1.0  0.74241  0.33742  0.89070  1.0000
  C   C786      1.0  0.56576  0.07340  0.74762  1.0000
  H   H1254     1.0  0.75126  0.10603  0.59579  1.0000
  H   H1255     1.0  0.50760  0.36861  0.64404  1.0000
  H   H1256     1.0  0.50957  0.04441  0.72137  1.0000
  H   H1257     1.0  0.56662  0.46337  0.50895  1.0000
  H   H1258     1.0  0.71984  0.47596  0.71229  1.0000
  N   N79       1.0  0.75211  0.09203  0.56439  1.0000
  H   H1259     1.0  0.51040  0.18769  0.92432  1.0000
  H   H1260     1.0  0.51117  0.01656  0.57319  1.0000
  H   H1261     1.0  0.50612  0.24469  0.88485  1.0000
  C   C787      1.0  0.70735  0.47740  0.75005  1.0000
  H   H1262     1.0  0.52587  0.99428  0.58379  1.0000
  H   H1263     1.0  0.50634  0.99060  0.59261  1.0000
  C   C788      1.0  0.66635  0.48133  0.83291  1.0000
  H   H1264     1.0  0.67866  0.48060  0.83691  1.0000
  H   H1265     1.0  0.54949  0.47591  0.52169  1.0000
  H   H1266     1.0  0.75523  0.04893  0.87753  1.0000
  Fe  Fe161     1.0  0.56984  0.80668  0.29989  1.0000
  S   S321      1.0  0.56733  0.79059  0.33208  1.0000
  S   S322      1.0  0.59278  0.82635  0.29064  1.0000
  Fe  Fe162     1.0  0.53553  0.79896  0.29131  1.0000
  S   S323      1.0  0.53096  0.78155  0.32346  1.0000
  H   H1267     1.0  0.58297  0.76291  0.39238  1.0000
  Fe  Fe163     1.0  0.54616  0.81742  0.33360  1.0000
  S   S324      1.0  0.54124  0.84226  0.36275  1.0000
  Fe  Fe164     1.0  0.55252  0.75573  0.31946  1.0000
  S   S325      1.0  0.55850  0.70986  0.32976  1.0000
  S   S326      1.0  0.54944  0.83622  0.30214  1.0000
  S   S327      1.0  0.55627  0.77045  0.28651  1.0000
  Fe  Fe165     1.0  0.71457  0.77723  0.29265  1.0000
  S   S328      1.0  0.72107  0.79219  0.32430  1.0000
  S   S329      1.0  0.73307  0.77686  0.26694  1.0000
  Fe  Fe166     1.0  0.67994  0.77733  0.30470  1.0000
  S   S330      1.0  0.68439  0.79318  0.33634  1.0000
  S   S331      1.0  0.65619  0.75997  0.29810  1.0000
  Fe  Fe167     1.0  0.70152  0.82347  0.32189  1.0000
  S   S332      1.0  0.70374  0.87226  0.32541  1.0000
  Fe  Fe168     1.0  0.70335  0.76065  0.33597  1.0000
  S   S333      1.0  0.70293  0.73227  0.36432  1.0000
  S   S334      1.0  0.69561  0.80979  0.28973  1.0000
  S   S335      1.0  0.69836  0.74345  0.30478  1.0000
  Fe  Fe169     1.0  0.56837  0.52725  0.42186  1.0000
  S   S336      1.0  0.56432  0.54040  0.38914  1.0000
  S   S337      1.0  0.59097  0.51932  0.43795  1.0000
  Fe  Fe170     1.0  0.53374  0.52129  0.43220  1.0000
  S   S338      1.0  0.52751  0.53309  0.39986  1.0000
  S   S339      1.0  0.51608  0.52152  0.45883  1.0000
  Fe  Fe171     1.0  0.54696  0.50454  0.39006  1.0000
  H   H1268     1.0  0.72600  0.83336  0.29310  1.0000
  Fe  Fe172     1.0  0.54518  0.56816  0.40149  1.0000
  S   S340      1.0  0.53635  0.61355  0.39455  1.0000
  H   H1269     1.0  0.55126  0.75584  0.02381  1.0000
  S   S341      1.0  0.55061  0.55755  0.43437  1.0000
  Fe  Fe173     1.0  0.70698  0.50869  0.40378  1.0000
  S   S342      1.0  0.69331  0.52254  0.43186  1.0000
  S   S343      1.0  0.70743  0.95694  0.40240  1.0000
  Fe  Fe174     1.0  0.71119  0.57140  0.38997  1.0000
  S   S344      1.0  0.69740  0.58838  0.41643  1.0000
  S   S345      1.0  0.72116  0.60105  0.36544  1.0000
  Fe  Fe175     1.0  0.71110  0.55757  0.43548  1.0000
  S   S346      1.0  0.71965  0.57377  0.46669  1.0000
  Fe  Fe176     1.0  0.68113  0.55221  0.41033  1.0000
  S   S347      1.0  0.65611  0.55940  0.40216  1.0000
  S   S348      1.0  0.72562  0.54165  0.40904  1.0000
  S   S349      1.0  0.69422  0.53732  0.38241  1.0000
  H   H1270     1.0  0.57286  0.97387  0.37770  1.0000
  H   H1271     1.0  0.58709  0.91892  0.34168  1.0000
  H   H1272     1.0  0.56446  0.71159  0.37944  1.0000
  N   N80       1.0  0.66283  0.94815  0.41833  1.0000
  H   H1273     1.0  0.57688  0.75490  0.36693  1.0000
  N   N81       1.0  0.55893  0.75385  0.38992  1.0000
  H   H1274     1.0  0.66566  0.90336  0.41189  1.0000
  H   H1275     1.0  0.72728  0.62304  0.40651  1.0000
  C   C789      1.0  0.60907  0.53017  0.42774  1.0000
  C   C790      1.0  0.61039  0.54560  0.40935  1.0000
  C   C791      1.0  0.62489  0.55435  0.40189  1.0000
  C   C792      1.0  0.63825  0.54775  0.41263  1.0000
  C   C793      1.0  0.63698  0.53197  0.43090  1.0000
  C   C794      1.0  0.62244  0.52326  0.43841  1.0000
  H   H1276     1.0  0.60022  0.55110  0.40098  1.0000
  H   H1277     1.0  0.55033  0.71920  0.01559  1.0000
  H   H1278     1.0  0.64714  0.52694  0.43943  1.0000
  H   H1279     1.0  0.56966  0.71854  0.40537  1.0000
  C   C795      1.0  0.70439  0.89531  0.34715  1.0000
  C   C796      1.0  0.70529  0.88491  0.36728  1.0000
  C   C797      1.0  0.70628  0.90409  0.38388  1.0000
  C   C798      1.0  0.70627  0.93392  0.38069  1.0000
  C   C799      1.0  0.70512  0.94434  0.36059  1.0000
  C   C800      1.0  0.70427  0.92515  0.34398  1.0000
  H   H1280     1.0  0.70548  0.86208  0.37004  1.0000
  H   H1281     1.0  0.70725  0.89568  0.39930  1.0000
  H   H1282     1.0  0.70513  0.96716  0.35780  1.0000
  H   H1283     1.0  0.70359  0.93354  0.32852  1.0000
  C   C801      1.0  0.70728  0.69557  0.36311  1.0000
  C   C802      1.0  0.70034  0.67696  0.37746  1.0000
  C   C803      1.0  0.70397  0.64771  0.37759  1.0000
  C   C804      1.0  0.71507  0.63702  0.36398  1.0000
  C   C805      1.0  0.72183  0.65556  0.34938  1.0000
  C   C806      1.0  0.71782  0.68472  0.34877  1.0000
  H   H1284     1.0  0.69204  0.68518  0.38844  1.0000
  H   H1285     1.0  0.69827  0.63354  0.38835  1.0000
  H   H1286     1.0  0.73037  0.64745  0.33869  1.0000
  H   H1287     1.0  0.72327  0.69894  0.33768  1.0000
  C   C807      1.0  0.51053  0.59240  0.43617  1.0000
  C   C808      1.0  0.75313  0.75739  0.23679  1.0000
  H   H1288     1.0  0.75077  0.58341  0.44903  1.0000
  H   H1289     1.0  0.72035  0.83428  0.25640  1.0000
  H   H1290     1.0  0.52329  0.66735  0.38236  1.0000
  C   C809      1.0  0.55155  0.68281  0.34709  1.0000
  C   C810      1.0  0.56024  0.65774  0.34963  1.0000
  C   C811      1.0  0.55570  0.63620  0.36380  1.0000
  C   C812      1.0  0.54239  0.63950  0.37581  1.0000
  C   C813      1.0  0.53366  0.66457  0.37328  1.0000
  C   C814      1.0  0.53813  0.68599  0.35895  1.0000
  H   H1291     1.0  0.57063  0.65495  0.34056  1.0000
  H   H1292     1.0  0.56257  0.61713  0.36550  1.0000
  H   H1293     1.0  0.72840  0.67429  0.39937  1.0000
  H   H1294     1.0  0.53115  0.70483  0.35699  1.0000
  C   C815      1.0  0.54115  0.88009  0.36194  1.0000
  C   C816      1.0  0.53989  0.89558  0.38027  1.0000
  C   C817      1.0  0.53945  0.92568  0.37994  1.0000
  C   C818      1.0  0.53990  0.94048  0.36121  1.0000
  C   C819      1.0  0.54100  0.92496  0.34289  1.0000
  C   C820      1.0  0.54196  0.89498  0.34328  1.0000
  H   H1295     1.0  0.53922  0.88427  0.39480  1.0000
  H   H1296     1.0  0.53847  0.93737  0.39416  1.0000
  H   H1297     1.0  0.54135  0.93622  0.32833  1.0000
  H   H1298     1.0  0.54324  0.88338  0.32914  1.0000
  C   C821      1.0  0.61030  0.80792  0.29416  1.0000
  C   C822      1.0  0.62418  0.82319  0.29309  1.0000
  C   C823      1.0  0.63834  0.80902  0.29499  1.0000
  C   C824      1.0  0.63874  0.77931  0.29752  1.0000
  C   C825      1.0  0.62485  0.76410  0.29874  1.0000
  C   C826      1.0  0.61070  0.77833  0.29730  1.0000
  H   H1299     1.0  0.62399  0.84605  0.29056  1.0000
  H   H1300     1.0  0.64893  0.82096  0.29388  1.0000
  H   H1301     1.0  0.62502  0.74111  0.30054  1.0000
  H   H1302     1.0  0.60012  0.76630  0.29801  1.0000
  C   C827      1.0  0.73883  0.65970  0.44836  1.0000
  H   H1303     1.0  0.62574  0.56652  0.38773  1.0000
  C   C828      1.0  0.74180  0.74958  0.25149  1.0000
  C   C829      1.0  0.75043  0.59146  0.46454  1.0000
  C   C830      1.0  0.73783  0.72066  0.25336  1.0000
  H   H1304     1.0  0.54400  0.75982  0.41610  1.0000
  H   H1305     1.0  0.52726  0.85309  0.24926  1.0000
  H   H1306     1.0  0.53894  0.74595  0.00336  1.0000
  C   C831      1.0  0.73341  0.62672  0.42106  1.0000
  C   C832      1.0  0.74820  0.51328  0.03160  1.0000
  N   N82       1.0  0.58769  0.96224  0.35249  1.0000
  C   C833      1.0  0.57955  0.95527  0.37198  1.0000
  C   C834      1.0  0.57660  0.97248  0.33727  1.0000
  H   H1307     1.0  0.51795  0.85484  0.33050  1.0000
  H   H1308     1.0  0.68301  0.92194  0.41732  1.0000
  C   C835      1.0  0.64646  0.94538  0.42413  1.0000
  H   H1309     1.0  0.74100  0.81743  0.05097  1.0000
  C   C836      1.0  0.56222  0.77744  0.98815  1.0000
  S   S350      1.0  0.53944  0.97822  0.35992  1.0000
  H   H1310     1.0  0.56781  0.95596  0.33419  1.0000
  H   H1311     1.0  0.54992  0.71274  0.39916  1.0000
  C   C837      1.0  0.50753  0.84950  0.32176  1.0000
  H   H1312     1.0  0.72833  0.86187  0.24010  1.0000
  H   H1313     1.0  0.50915  0.90535  0.33030  1.0000
  H   H1314     1.0  0.73516  0.64439  0.46065  1.0000
  C   C838      1.0  0.50928  0.86883  0.22972  1.0000
  S   S351      1.0  0.51415  0.80278  0.27111  1.0000
  H   H1315     1.0  0.68238  0.97233  0.42750  1.0000
  C   C839      1.0  0.66431  0.95662  0.39648  1.0000
  H   H1316     1.0  0.55326  0.79180  0.40679  1.0000
  C   C840      1.0  0.55035  0.74181  0.01018  1.0000
  H   H1317     1.0  0.75132  0.65654  0.44563  1.0000
  H   H1318     1.0  0.56380  0.79248  0.00107  1.0000
  C   C841      1.0  0.67062  0.92047  0.42151  1.0000
  H   H1319     1.0  0.74516  0.89901  0.25502  1.0000
  H   H1320     1.0  0.65964  0.93996  0.38623  1.0000
  H   H1321     1.0  0.64495  0.93866  0.44046  1.0000
  H   H1322     1.0  0.53551  0.74952  0.38072  1.0000
  C   C842      1.0  0.73701  0.58852  0.47648  1.0000
  H   H1323     1.0  0.51032  0.80400  0.13544  1.0000
  H   H1324     1.0  0.58741  0.74593  0.99334  1.0000
  C   C843      1.0  0.75089  0.82630  0.99579  1.0000
  H   H1325     1.0  0.67649  0.95994  0.39180  1.0000
  H   H1326     1.0  0.74707  0.50782  0.01510  1.0000
  H   H1327     1.0  0.73170  0.69930  0.41949  1.0000
  H   H1328     1.0  0.58762  0.94920  0.38427  1.0000
  H   H1329     1.0  0.57538  0.48621  0.47597  1.0000
  C   C844      1.0  0.56788  0.50465  0.47997  1.0000
  N   N83       1.0  0.73324  0.86624  0.27219  1.0000
  H   H1330     1.0  0.70984  0.64085  0.44568  1.0000
  H   H1331     1.0  0.71719  0.89879  0.26337  1.0000
  H   H1332     1.0  0.73689  0.86953  0.09377  1.0000
  H   H1333     1.0  0.56441  0.51462  0.46522  1.0000
  H   H1334     1.0  0.75324  0.62152  0.19453  1.0000
  C   C845      1.0  0.74805  0.87011  0.08529  1.0000
  H   H1335     1.0  0.56396  0.76563  0.42090  1.0000
  H   H1336     1.0  0.74517  0.58409  0.21961  1.0000
  H   H1337     1.0  0.52239  0.95657  0.45725  1.0000
  H   H1338     1.0  0.66599  0.50579  0.37454  1.0000
  H   H1339     1.0  0.73866  0.85522  0.04765  1.0000
  H   H1340     1.0  0.74021  0.81682  0.09788  1.0000
  C   C846      1.0  0.74508  0.70000  0.24076  1.0000
  H   H1341     1.0  0.60176  0.94078  0.32996  1.0000
  H   H1342     1.0  0.74602  0.83319  0.28740  1.0000
  H   H1343     1.0  0.64033  0.96609  0.42232  1.0000
  H   H1344     1.0  0.51595  0.88689  0.22417  1.0000
  H   H1345     1.0  0.54126  0.48397  0.46633  1.0000
  H   H1346     1.0  0.74187  0.67778  0.24241  1.0000
  H   H1347     1.0  0.70930  0.87105  0.27961  1.0000
  C   C847      1.0  0.71354  0.65759  0.43435  1.0000
  H   H1348     1.0  0.72133  0.89772  0.29033  1.0000
  H   H1349     1.0  0.66897  0.96462  0.44784  1.0000
  H   H1350     1.0  0.57876  0.71925  0.00985  1.0000
  N   N84       1.0  0.66571  0.68220  0.32781  1.0000
  C   C848      1.0  0.65420  0.66292  0.33741  1.0000
  C   C849      1.0  0.68083  0.66804  0.32750  1.0000
  C   C850      1.0  0.66654  0.70890  0.33977  1.0000
  C   C851      1.0  0.66127  0.68894  0.30656  1.0000
  H   H1351     1.0  0.64264  0.67294  0.33773  1.0000
  H   H1352     1.0  0.65717  0.65753  0.35353  1.0000
  H   H1353     1.0  0.65333  0.64247  0.32889  1.0000
  H   H1354     1.0  0.68417  0.66125  0.34315  1.0000
  H   H1355     1.0  0.68086  0.64858  0.31780  1.0000
  H   H1356     1.0  0.68996  0.68260  0.32142  1.0000
  H   H1357     1.0  0.67503  0.72408  0.33295  1.0000
  H   H1358     1.0  0.67008  0.70476  0.35584  1.0000
  H   H1359     1.0  0.65537  0.72033  0.34015  1.0000
  H   H1360     1.0  0.66977  0.70338  0.29884  1.0000
  H   H1361     1.0  0.65002  0.70009  0.30617  1.0000
  H   H1362     1.0  0.66037  0.66937  0.29709  1.0000
  H   H1363     1.0  0.60382  0.92794  0.35584  1.0000
  H   H1364     1.0  0.66985  0.91341  0.43783  1.0000
  C   C852      1.0  0.55487  0.76839  0.40932  1.0000
  H   H1365     1.0  0.57960  0.75588  0.01798  1.0000
  H   H1366     1.0  0.66386  0.50073  0.41218  1.0000
  H   H1367     1.0  0.65822  0.97694  0.39332  1.0000
  H   H1368     1.0  0.57237  0.78901  0.37805  1.0000
  H   H1369     1.0  0.50966  0.58730  0.45286  1.0000
  C   C853      1.0  0.57343  0.76573  0.38150  1.0000
  H   H1370     1.0  0.51937  0.86153  0.28525  1.0000
  C   C854      1.0  0.73449  0.67739  0.41403  1.0000
  H   H1371     1.0  0.74583  0.62385  0.41767  1.0000
  C   C855      1.0  0.57782  0.74183  0.00453  1.0000
  C   C856      1.0  0.71970  0.88432  0.27647  1.0000
  H   H1372     1.0  0.74037  0.83430  0.25042  1.0000
  H   H1373     1.0  0.74548  0.50213  0.07219  1.0000
  H   H1374     1.0  0.51206  0.89710  0.28246  1.0000
  S   S352      1.0  0.55196  0.48995  0.42220  1.0000
  N   N85       1.0  0.56286  0.74733  0.99508  1.0000
  C   C857      1.0  0.73900  0.83777  0.05938  1.0000
  C   C858      1.0  0.51572  0.84971  0.24405  1.0000
  H   H1375     1.0  0.58231  0.97810  0.32239  1.0000
  C   C859      1.0  0.59546  0.93636  0.34465  1.0000
  H   H1376     1.0  0.72749  0.83643  0.06691  1.0000
  N   N86       1.0  0.73007  0.65537  0.42944  1.0000
  H   H1377     1.0  0.54934  0.74819  0.36015  1.0000
  H   H1378     1.0  0.74696  0.67663  0.41033  1.0000
  H   H1379     1.0  0.70655  0.65474  0.42046  1.0000
  H   H1380     1.0  0.54484  0.78168  0.37187  1.0000
  H   H1381     1.0  0.73783  0.85991  0.30428  1.0000
  C   C860      1.0  0.50713  0.81067  0.17637  1.0000
  C   C861      1.0  0.50623  0.49410  0.47304  1.0000
  C   C862      1.0  0.56081  0.72286  0.39372  1.0000
  H   H1382     1.0  0.72917  0.71418  0.26452  1.0000
  H   H1383     1.0  0.64062  0.92933  0.41448  1.0000
  H   H1384     1.0  0.62153  0.51143  0.45270  1.0000
  C   C863      1.0  0.54660  0.75852  0.37505  1.0000
  H   H1385     1.0  0.74783  0.88852  0.07436  1.0000
  H   H1386     1.0  0.73714  0.68159  0.45456  1.0000
  H   H1387     1.0  0.51932  0.80833  0.17143  1.0000
  H   H1388     1.0  0.51907  0.57750  0.42939  1.0000
  H   H1389     1.0  0.71060  0.67880  0.44094  1.0000
  H   H1390     1.0  0.52565  0.88904  0.30200  1.0000
  H   H1391     1.0  0.57136  0.93730  0.37010  1.0000
  H   H1392     1.0  0.72978  0.60953  0.43198  1.0000
  C   C864      1.0  0.73046  0.84853  0.25393  1.0000
  H   H1393     1.0  0.75412  0.79845  0.08213  1.0000
  H   H1394     1.0  0.51537  0.61431  0.43425  1.0000
  H   H1395     1.0  0.50690  0.82359  0.19070  1.0000
  H   H1396     1.0  0.73656  0.51807  0.03788  1.0000
  C   C865      1.0  0.51553  0.88068  0.29390  1.0000
  H   H1397     1.0  0.64098  0.49581  0.39015  1.0000
  H   H1398     1.0  0.75277  0.55694  0.20292  1.0000
  H   H1399     1.0  0.54168  0.53257  0.48275  1.0000
  C   C866      1.0  0.66998  0.97012  0.43124  1.0000
  C   C867      1.0  0.73599  0.84745  0.29004  1.0000
  C   C868      1.0  0.51492  0.96362  0.46963  1.0000
  C   C869      1.0  0.50721  0.82643  0.25164  1.0000
  H   H1400     1.0  0.51622  0.85210  0.14999  1.0000
  H   H1401     1.0  0.50661  0.58029  0.01458  1.0000
  H   H1402     1.0  0.51015  0.83003  0.31261  1.0000
  H   H1403     1.0  0.75043  0.80411  0.00056  1.0000
  H   H1404     1.0  0.50629  0.92118  0.47650  1.0000
  C   C870      1.0  0.75139  0.81921  0.08960  1.0000
  H   H1405     1.0  0.74920  0.89805  0.28197  1.0000
  N   N87       1.0  0.75109  0.84294  0.07450  1.0000
  C   C871      1.0  0.74681  0.88453  0.26840  1.0000
  C   C872      1.0  0.50575  0.94351  0.48064  1.0000
  H   H1406     1.0  0.75511  0.53327  0.03241  1.0000
  C   C873      1.0  0.66836  0.48239  0.37400  1.0000
  H   H1407     1.0  0.60759  0.97804  0.36767  1.0000
  H   H1408     1.0  0.50576  0.58134  0.39642  1.0000
  Fe  Fe177     1.0  0.54483  0.55272  0.78881  1.0000
  S   S353      1.0  0.53079  0.53706  0.81577  1.0000
  S   S354      1.0  0.53434  0.56293  0.75729  1.0000
  Fe  Fe178     1.0  0.57504  0.54846  0.81356  1.0000
  S   S355      1.0  0.56242  0.53240  0.84188  1.0000
  S   S356      1.0  0.60004  0.56017  0.81890  1.0000
  Fe  Fe179     1.0  0.54935  0.50411  0.82062  1.0000
  H   H1409     1.0  0.71026  0.53473  0.74787  1.0000
  Fe  Fe180     1.0  0.54531  0.56670  0.83441  1.0000
  S   S357      1.0  0.53412  0.59566  0.85815  1.0000
  S   S358      1.0  0.56296  0.51837  0.79247  1.0000
  S   S359      1.0  0.55838  0.58419  0.80723  1.0000
  Fe  Fe181     1.0  0.72184  0.53061  0.79296  1.0000
  S   S360      1.0  0.72600  0.54483  0.82547  1.0000
  S   S361      1.0  0.74031  0.53087  0.76725  1.0000
  Fe  Fe182     1.0  0.68675  0.53397  0.79948  1.0000
  S   S362      1.0  0.68848  0.54935  0.83186  1.0000
  S   S363      1.0  0.66516  0.52250  0.78248  1.0000
  Fe  Fe183     1.0  0.70767  0.57797  0.82066  1.0000
  S   S364      1.0  0.71223  0.62600  0.82486  1.0000
  Fe  Fe184     1.0  0.70654  0.51510  0.83438  1.0000
  H   H1410     1.0  0.50698  0.93913  0.58466  1.0000
  S   S365      1.0  0.70435  0.56510  0.78774  1.0000
  H   H1411     1.0  0.53531  0.85702  0.82833  1.0000
  Fe  Fe185     1.0  0.54956  0.75405  0.89358  1.0000
  S   S366      1.0  0.55544  0.73727  0.92484  1.0000
  S   S367      1.0  0.54824  0.72876  0.86398  1.0000
  Fe  Fe186     1.0  0.54886  0.81652  0.90683  1.0000
  S   S368      1.0  0.55467  0.80430  0.93926  1.0000
  S   S369      1.0  0.54262  0.86310  0.89896  1.0000
  Fe  Fe187     1.0  0.57201  0.77431  0.92545  1.0000
  S   S370      1.0  0.59470  0.76542  0.94116  1.0000
  Fe  Fe188     1.0  0.53769  0.76802  0.93710  1.0000
  S   S371      1.0  0.52207  0.76297  0.96600  1.0000
  S   S372      1.0  0.56747  0.78893  0.89317  1.0000
  S   S373      1.0  0.53058  0.78244  0.90550  1.0000
  Fe  Fe189     1.0  0.68331  0.81033  0.91847  1.0000
  S   S374      1.0  0.69199  0.79453  0.88804  1.0000
  S   S375      1.0  0.65837  0.82488  0.91666  1.0000
  Fe  Fe190     1.0  0.71583  0.80775  0.93708  1.0000
  S   S376      1.0  0.72625  0.79116  0.90742  1.0000
  S   S377      1.0  0.73019  0.80972  0.96653  1.0000
  Fe  Fe191     1.0  0.71158  0.82489  0.89243  1.0000
  S   S378      1.0  0.71775  0.85203  0.86439  1.0000
  Fe  Fe192     1.0  0.70563  0.76213  0.90539  1.0000
  S   S379      1.0  0.70379  0.71353  0.89983  1.0000
  S   S380      1.0  0.70224  0.84287  0.92190  1.0000
  S   S381      1.0  0.69593  0.77653  0.93607  1.0000
  C   C874      1.0  0.52245  0.61955  0.80262  1.0000
  H   H1412     1.0  0.69690  0.54006  0.72765  1.0000
  H   H1413     1.0  0.51296  0.79559  0.86756  1.0000
  H   H1414     1.0  0.70506  0.96873  0.71326  1.0000
  C   C875      1.0  0.61239  0.78145  0.93367  1.0000
  C   C876      1.0  0.62585  0.77314  0.94362  1.0000
  C   C877      1.0  0.64006  0.78592  0.93848  1.0000
  C   C878      1.0  0.64095  0.80713  0.92327  1.0000
  C   C879      1.0  0.62751  0.81536  0.91329  1.0000
  C   C880      1.0  0.61332  0.80249  0.91835  1.0000
  H   H1415     1.0  0.62523  0.75709  0.95564  1.0000
  H   H1416     1.0  0.65021  0.77997  0.94673  1.0000
  H   H1417     1.0  0.62800  0.83193  0.90164  1.0000
  H   H1418     1.0  0.60306  0.80921  0.91064  1.0000
  C   C881      1.0  0.70601  0.68981  0.87857  1.0000
  C   C882      1.0  0.70291  0.66049  0.88158  1.0000
  C   C883      1.0  0.70455  0.64073  0.86537  1.0000
  C   C884      1.0  0.70938  0.65001  0.84584  1.0000
  C   C885      1.0  0.71240  0.67937  0.84279  1.0000
  C   C886      1.0  0.71067  0.69916  0.85898  1.0000
  H   H1419     1.0  0.69935  0.65291  0.89665  1.0000
  H   H1420     1.0  0.70223  0.61829  0.86807  1.0000
  H   H1421     1.0  0.71612  0.68691  0.82779  1.0000
  H   H1422     1.0  0.71311  0.72157  0.85634  1.0000
  C   C887      1.0  0.71647  0.95034  0.86305  1.0000
  C   C888      1.0  0.71761  0.93565  0.88185  1.0000
  C   C889      1.0  0.71795  0.90554  0.88253  1.0000
  C   C890      1.0  0.71729  0.88987  0.86437  1.0000
  C   C891      1.0  0.71619  0.90458  0.84559  1.0000
  C   C892      1.0  0.71568  0.93465  0.84492  1.0000
  H   H1423     1.0  0.71832  0.94759  0.89595  1.0000
  H   H1424     1.0  0.71902  0.89447  0.89706  1.0000
  H   H1425     1.0  0.71577  0.89262  0.83146  1.0000
  H   H1426     1.0  0.71492  0.94566  0.83034  1.0000
  H   H1427     1.0  0.73523  0.62899  0.78876  1.0000
  H   H1428     1.0  0.73646  0.87132  0.95997  1.0000
  C   C893      1.0  0.51438  0.94419  0.57096  1.0000
  H   H1429     1.0  0.54412  0.67398  0.78305  1.0000
  H   H1430     1.0  0.53331  0.97818  0.54848  1.0000
  C   C894      1.0  0.55468  0.92879  0.84751  1.0000
  C   C895      1.0  0.54445  0.93560  0.86351  1.0000
  C   C896      1.0  0.54126  0.91552  0.87935  1.0000
  C   C897      1.0  0.54833  0.88847  0.87961  1.0000
  C   C898      1.0  0.55882  0.88188  0.86383  1.0000
  C   C899      1.0  0.56183  0.90179  0.84783  1.0000
  H   H1431     1.0  0.53879  0.95615  0.86351  1.0000
  H   H1432     1.0  0.53310  0.92091  0.89139  1.0000
  H   H1433     1.0  0.56453  0.86140  0.86383  1.0000
  H   H1434     1.0  0.56981  0.89630  0.83560  1.0000
  C   C900      1.0  0.53946  0.63198  0.86102  1.0000
  C   C901      1.0  0.53213  0.64853  0.87618  1.0000
  C   C902      1.0  0.53536  0.67792  0.87798  1.0000
  C   C903      1.0  0.54570  0.69117  0.86429  1.0000
  C   C904      1.0  0.55315  0.67456  0.84926  1.0000
  C   C905      1.0  0.55028  0.64500  0.84791  1.0000
  H   H1435     1.0  0.52379  0.63863  0.88645  1.0000
  H   H1436     1.0  0.52944  0.69049  0.88951  1.0000
  H   H1437     1.0  0.56124  0.68459  0.83871  1.0000
  H   H1438     1.0  0.55636  0.63233  0.83665  1.0000
  C   C906      1.0  0.61786  0.54858  0.80853  1.0000
  C   C907      1.0  0.61905  0.52884  0.79255  1.0000
  C   C908      1.0  0.63360  0.52100  0.78465  1.0000
  C   C909      1.0  0.64703  0.53265  0.79274  1.0000
  C   C910      1.0  0.64582  0.55202  0.80890  1.0000
  C   C911      1.0  0.63133  0.55996  0.81669  1.0000
  H   H1439     1.0  0.60878  0.51997  0.78612  1.0000
  C   C912      1.0  0.64023  0.48448  0.84532  1.0000
  H   H1440     1.0  0.65602  0.56143  0.81512  1.0000
  H   H1441     1.0  0.63050  0.57537  0.82896  1.0000
  H   H1442     1.0  0.69051  0.52506  0.75175  1.0000
  H   H1443     1.0  0.51505  0.86023  0.83338  1.0000
  C   C913      1.0  0.52072  0.80495  0.82814  1.0000
  S   S382      1.0  0.55843  0.95237  0.82628  1.0000
  C   C914      1.0  0.54052  0.81259  0.85271  1.0000
  C   C915      1.0  0.73709  0.59861  0.49681  1.0000
  H   H1444     1.0  0.56641  0.49785  0.52089  1.0000
  H   H1445     1.0  0.52078  0.63680  0.76290  1.0000
  H   H1446     1.0  0.75519  0.56279  0.80509  1.0000
  H   H1447     1.0  0.52654  0.60280  0.79181  1.0000
  N   N88       1.0  0.66907  0.89553  0.88125  1.0000
  C   C916      1.0  0.67639  0.89762  0.90144  1.0000
  C   C917      1.0  0.65226  0.89492  0.88418  1.0000
  C   C918      1.0  0.67414  0.86903  0.87096  1.0000
  C   C919      1.0  0.67354  0.92049  0.86843  1.0000
  H   H1448     1.0  0.68908  0.89752  0.89984  1.0000
  H   H1449     1.0  0.67313  0.87930  0.91161  1.0000
  H   H1450     1.0  0.67303  0.91756  0.90953  1.0000
  H   H1451     1.0  0.64633  0.89321  0.86928  1.0000
  H   H1452     1.0  0.64858  0.87628  0.89385  1.0000
  H   H1453     1.0  0.64802  0.91455  0.89196  1.0000
  H   H1454     1.0  0.66891  0.86673  0.85564  1.0000
  H   H1455     1.0  0.67104  0.84975  0.88022  1.0000
  H   H1456     1.0  0.68676  0.86867  0.86863  1.0000
  H   H1457     1.0  0.66824  0.91968  0.85305  1.0000
  H   H1458     1.0  0.68616  0.92140  0.86591  1.0000
  H   H1459     1.0  0.67004  0.94095  0.87574  1.0000
  C   C920      1.0  0.54166  0.65248  0.78974  1.0000
  C   C921      1.0  0.51681  0.58482  0.72586  1.0000
  C   C922      1.0  0.74114  0.60791  0.78819  1.0000
  H   H1460     1.0  0.51793  0.67391  0.76835  1.0000
  C   C923      1.0  0.74216  0.83524  0.97894  1.0000
  C   C924      1.0  0.51733  0.57871  0.74704  1.0000
  H   H1461     1.0  0.54988  0.73178  0.96984  1.0000
  H   H1462     1.0  0.70260  0.94504  0.74698  1.0000
  H   H1463     1.0  0.57026  0.73212  0.96548  1.0000
  H   H1464     1.0  0.57128  0.78217  0.97632  1.0000
  N   N89       1.0  0.55439  0.49576  0.49248  1.0000
  C   C925      1.0  0.74306  0.86397  0.97284  1.0000
  H   H1465     1.0  0.67222  0.51316  0.86584  1.0000
  H   H1466     1.0  0.55093  0.53665  0.50679  1.0000
  N   N90       1.0  0.65646  0.48469  0.85136  1.0000
  C   C926      1.0  0.69966  0.96606  0.75388  1.0000
  H   H1467     1.0  0.52894  0.80769  0.81501  1.0000
  C   C927      1.0  0.51984  0.66995  0.80920  1.0000
  H   H1468     1.0  0.51487  0.48382  0.80416  1.0000
  H   H1469     1.0  0.74811  0.66620  0.62098  1.0000
  H   H1470     1.0  0.51908  0.96287  0.53227  1.0000
  C   C928      1.0  0.71665  0.49757  0.71799  1.0000
  H   H1471     1.0  0.72685  0.59645  0.50629  1.0000
  C   C929      1.0  0.51070  0.73674  0.97959  1.0000
  H   H1472     1.0  0.52662  0.57988  0.71616  1.0000
  H   H1473     1.0  0.53393  0.51498  0.50512  1.0000
  C   C930      1.0  0.51661  0.65197  0.77486  1.0000
  C   C931      1.0  0.56108  0.72830  0.97730  1.0000
  H   H1474     1.0  0.75251  0.70434  0.64667  1.0000
  H   H1475     1.0  0.51741  0.83071  0.87669  1.0000
  H   H1476     1.0  0.72698  0.50662  0.72532  1.0000
  H   H1477     1.0  0.74314  0.60210  0.77182  1.0000
  H   H1478     1.0  0.65286  0.51524  0.87548  1.0000
  C   C932      1.0  0.70014  0.52530  0.74029  1.0000
  H   H1479     1.0  0.52857  0.61638  0.81728  1.0000
  H   H1480     1.0  0.50737  0.66772  0.81263  1.0000
  H   H1481     1.0  0.69217  0.96194  0.76760  1.0000
  S   S383      1.0  0.70383  0.49831  0.80245  1.0000
  N   N91       1.0  0.52532  0.82220  0.84589  1.0000
  H   H1482     1.0  0.55096  0.78248  0.98129  1.0000
  H   H1483     1.0  0.50897  0.52442  0.78059  1.0000
  H   H1484     1.0  0.54042  0.78954  0.85713  1.0000
  H   H1485     1.0  0.51222  0.92740  0.55931  1.0000
  H   H1486     1.0  0.74015  0.96311  0.76695  1.0000
  H   H1487     1.0  0.52828  0.86650  0.85334  1.0000
  C   C933      1.0  0.67753  0.97210  0.73273  1.0000
  H   H1488     1.0  0.56156  0.70538  0.98187  1.0000
  N   N92       1.0  0.65694  0.72601  0.89635  1.0000
  C   C934      1.0  0.65865  0.69460  0.89720  1.0000
  C   C935      1.0  0.66398  0.73869  0.91458  1.0000
  C   C936      1.0  0.64052  0.73363  0.89607  1.0000
  C   C937      1.0  0.66467  0.73720  0.87758  1.0000
  H   H1489     1.0  0.65344  0.68422  0.88370  1.0000
  H   H1490     1.0  0.65313  0.68545  0.91130  1.0000
  H   H1491     1.0  0.67098  0.68835  0.89729  1.0000
  H   H1492     1.0  0.65789  0.73211  0.92899  1.0000
  H   H1493     1.0  0.67611  0.73200  0.91603  1.0000
  H   H1494     1.0  0.66391  0.76243  0.91375  1.0000
  H   H1495     1.0  0.63890  0.75724  0.89547  1.0000
  H   H1496     1.0  0.63432  0.72577  0.91011  1.0000
  H   H1497     1.0  0.63476  0.72440  0.88255  1.0000
  H   H1498     1.0  0.66347  0.76084  0.87633  1.0000
  H   H1499     1.0  0.65986  0.72767  0.86351  1.0000
  H   H1500     1.0  0.67715  0.73231  0.87752  1.0000
  C   C938      1.0  0.51402  0.81844  0.86286  1.0000
  H   H1501     1.0  0.51009  0.61560  0.80595  1.0000
  H   H1502     1.0  0.54845  0.65035  0.80392  1.0000
  C   C939      1.0  0.52603  0.85274  0.83990  1.0000
  H   H1503     1.0  0.50671  0.51820  0.75381  1.0000
  N   N93       1.0  0.70352  0.49628  0.73263  1.0000
  H   H1504     1.0  0.52035  0.78175  0.83214  1.0000
  H   H1505     1.0  0.54946  0.81559  0.84050  1.0000
  H   H1506     1.0  0.71413  0.51131  0.70447  1.0000
  C   C940      1.0  0.74534  0.96961  0.75246  1.0000
  H   H1507     1.0  0.54424  0.82470  0.86631  1.0000
  H   H1508     1.0  0.75272  0.90557  0.97885  1.0000
  C   C941      1.0  0.52098  0.97888  0.54458  1.0000
  N   N94       1.0  0.52513  0.64851  0.79410  1.0000
  H   H1509     1.0  0.54606  0.63622  0.77869  1.0000
  H   H1510     1.0  0.73300  0.59199  0.79482  1.0000
  N   N95       1.0  0.51106  0.97303  0.56276  1.0000
  C   C942      1.0  0.75022  0.61168  0.50503  1.0000
  H   H1511     1.0  0.66486  0.49944  0.82205  1.0000
  H   H1512     1.0  0.74641  0.63653  0.82283  1.0000
  H   H1513     1.0  0.71051  0.97561  0.75936  1.0000
  C   C943      1.0  0.68993  0.48488  0.72227  1.0000
  H   H1514     1.0  0.52199  0.69212  0.80357  1.0000
  H   H1515     1.0  0.52650  0.94227  0.57567  1.0000
  C   C944      1.0  0.54483  0.52107  0.49706  1.0000
  C   C945      1.0  0.51018  0.70796  0.97387  1.0000
  H   H1516     1.0  0.68676  0.49850  0.70894  1.0000
  H   H1517     1.0  0.66956  0.96915  0.74616  1.0000
  C   C946      1.0  0.75421  0.94990  0.74092  1.0000
  H   H1518     1.0  0.52584  0.66749  0.82405  1.0000
  H   H1519     1.0  0.63239  0.48745  0.85879  1.0000
  H   H1520     1.0  0.63441  0.50600  0.77213  1.0000
  C   C947      1.0  0.75071  0.50428  0.75310  1.0000
  H   H1521     1.0  0.51660  0.70098  0.96048  1.0000
  H   H1522     1.0  0.67941  0.95078  0.72566  1.0000
  H   H1523     1.0  0.71719  0.48599  0.75869  1.0000
  H   H1524     1.0  0.75102  0.71720  0.60967  1.0000
  H   H1525     1.0  0.74416  0.59947  0.82869  1.0000
  H   H1526     1.0  0.53411  0.50163  0.77873  1.0000
  H   H1527     1.0  0.63777  0.50205  0.83421  1.0000
  H   H1528     1.0  0.74996  0.61939  0.52064  1.0000
  H   H1529     1.0  0.53209  0.49475  0.75208  1.0000
  C   C948      1.0  0.75212  0.61531  0.82142  1.0000
  S   S384      1.0  0.70405  0.48798  0.86331  1.0000
  C   C949      1.0  0.75233  0.88339  0.98363  1.0000
  H   H1530     1.0  0.65778  0.53058  0.85093  1.0000
  C   C950      1.0  0.52964  0.48591  0.76772  1.0000
  C   C951      1.0  0.65998  0.51212  0.86135  1.0000
  H   H1531     1.0  0.50917  0.81119  0.82277  1.0000
  C   C952      1.0  0.55946  0.48264  0.51188  1.0000
  H   H1532     1.0  0.67980  0.48405  0.73294  1.0000
  H   H1533     1.0  0.57499  0.52065  0.48800  1.0000
  Fe  Fe193     1.0  0.96462  0.42662  0.04542  1.0000
  S   S385      1.0  0.97258  0.40950  0.07596  1.0000
  S   S386      1.0  0.98245  0.42678  0.01863  1.0000
  Fe  Fe194     1.0  0.93074  0.42909  0.06156  1.0000
  S   S387      1.0  0.93692  0.41140  0.09243  1.0000
  S   S388      1.0  0.90659  0.44751  0.05883  1.0000
  Fe  Fe195     1.0  0.95670  0.44225  0.09004  1.0000
  H   H1534     1.0  0.91708  0.07036  0.14347  1.0000
  Fe  Fe196     1.0  0.95209  0.38011  0.07567  1.0000
  S   S389      1.0  0.95403  0.33098  0.07891  1.0000
  S   S390      1.0  0.95014  0.46127  0.05978  1.0000
  S   S391      1.0  0.94451  0.39593  0.04451  1.0000
  Fe  Fe197     1.0  0.78430  0.40460  0.04234  1.0000
  S   S392      1.0  0.77743  0.42098  0.07377  1.0000
  S   S393      1.0  0.76521  0.40466  0.01811  1.0000
  Fe  Fe198     1.0  0.81859  0.40279  0.05453  1.0000
  S   S394      1.0  0.81375  0.41949  0.08619  1.0000
  S   S395      1.0  0.84225  0.38611  0.04502  1.0000
  Fe  Fe199     1.0  0.79396  0.38855  0.08613  1.0000
  S   S396      1.0  0.79005  0.36234  0.11524  1.0000
  Fe  Fe200     1.0  0.79771  0.45066  0.07130  1.0000
  H   H1535     1.0  0.77082  0.23391  0.18133  1.0000
  S   S397      1.0  0.79947  0.37005  0.05520  1.0000
  S   S398      1.0  0.80399  0.43591  0.03918  1.0000
  Fe  Fe201     1.0  0.96183  0.12866  0.13896  1.0000
  S   S399      1.0  0.94942  0.10796  0.16532  1.0000
  S   S400      1.0  0.96914  0.10287  0.11121  1.0000
  Fe  Fe202     1.0  0.95692  0.18924  0.15563  1.0000
  S   S401      1.0  0.94415  0.17176  0.18369  1.0000
  S   S402      1.0  0.95797  0.23842  0.15233  1.0000
  Fe  Fe203     1.0  0.96274  0.13799  0.18520  1.0000
  S   S403      1.0  0.97084  0.11699  0.21533  1.0000
  Fe  Fe204     1.0  0.93214  0.14304  0.16161  1.0000
  S   S404      1.0  0.90756  0.13082  0.15476  1.0000
  S   S405      1.0  0.97633  0.15717  0.15862  1.0000
  S   S406      1.0  0.94389  0.16207  0.13388  1.0000
  Fe  Fe205     1.0  0.79889  0.19858  0.14230  1.0000
  S   S407      1.0  0.80445  0.21519  0.17350  1.0000
  S   S408      1.0  0.79287  0.22661  0.11505  1.0000
  Fe  Fe206     1.0  0.80012  0.13531  0.15567  1.0000
  S   S409      1.0  0.80592  0.14830  0.18795  1.0000
  S   S410      1.0  0.79565  0.08700  0.15242  1.0000
  Fe  Fe207     1.0  0.78768  0.18222  0.18559  1.0000
  S   S411      1.0  0.76706  0.18437  0.20818  1.0000
  Fe  Fe208     1.0  0.82214  0.17994  0.17311  1.0000
  S   S412      1.0  0.84569  0.18997  0.18566  1.0000
  S   S413      1.0  0.78109  0.16759  0.15415  1.0000
  S   S414      1.0  0.81755  0.16519  0.14104  1.0000
  C   C953      1.0  0.76068  0.08026  0.48421  1.0000
  H   H1536     1.0  0.76777  0.37997  0.29877  1.0000
  C   C954      1.0  0.75771  0.25764  0.24079  1.0000
  H   H1537     1.0  0.89079  0.20265  0.14300  1.0000
  H   H1538     1.0  0.89956  0.09349  0.11945  1.0000
  H   H1539     1.0  0.98487  0.10127  0.28970  1.0000
  H   H1540     1.0  0.77591  0.12209  0.18415  1.0000
  H   H1541     1.0  0.91536  0.19352  0.16175  1.0000
  H   H1542     1.0  0.97077  0.04321  0.17572  1.0000
  C   C955      1.0  0.98840  0.10739  0.22722  1.0000
  H   H1543     1.0  0.85483  0.33880  0.06797  1.0000
  C   C956      1.0  0.00432  0.22825  0.46358  1.0000
  H   H1544     1.0  0.90218  0.08886  0.09225  1.0000
  C   C957      1.0  0.76677  0.10744  0.18986  1.0000
  C   C958      1.0  0.89049  0.14714  0.16397  1.0000
  C   C959      1.0  0.89030  0.16561  0.18075  1.0000
  C   C960      1.0  0.87650  0.17862  0.18717  1.0000
  C   C961      1.0  0.86273  0.17292  0.17713  1.0000
  C   C962      1.0  0.86291  0.15422  0.16050  1.0000
  C   C963      1.0  0.87673  0.14142  0.15396  1.0000
  H   H1545     1.0  0.90069  0.16948  0.18903  1.0000
  H   H1546     1.0  0.87641  0.19279  0.20021  1.0000
  H   H1547     1.0  0.85239  0.14957  0.15269  1.0000
  H   H1548     1.0  0.87670  0.12697  0.14109  1.0000
  H   H1549     1.0  0.91536  0.19853  0.12447  1.0000
  C   C964      1.0  0.79984  0.02232  0.09880  1.0000
  C   C965      1.0  0.80197  0.05183  0.09518  1.0000
  C   C966      1.0  0.80097  0.07184  0.11132  1.0000
  C   C967      1.0  0.79766  0.06268  0.13141  1.0000
  C   C968      1.0  0.79552  0.03317  0.13506  1.0000
  C   C969      1.0  0.79667  0.01313  0.11893  1.0000
  H   H1550     1.0  0.80441  0.05929  0.07972  1.0000
  H   H1551     1.0  0.80261  0.09437  0.10815  1.0000
  H   H1552     1.0  0.79297  0.02570  0.15047  1.0000
  H   H1553     1.0  0.99302  0.09048  0.32526  1.0000
  C   C970      1.0  0.79109  0.32467  0.11489  1.0000
  C   C971      1.0  0.79491  0.30982  0.13288  1.0000
  C   C972      1.0  0.79590  0.27980  0.13306  1.0000
  C   C973      1.0  0.79262  0.26436  0.11537  1.0000
  C   C974      1.0  0.78877  0.27924  0.09741  1.0000
  C   C975      1.0  0.78811  0.30928  0.09711  1.0000
  H   H1554     1.0  0.79732  0.32165  0.14665  1.0000
  H   H1555     1.0  0.79924  0.26868  0.14685  1.0000
  H   H1556     1.0  0.78619  0.26745  0.08367  1.0000
  H   H1557     1.0  0.78498  0.32048  0.08324  1.0000
  C   C976      1.0  0.99230  0.45405  0.00392  1.0000
  H   H1558     1.0  0.88678  0.23298  0.15874  1.0000
  H   H1559     1.0  0.97658  0.35789  0.01743  1.0000
  C   C977      1.0  0.95489  0.30573  0.09969  1.0000
  C   C978      1.0  0.95537  0.27628  0.09523  1.0000
  C   C979      1.0  0.95631  0.25542  0.11100  1.0000
  C   C980      1.0  0.95685  0.26369  0.13158  1.0000
  C   C981      1.0  0.95631  0.29312  0.13604  1.0000
  C   C982      1.0  0.95531  0.31398  0.12028  1.0000
  H   H1560     1.0  0.95507  0.26952  0.07941  1.0000
  H   H1561     1.0  0.95680  0.23298  0.10719  1.0000
  H   H1562     1.0  0.95674  0.29991  0.15185  1.0000
  H   H1563     1.0  0.95498  0.33645  0.12407  1.0000
  C   C983      1.0  0.96694  0.00498  0.10933  1.0000
  C   C984      1.0  0.96494  0.01930  0.12803  1.0000
  C   C985      1.0  0.96497  0.04936  0.12867  1.0000
  C   C986      1.0  0.96749  0.06528  0.11071  1.0000
  C   C987      1.0  0.96909  0.05099  0.09194  1.0000
  C   C988      1.0  0.96855  0.02096  0.09120  1.0000
  H   H1564     1.0  0.96355  0.00704  0.14208  1.0000
  H   H1565     1.0  0.96344  0.06020  0.14309  1.0000
  H   H1566     1.0  0.97088  0.06320  0.07793  1.0000
  H   H1567     1.0  0.96986  0.01023  0.07667  1.0000
  C   C989      1.0  0.88886  0.42930  0.05615  1.0000
  C   C990      1.0  0.87515  0.44440  0.05964  1.0000
  C   C991      1.0  0.86080  0.43130  0.05683  1.0000
  C   C992      1.0  0.86001  0.40305  0.05007  1.0000
  C   C993      1.0  0.87372  0.38785  0.04673  1.0000
  C   C994      1.0  0.88807  0.40078  0.04994  1.0000
  H   H1568     1.0  0.76236  0.06088  0.22975  1.0000
  H   H1569     1.0  0.85037  0.44332  0.05936  1.0000
  H   H1570     1.0  0.87327  0.36610  0.04128  1.0000
  H   H1571     1.0  0.89851  0.38899  0.04701  1.0000
  H   H1572     1.0  0.76249  0.48076  0.07394  1.0000
  C   C995      1.0  0.75917  0.07269  0.21558  1.0000
  N   N96       1.0  0.00002  0.12720  0.30734  1.0000
  C   C996      1.0  0.99618  0.00297  0.98938  1.0000
  H   H1573     1.0  0.75979  0.25737  0.12919  1.0000
  H   H1574     1.0  0.92998  0.22503  0.12747  1.0000
  H   H1575     1.0  0.77526  0.24374  0.21912  1.0000
  C   C997      1.0  0.92522  0.06622  0.13046  1.0000
  H   H1576     1.0  0.99149  0.09408  0.18326  1.0000
  H   H1577     1.0  0.93537  0.03962  0.09650  1.0000
  H   H1578     1.0  0.97605  0.05690  0.20017  1.0000
  C   C998      1.0  0.97676  0.34949  0.03346  1.0000
  C   C999      1.0  0.76490  0.23782  0.22743  1.0000
  N   N97       1.0  0.90960  0.23204  0.14563  1.0000
  C   C1000     1.0  0.91596  0.21710  0.16358  1.0000
  C   C1001     1.0  0.91738  0.22180  0.12675  1.0000
  C   C1002     1.0  0.91214  0.26313  0.14767  1.0000
  C   C1003     1.0  0.89301  0.22599  0.14458  1.0000
  C   C1004     1.0  0.90665  0.03870  0.11198  1.0000
  H   H1579     1.0  0.93347  0.08437  0.12983  1.0000
  H   H1580     1.0  0.77695  0.23725  0.15500  1.0000
  C   C1005     1.0  0.98795  0.08837  0.24410  1.0000
  H   H1581     1.0  0.84045  0.29977  0.11452  1.0000
  H   H1582     1.0  0.92819  0.22275  0.16569  1.0000
  H   H1583     1.0  0.88777  0.23699  0.13127  1.0000
  H   H1584     1.0  0.76638  0.06009  0.48148  1.0000
  H   H1585     1.0  0.90968  0.22267  0.17801  1.0000
  C   C1006     1.0  0.00238  0.36718  0.03794  1.0000
  H   H1586     1.0  0.90757  0.27519  0.13435  1.0000
  H   H1587     1.0  0.87561  0.46652  0.06429  1.0000
  H   H1588     1.0  0.92460  0.26820  0.14847  1.0000
  H   H1589     1.0  0.98723  0.34813  0.07179  1.0000
  H   H1590     1.0  0.75727  0.28865  0.14454  1.0000
  C   C1007     1.0  0.99510  0.11381  0.32701  1.0000
  H   H1591     1.0  0.77218  0.34404  0.00904  1.0000
  H   H1592     1.0  0.79498  0.99060  0.12205  1.0000
  H   H1593     1.0  0.93176  0.04651  0.13414  1.0000
  H   H1594     1.0  0.76263  0.27869  0.24246  1.0000
  H   H1595     1.0  0.77824  0.10267  0.23934  1.0000
  H   H1596     1.0  0.00402  0.11616  0.33889  1.0000
  H   H1597     1.0  0.77451  0.26865  0.17041  1.0000
  H   H1598     1.0  0.99126  0.03099  0.14967  1.0000
  H   H1599     1.0  0.93662  0.07762  0.09277  1.0000
  H   H1600     1.0  0.98689  0.08106  0.15841  1.0000
  H   H1601     1.0  0.98442  0.12368  0.33319  1.0000
  H   H1602     1.0  0.75991  0.37270  0.27404  1.0000
  H   H1603     1.0  0.75660  0.05661  0.20360  1.0000
  H   H1604     1.0  0.98435  0.31243  0.06319  1.0000
  H   H1605     1.0  0.91333  0.23334  0.11290  1.0000
  N   N98       1.0  0.91714  0.06350  0.11086  1.0000
  C   C1008     1.0  0.99915  0.02895  0.16276  1.0000
  S   S415      1.0  0.80096  0.99828  0.07752  1.0000
  C   C1009     1.0  0.00318  0.15787  0.31057  1.0000
  C   C1010     1.0  0.75579  0.32704  0.29871  1.0000
  H   H1606     1.0  0.99867  0.00631  0.16813  1.0000
  C   C1011     1.0  0.77457  0.11327  0.22492  1.0000
  C   C1012     1.0  0.76969  0.24714  0.16720  1.0000
  H   H1607     1.0  0.77661  0.46690  0.04276  1.0000
  H   H1608     1.0  0.96873  0.33102  0.03478  1.0000
  C   C1013     1.0  0.75666  0.37822  0.00204  1.0000
  C   C1014     1.0  0.98779  0.12414  0.29215  1.0000
  H   H1609     1.0  0.78375  0.12856  0.22013  1.0000
  H   H1610     1.0  0.92282  0.05711  0.07894  1.0000
  H   H1611     1.0  0.89800  0.04111  0.12463  1.0000
  C   C1015     1.0  0.99179  0.21362  0.47296  1.0000
  N   N99       1.0  0.77153  0.09226  0.20864  1.0000
  C   C1016     1.0  0.76233  0.35034  0.00029  1.0000
  S   S416      1.0  0.96053  0.46859  0.11869  1.0000
  H   H1612     1.0  0.98384  0.20227  0.46345  1.0000
  H   H1613     1.0  0.91299  0.01843  0.11475  1.0000
  H   H1614     1.0  0.79513  0.08973  0.19881  1.0000
  H   H1615     1.0  0.82998  0.29441  0.05967  1.0000
  H   H1616     1.0  0.99057  0.47807  0.28813  1.0000
  C   C1017     1.0  0.92847  0.05931  0.09401  1.0000
  H   H1617     1.0  0.97700  0.08035  0.24966  1.0000
  H   H1618     1.0  0.83382  0.36582  0.08420  1.0000
  H   H1619     1.0  0.82142  0.29541  0.10535  1.0000
  C   C1018     1.0  0.82694  0.31499  0.06713  1.0000
  H   H1620     1.0  0.83676  0.27553  0.09383  1.0000
  H   H1621     1.0  0.90033  0.03607  0.09743  1.0000
  N   N100      1.0  0.99236  0.34174  0.03974  1.0000
  C   C1019     1.0  0.99191  0.33149  0.06126  1.0000
  H   H1622     1.0  0.91584  0.10906  0.10661  1.0000
  N   N101      1.0  0.99499  0.04892  0.17943  1.0000
  C   C1020     1.0  0.78557  0.07563  0.20416  1.0000
  C   C1021     1.0  0.85261  0.32133  0.07937  1.0000
  H   H1623     1.0  0.83818  0.35187  0.10905  1.0000
  C   C1022     1.0  0.97958  0.04185  0.18776  1.0000
  H   H1624     1.0  0.78952  0.06374  0.21791  1.0000
  H   H1625     1.0  0.85996  0.32557  0.09275  1.0000
  H   H1626     1.0  0.78375  0.05992  0.19166  1.0000
  H   H1627     1.0  0.99135  0.13330  0.27695  1.0000
  H   H1628     1.0  0.99193  0.99794  0.05390  1.0000
  C   C1023     1.0  0.75690  0.37737  0.29035  1.0000
  H   H1629     1.0  0.99279  0.16940  0.31615  1.0000
  H   H1630     1.0  0.76424  0.12636  0.22858  1.0000
  H   H1631     1.0  0.97203  0.36651  0.04342  1.0000
  H   H1632     1.0  0.97916  0.01985  0.19436  1.0000
  H   H1633     1.0  0.81452  0.31423  0.07113  1.0000
  H   H1634     1.0  0.00348  0.32558  0.06667  1.0000
  H   H1635     1.0  0.82863  0.33225  0.05545  1.0000
  C   C1024     1.0  0.83171  0.34755  0.09488  1.0000
  C   C1025     1.0  0.83366  0.29666  0.10045  1.0000
  C   C1026     1.0  0.90829  0.08986  0.10704  1.0000
  C   C1027     1.0  0.75876  0.21038  0.22512  1.0000
  H   H1636     1.0  0.90654  0.27153  0.16186  1.0000
  H   H1637     1.0  0.81934  0.34781  0.09908  1.0000
  H   H1638     1.0  0.76663  0.32808  0.30733  1.0000
  H   H1639     1.0  0.85645  0.30102  0.07218  1.0000
  N   N102      1.0  0.83624  0.32012  0.08546  1.0000
  H   H1640     1.0  0.92385  0.47324  0.08991  1.0000
  H   H1641     1.0  0.97712  0.13522  0.29717  1.0000
  H   H1642     1.0  0.99805  0.38492  0.04777  1.0000
  H   H1643     1.0  0.99369  0.02537  0.99180  1.0000
  H   H1644     1.0  0.76447  0.09232  0.17715  1.0000
  H   H1645     1.0  0.00470  0.10920  0.48051  1.0000
  H   H1646     1.0  0.00091  0.06379  0.26611  1.0000
  C   C1028     1.0  0.00151  0.07906  0.25358  1.0000
  H   H1647     1.0  0.00332  0.13212  0.20732  1.0000
  H   H1648     1.0  0.77033  0.47739  0.01794  1.0000
  H   H1649     1.0  0.00280  0.37570  0.02193  1.0000
  C   C1029     1.0  0.99501  0.07851  0.17127  1.0000
  H   H1650     1.0  0.99094  0.29950  0.02727  1.0000
  H   H1651     1.0  0.75862  0.32086  0.28261  1.0000
  H   H1652     1.0  0.99651  0.42771  0.27894  1.0000
  H   H1653     1.0  0.00080  0.44440  0.31452  1.0000
  H   H1654     1.0  0.99872  0.32602  0.00992  1.0000
  C   C1030     1.0  0.00269  0.11731  0.22014  1.0000
  H   H1655     1.0  0.97812  0.98840  0.01018  1.0000
  C   C1031     1.0  0.99832  0.31891  0.02626  1.0000
  H   H1656     1.0  0.00303  0.05974  0.20931  1.0000
  H   H1657     1.0  0.89597  0.47994  0.09783  1.0000
  H   H1658     1.0  0.75637  0.12066  0.19267  1.0000
  H   H1659     1.0  0.91481  0.47244  0.12526  1.0000
  H   H1660     1.0  0.97974  0.13455  0.48664  1.0000
  C   C1032     1.0  0.00220  0.44595  0.98761  1.0000
  Fe  Fe209     1.0  0.96022  0.44899  0.65608  1.0000
  S   S417      1.0  0.95381  0.43691  0.68870  1.0000
  H   H1661     1.0  0.84316  0.10219  0.59718  1.0000
  Fe  Fe210     1.0  0.96097  0.38619  0.64353  1.0000
  S   S418      1.0  0.95451  0.36941  0.67492  1.0000
  S   S419      1.0  0.96495  0.36157  0.61396  1.0000
  Fe  Fe211     1.0  0.93737  0.40548  0.67529  1.0000
  S   S420      1.0  0.91445  0.39650  0.69147  1.0000
  Fe  Fe212     1.0  0.97138  0.40156  0.68679  1.0000
  S   S421      1.0  0.98586  0.39746  0.71593  1.0000
  S   S422      1.0  0.94245  0.41985  0.64286  1.0000
  S   S423      1.0  0.97909  0.41603  0.65517  1.0000
  Fe  Fe213     1.0  0.79302  0.43486  0.68568  1.0000
  S   S424      1.0  0.78207  0.41860  0.65693  1.0000
  S   S425      1.0  0.77781  0.43696  0.71503  1.0000
  Fe  Fe214     1.0  0.82518  0.43515  0.66486  1.0000
  S   S426      1.0  0.81593  0.41978  0.63499  1.0000
  S   S427      1.0  0.85064  0.44467  0.66009  1.0000
  Fe  Fe215     1.0  0.79694  0.45120  0.64053  1.0000
  H   H1662     1.0  0.83801  0.11685  0.57280  1.0000
  Fe  Fe216     1.0  0.80206  0.38847  0.65345  1.0000
  S   S428      1.0  0.80021  0.34047  0.64618  1.0000
  S   S429      1.0  0.80696  0.46914  0.66920  1.0000
  S   S430      1.0  0.81216  0.40211  0.68348  1.0000
  Fe  Fe217     1.0  0.96350  0.19972  0.58373  1.0000
  S   S431      1.0  0.94965  0.21556  0.55736  1.0000
  S   S432      1.0  0.97191  0.22589  0.61053  1.0000
  Fe  Fe218     1.0  0.96151  0.13659  0.57074  1.0000
  S   S433      1.0  0.94755  0.14835  0.54314  1.0000
  S   S434      1.0  0.96910  0.08998  0.57597  1.0000
  Fe  Fe219     1.0  0.96414  0.18542  0.53820  1.0000
  S   S435      1.0  0.97338  0.19448  0.50529  1.0000
  Fe  Fe220     1.0  0.93435  0.17759  0.56432  1.0000
  S   S436      1.0  0.90899  0.18298  0.57251  1.0000
  S   S437      1.0  0.97890  0.17155  0.56440  1.0000
  S   S438      1.0  0.94748  0.16365  0.59203  1.0000
  Fe  Fe221     1.0  0.78812  0.15723  0.53987  1.0000
  S   S439      1.0  0.78306  0.17414  0.57174  1.0000
  S   S440      1.0  0.76757  0.15257  0.51851  1.0000
  Fe  Fe222     1.0  0.82278  0.15518  0.54831  1.0000
  S   S441      1.0  0.81995  0.17104  0.58047  1.0000
  S   S442      1.0  0.84596  0.14388  0.53409  1.0000
  Fe  Fe223     1.0  0.79991  0.14066  0.58191  1.0000
  S   S443      1.0  0.79631  0.11237  0.60998  1.0000
  Fe  Fe224     1.0  0.80355  0.20338  0.56759  1.0000
  S   S444      1.0  0.80694  0.25208  0.57139  1.0000
  S   S445      1.0  0.80386  0.12239  0.55059  1.0000
  S   S446      1.0  0.80744  0.18874  0.53490  1.0000
  H   H1663     1.0  0.83388  0.08500  0.54322  1.0000
  H   H1664     1.0  0.93985  0.35995  0.72840  1.0000
  H   H1665     1.0  0.83774  0.23747  0.56329  1.0000
  C   C1033     1.0  0.89195  0.16963  0.56186  1.0000
  C   C1034     1.0  0.87826  0.17226  0.57334  1.0000
  C   C1035     1.0  0.86420  0.16357  0.56528  1.0000
  C   C1036     1.0  0.86362  0.15277  0.54540  1.0000
  C   C1037     1.0  0.87733  0.14948  0.53403  1.0000
  C   C1038     1.0  0.89147  0.15783  0.54222  1.0000
  H   H1666     1.0  0.87854  0.18126  0.58858  1.0000
  H   H1667     1.0  0.85382  0.16579  0.57438  1.0000
  H   H1668     1.0  0.87702  0.14094  0.51865  1.0000
  H   H1669     1.0  0.90193  0.15575  0.53321  1.0000
  C   C1039     1.0  0.76741  0.46357  0.72914  1.0000
  H   H1670     1.0  0.75834  0.07656  0.53442  1.0000
  H   H1671     1.0  0.84956  0.28143  0.54905  1.0000
  H   H1672     1.0  0.96231  0.42062  0.60355  1.0000
  H   H1673     1.0  0.77213  0.09976  0.54553  1.0000
  C   C1040     1.0  0.80233  0.31643  0.62509  1.0000
  C   C1041     1.0  0.80718  0.32540  0.60547  1.0000
  C   C1042     1.0  0.80851  0.30543  0.58933  1.0000
  C   C1043     1.0  0.80511  0.27621  0.59250  1.0000
  C   C1044     1.0  0.80043  0.26726  0.61217  1.0000
  C   C1045     1.0  0.79906  0.28723  0.62829  1.0000
  H   H1674     1.0  0.80985  0.34767  0.60271  1.0000
  H   H1675     1.0  0.81215  0.31267  0.57421  1.0000
  H   H1676     1.0  0.79776  0.24497  0.61497  1.0000
  H   H1677     1.0  0.79532  0.27994  0.64336  1.0000
  C   C1046     1.0  0.79730  0.01407  0.60972  1.0000
  C   C1047     1.0  0.79631  0.02943  0.59116  1.0000
  C   C1048     1.0  0.79616  0.05953  0.59098  1.0000
  C   C1049     1.0  0.79684  0.07456  0.60941  1.0000
  C   C1050     1.0  0.79776  0.05923  0.62795  1.0000
  C   C1051     1.0  0.79807  0.02913  0.62812  1.0000
  H   H1678     1.0  0.79563  0.01789  0.57688  1.0000
  H   H1679     1.0  0.79525  0.07104  0.57664  1.0000
  H   H1680     1.0  0.79820  0.07069  0.64229  1.0000
  H   H1681     1.0  0.79874  0.01758  0.64251  1.0000
  H   H1682     1.0  0.76886  0.11388  0.58232  1.0000
  H   H1683     1.0  0.98767  0.17518  0.66538  1.0000
  H   H1684     1.0  0.76502  0.40524  0.56342  1.0000
  C   C1052     1.0  0.98422  0.14687  0.61781  1.0000
  H   H1685     1.0  0.84111  0.20389  0.55097  1.0000
  C   C1053     1.0  0.96146  0.02250  0.62787  1.0000
  C   C1054     1.0  0.95694  0.05116  0.63076  1.0000
  C   C1055     1.0  0.95866  0.07180  0.61490  1.0000
  C   C1056     1.0  0.96539  0.06433  0.59603  1.0000
  C   C1057     1.0  0.96988  0.03568  0.59313  1.0000
  C   C1058     1.0  0.96778  0.01486  0.60879  1.0000
  H   H1686     1.0  0.95207  0.05745  0.64542  1.0000
  H   H1687     1.0  0.95495  0.09355  0.61735  1.0000
  H   H1688     1.0  0.97512  0.02951  0.57866  1.0000
  C   C1059     1.0  0.91578  0.02024  0.63924  1.0000
  C   C1060     1.0  0.96606  0.32369  0.61358  1.0000
  C   C1061     1.0  0.96902  0.30771  0.63130  1.0000
  C   C1062     1.0  0.97068  0.27778  0.63017  1.0000
  C   C1063     1.0  0.96910  0.26346  0.61144  1.0000
  C   C1064     1.0  0.96584  0.27938  0.59380  1.0000
  C   C1065     1.0  0.96449  0.30936  0.59485  1.0000
  H   H1689     1.0  0.97035  0.31847  0.64578  1.0000
  H   H1690     1.0  0.97325  0.26572  0.64388  1.0000
  H   H1691     1.0  0.96469  0.26870  0.57926  1.0000
  H   H1692     1.0  0.96224  0.32150  0.58105  1.0000
  C   C1066     1.0  0.89674  0.40985  0.68261  1.0000
  C   C1067     1.0  0.89599  0.42760  0.66533  1.0000
  C   C1068     1.0  0.88177  0.43813  0.65885  1.0000
  C   C1069     1.0  0.86812  0.43094  0.66945  1.0000
  C   C1070     1.0  0.86884  0.41310  0.68673  1.0000
  C   C1071     1.0  0.88309  0.40259  0.69324  1.0000
  H   H1693     1.0  0.90638  0.43346  0.65705  1.0000
  H   H1694     1.0  0.88135  0.45202  0.64553  1.0000
  H   H1695     1.0  0.85848  0.40784  0.69530  1.0000
  H   H1696     1.0  0.88358  0.38904  0.70673  1.0000
  H   H1697     1.0  0.96158  0.17802  0.63495  1.0000
  H   H1698     1.0  0.95575  0.45239  0.59091  1.0000
  C   C1072     1.0  0.75530  0.33050  0.98711  1.0000
  C   C1073     1.0  0.99808  0.37148  0.72757  1.0000
  H   H1699     1.0  0.97656  0.10458  0.64403  1.0000
  H   H1700     1.0  0.95208  0.38627  0.71669  1.0000
  H   H1701     1.0  0.79519  0.98288  0.71374  1.0000
  H   H1702     1.0  0.98587  0.08129  0.52854  1.0000
  C   C1074     1.0  0.76015  0.12666  0.50114  1.0000
  C   C1075     1.0  0.99984  0.22861  0.50640  1.0000
  H   H1703     1.0  0.75778  0.43262  0.75037  1.0000
  H   H1704     1.0  0.99825  0.22901  0.52289  1.0000
  H   H1705     1.0  0.85755  0.20148  0.51947  1.0000
  C   C1076     1.0  0.76204  0.41951  0.60309  1.0000
  H   H1706     1.0  0.76479  0.07805  0.59064  1.0000
  C   C1077     1.0  0.94914  0.37556  0.73147  1.0000
  H   H1707     1.0  0.97151  0.13464  0.51191  1.0000
  H   H1708     1.0  0.98980  0.41374  0.60956  1.0000
  N   N103      1.0  0.85026  0.34919  0.64794  1.0000
  C   C1078     1.0  0.84710  0.31842  0.64520  1.0000
  C   C1079     1.0  0.86694  0.35393  0.64944  1.0000
  C   C1080     1.0  0.84249  0.35911  0.66690  1.0000
  C   C1081     1.0  0.84440  0.36545  0.63024  1.0000
  H   H1709     1.0  0.83457  0.31430  0.64402  1.0000
  H   H1710     1.0  0.85128  0.30558  0.65840  1.0000
  H   H1711     1.0  0.85272  0.31013  0.63100  1.0000
  H   H1712     1.0  0.86967  0.37708  0.65088  1.0000
  H   H1713     1.0  0.87172  0.34294  0.66310  1.0000
  H   H1714     1.0  0.87324  0.34605  0.63561  1.0000
  H   H1715     1.0  0.84384  0.38259  0.66880  1.0000
  H   H1716     1.0  0.84715  0.34856  0.68079  1.0000
  H   H1717     1.0  0.82999  0.35445  0.66667  1.0000
  H   H1718     1.0  0.83181  0.36247  0.62881  1.0000
  H   H1719     1.0  0.84994  0.35857  0.61560  1.0000
  H   H1720     1.0  0.84659  0.38883  0.63191  1.0000
  C   C1082     1.0  0.85791  0.26784  0.54044  1.0000
  H   H1721     1.0  0.99745  0.07763  0.49326  1.0000
  H   H1722     1.0  0.77013  0.06351  0.55472  1.0000
  H   H1723     1.0  0.96101  0.15965  0.65917  1.0000
  N   N104      1.0  0.94442  0.39672  0.74705  1.0000
  H   H1724     1.0  0.95951  0.36352  0.73615  1.0000
  C   C1083     1.0  0.76372  0.08249  0.54915  1.0000
  H   H1725     1.0  0.91288  0.03005  0.62421  1.0000
  H   H1726     1.0  0.77606  0.37675  0.62383  1.0000
  H   H1727     1.0  0.81750  0.99367  0.76120  1.0000
  H   H1728     1.0  0.95395  0.43361  0.76176  1.0000
  C   C1084     1.0  0.98939  0.21374  0.49442  1.0000
  H   H1729     1.0  0.85625  0.22121  0.56451  1.0000
  C   C1085     1.0  0.79835  0.98552  0.73010  1.0000
  C   C1086     1.0  0.76491  0.38713  0.57462  1.0000
  H   H1730     1.0  0.79460  0.38836  0.58476  1.0000
  H   H1731     1.0  0.86293  0.05553  0.55906  1.0000
  H   H1732     1.0  0.87265  0.21775  0.53351  1.0000
  H   H1733     1.0  0.96767  0.40646  0.75484  1.0000
  C   C1087     1.0  0.78723  0.40555  0.59127  1.0000
  C   C1088     1.0  0.93066  0.41204  0.74004  1.0000
  H   H1734     1.0  0.75962  0.39797  0.93334  1.0000
  H   H1735     1.0  0.97925  0.40898  0.57452  1.0000
  H   H1736     1.0  0.76235  0.43868  0.59283  1.0000
  H   H1737     1.0  0.76652  0.42663  0.61808  1.0000
  C   C1089     1.0  0.00142  0.34509  0.71856  1.0000
  H   H1738     1.0  0.82437  0.09626  0.58754  1.0000
  H   H1739     1.0  0.99640  0.14085  0.61511  1.0000
  C   C1090     1.0  0.96483  0.44369  0.60089  1.0000
  H   H1740     1.0  0.99578  0.11585  0.64871  1.0000
  H   H1741     1.0  0.86559  0.07977  0.58005  1.0000
  C   C1091     1.0  0.94093  0.38181  0.76665  1.0000
  H   H1742     1.0  0.96378  0.45449  0.61597  1.0000
  C   C1092     1.0  0.77093  0.37123  0.60886  1.0000
  N   N105      1.0  0.98053  0.14967  0.63992  1.0000
  H   H1743     1.0  0.93732  0.39712  0.77880  1.0000
  H   H1744     1.0  0.93292  0.42348  0.72524  1.0000
  C   C1093     1.0  0.76742  0.10054  0.49729  1.0000
  S   S447      1.0  0.95919  0.99758  0.64873  1.0000
  C   C1094     1.0  0.98292  0.47879  0.58803  1.0000
  C   C1095     1.0  0.84635  0.22496  0.55436  1.0000
  C   C1096     1.0  0.99014  0.17237  0.64871  1.0000
  C   C1097     1.0  0.98355  0.12220  0.65044  1.0000
  H   H1745     1.0  0.97261  0.44015  0.56108  1.0000
  C   C1098     1.0  0.89599  0.98435  0.63670  1.0000
  C   C1099     1.0  0.99217  0.10186  0.52999  1.0000
  C   C1100     1.0  0.96421  0.15730  0.64267  1.0000
  H   H1746     1.0  0.99468  0.01224  0.91164  1.0000
  N   N106      1.0  0.99408  0.11663  0.50998  1.0000
  H   H1747     1.0  0.77164  0.36934  0.56766  1.0000
  H   H1748     1.0  0.98214  0.99403  0.89447  1.0000
  H   H1749     1.0  0.83253  0.22382  0.51752  1.0000
  H   H1750     1.0  0.97703  0.13027  0.61051  1.0000
  H   H1751     1.0  0.95114  0.37007  0.77228  1.0000
  H   H1752     1.0  0.78793  0.42444  0.58077  1.0000
  H   H1753     1.0  0.86659  0.23333  0.50968  1.0000
  C   C1101     1.0  0.84033  0.04702  0.58692  1.0000
  H   H1754     1.0  0.76237  0.33722  0.89678  1.0000
  H   H1755     1.0  0.89215  0.99358  0.62190  1.0000
  N   N107      1.0  0.91251  0.98925  0.63966  1.0000
  N   N108      1.0  0.85108  0.23996  0.53526  1.0000
  C   C1102     1.0  0.83667  0.09786  0.58301  1.0000
  C   C1103     1.0  0.75955  0.09772  0.58413  1.0000
  H   H1756     1.0  0.90925  0.03162  0.65150  1.0000
  H   H1757     1.0  0.98547  0.11513  0.54106  1.0000
  H   H1758     1.0  0.92100  0.39705  0.73730  1.0000
  H   H1759     1.0  0.77823  0.09586  0.50438  1.0000
  H   H1760     1.0  0.77753  0.35276  0.60268  1.0000
  C   C1104     1.0  0.95699  0.41739  0.74999  1.0000
  N   N109      1.0  0.98024  0.44793  0.59167  1.0000
  H   H1761     1.0  0.85996  0.09311  0.55549  1.0000
  H   H1762     1.0  0.95991  0.42904  0.73546  1.0000
  N   N110      1.0  0.84208  0.07163  0.57269  1.0000
  H   H1763     1.0  0.79229  0.41236  0.60595  1.0000
  H   H1764     1.0  0.93154  0.36596  0.76490  1.0000
  H   H1765     1.0  0.98807  0.19341  0.64109  1.0000
  H   H1766     1.0  0.91010  0.98631  0.67256  1.0000
  H   H1767     1.0  0.99568  0.15814  0.52375  1.0000
  C   C1105     1.0  0.83294  0.06665  0.55420  1.0000
  H   H1768     1.0  0.84720  0.04990  0.60094  1.0000
  C   C1106     1.0  0.97886  0.12202  0.50123  1.0000
  H   H1769     1.0  0.98228  0.16739  0.60953  1.0000
  H   H1770     1.0  0.77250  0.37293  0.92128  1.0000
  H   H1771     1.0  0.82060  0.06371  0.55819  1.0000
  H   H1772     1.0  0.92668  0.42816  0.75139  1.0000
  H   H1773     1.0  0.82819  0.04422  0.59209  1.0000
  H   H1774     1.0  0.84396  0.02668  0.57953  1.0000
  C   C1107     1.0  0.85837  0.07508  0.56660  1.0000
  H   H1775     1.0  0.83681  0.04720  0.54587  1.0000
  H   H1776     1.0  0.92816  0.02441  0.64171  1.0000
  C   C1108     1.0  0.99185  0.43677  0.60584  1.0000
  C   C1109     1.0  0.86248  0.22245  0.52398  1.0000
  H   H1777     1.0  0.95659  0.14085  0.63603  1.0000
  N   N111      1.0  0.77127  0.39583  0.59447  1.0000
  H   H1778     1.0  0.82834  0.25634  0.53086  1.0000
  C   C1110     1.0  0.75917  0.98570  0.71483  1.0000
  H   H1779     1.0  0.98081  0.12343  0.66716  1.0000
  H   H1780     1.0  0.99162  0.44873  0.62057  1.0000
  H   H1781     1.0  0.97266  0.10178  0.49811  1.0000
  C   C1111     1.0  0.76054  0.37602  0.92697  1.0000
  S   S448      1.0  0.78874  0.47518  0.61240  1.0000
  C   C1112     1.0  0.83754  0.24453  0.52238  1.0000
  C   C1113     1.0  0.98129  0.43233  0.57207  1.0000
  H   H1782     1.0  0.86160  0.27984  0.52639  1.0000
  H   H1783     1.0  0.80048  0.00865  0.73268  1.0000
  H   H1784     1.0  0.00336  0.15629  0.49820  1.0000
  H   H1785     1.0  0.99278  0.43490  0.56466  1.0000
  H   H1786     1.0  0.86816  0.26504  0.55017  1.0000
  H   H1787     1.0  0.88896  0.99392  0.64930  1.0000
  H   H1788     1.0  0.97140  0.99304  0.60625  1.0000
  H   H1789     1.0  0.99653  0.33984  0.70393  1.0000
  H   H1790     1.0  0.75860  0.36076  0.93999  1.0000
  C   C1114     1.0  0.00315  0.09859  0.49577  1.0000
  C   C1115     1.0  0.75829  0.45503  0.74619  1.0000
  H   H1791     1.0  0.76404  0.38849  0.88660  1.0000
  H   H1792     1.0  0.76440  0.99221  0.70036  1.0000
  H   H1793     1.0  0.00361  0.43878  0.59918  1.0000
  H   H1794     1.0  0.84050  0.25685  0.50820  1.0000
  H   H1795     1.0  0.75990  0.30910  0.98593  1.0000
  H   H1796     1.0  0.82817  0.00001  0.72580  1.0000
  H   H1797     1.0  0.00185  0.00006  0.88723  1.0000
  C   C1116     1.0  0.00211  0.14411  0.51290  1.0000
  H   H1798     1.0  0.00352  0.42353  0.98410  1.0000
  H   H1799     1.0  0.00255  0.16754  0.64676  1.0000
  H   H1800     1.0  0.00337  0.09717  0.53708  1.0000
  H   H1801     1.0  0.75904  0.36375  0.61211  1.0000
  C   C1117     1.0  0.99400  0.99448  0.90036  1.0000
  H   H1802     1.0  0.00220  0.39804  0.75381  1.0000
  H   H1803     1.0  0.91834  0.98369  0.60769  1.0000
  C   C1118     1.0  0.00461  0.37772  0.74665  1.0000
  Fe  Fe225     1.0  0.96355  0.92445  0.03845  1.0000
  S   S449      1.0  0.97281  0.90570  0.06773  1.0000
  S   S450      1.0  0.98022  0.92538  0.01058  1.0000
  Fe  Fe226     1.0  0.93143  0.93208  0.05833  1.0000
  S   S451      1.0  0.93885  0.91454  0.08864  1.0000
  S   S452      1.0  0.90739  0.95064  0.05934  1.0000
  Fe  Fe227     1.0  0.95984  0.94143  0.08321  1.0000
  C   C1119     1.0  0.89807  0.50336  0.09921  1.0000
  Fe  Fe228     1.0  0.95093  0.88030  0.07064  1.0000
  S   S453      1.0  0.94752  0.83201  0.07605  1.0000
  S   S454      1.0  0.95181  0.96149  0.05406  1.0000
  S   S455      1.0  0.94232  0.89656  0.04018  1.0000
  Fe  Fe229     1.0  0.78791  0.90445  0.04172  1.0000
  S   S456      1.0  0.78034  0.91996  0.07303  1.0000
  S   S457      1.0  0.77237  0.90028  0.01361  1.0000
  Fe  Fe230     1.0  0.82185  0.90283  0.05422  1.0000
  S   S458      1.0  0.81684  0.91730  0.08650  1.0000
  S   S459      1.0  0.84446  0.88823  0.03984  1.0000
  Fe  Fe231     1.0  0.79681  0.88690  0.08507  1.0000
  S   S460      1.0  0.78961  0.85866  0.11208  1.0000
  Fe  Fe232     1.0  0.80083  0.94955  0.07245  1.0000
  H   H1804     1.0  0.82333  0.91172  0.00334  1.0000
  S   S461      1.0  0.80305  0.86983  0.05398  1.0000
  S   S462      1.0  0.80717  0.93660  0.04003  1.0000
  Fe  Fe233     1.0  0.95644  0.63241  0.14476  1.0000
  S   S463      1.0  0.94856  0.61492  0.17526  1.0000
  S   S464      1.0  0.96543  0.60439  0.11877  1.0000
  Fe  Fe234     1.0  0.95134  0.69522  0.15744  1.0000
  S   S465      1.0  0.94318  0.68119  0.18920  1.0000
  S   S466      1.0  0.95400  0.74374  0.15153  1.0000
  Fe  Fe235     1.0  0.96288  0.64962  0.18908  1.0000
  S   S467      1.0  0.98113  0.64592  0.21442  1.0000
  Fe  Fe236     1.0  0.92964  0.64764  0.17260  1.0000
  S   S468      1.0  0.90554  0.62966  0.17772  1.0000
  S   S469      1.0  0.97172  0.66576  0.15840  1.0000
  S   S470      1.0  0.93680  0.66307  0.14106  1.0000
  Fe  Fe237     1.0  0.79461  0.69589  0.14119  1.0000
  S   S471      1.0  0.79980  0.71374  0.17215  1.0000
  S   S472      1.0  0.79357  0.72291  0.11214  1.0000
  Fe  Fe238     1.0  0.79647  0.63329  0.15584  1.0000
  S   S473      1.0  0.80264  0.64760  0.18776  1.0000
  S   S474      1.0  0.79323  0.58467  0.15233  1.0000
  Fe  Fe239     1.0  0.78368  0.68017  0.18490  1.0000
  N   N112      1.0  0.76827  0.59133  0.20903  1.0000
  Fe  Fe240     1.0  0.81819  0.67979  0.17231  1.0000
  S   S475      1.0  0.84189  0.69662  0.17993  1.0000
  S   S476      1.0  0.77698  0.66462  0.15352  1.0000
  S   S477      1.0  0.81354  0.66321  0.14083  1.0000
  C   C1120     1.0  0.98353  0.65445  0.31127  1.0000
  C   C1121     1.0  0.99038  0.95294  0.99697  1.0000
  H   H1805     1.0  0.98697  0.67321  0.32056  1.0000
  N   N113      1.0  0.99606  0.63335  0.30953  1.0000
  H   H1806     1.0  0.82032  0.62777  0.45184  1.0000
  H   H1807     1.0  0.00355  0.74245  0.45022  1.0000
  H   H1808     1.0  0.76097  0.59429  0.17768  1.0000
  C   C1122     1.0  0.99083  0.72293  0.47561  1.0000
  H   H1809     1.0  0.89564  0.51295  0.08393  1.0000
  C   C1123     1.0  0.99148  0.61907  0.22812  1.0000
  C   C1124     1.0  0.98775  0.58997  0.22743  1.0000
  H   H1810     1.0  0.00031  0.59275  0.29521  1.0000
  H   H1811     1.0  0.97818  0.58309  0.21841  1.0000
  H   H1812     1.0  0.78602  0.56142  0.21675  1.0000
  C   C1125     1.0  0.88804  0.64893  0.17711  1.0000
  C   C1126     1.0  0.88752  0.67867  0.17902  1.0000
  C   C1127     1.0  0.87329  0.69288  0.17985  1.0000
  C   C1128     1.0  0.85947  0.67764  0.17835  1.0000
  C   C1129     1.0  0.86000  0.64801  0.17584  1.0000
  C   C1130     1.0  0.87421  0.63373  0.17545  1.0000
  H   H1813     1.0  0.89805  0.69060  0.18047  1.0000
  H   H1814     1.0  0.87302  0.71579  0.18193  1.0000
  H   H1815     1.0  0.84948  0.63599  0.17470  1.0000
  H   H1816     1.0  0.87450  0.61071  0.17405  1.0000
  H   H1817     1.0  0.98063  0.71982  0.46675  1.0000
  C   C1131     1.0  0.79552  0.52257  0.09706  1.0000
  C   C1132     1.0  0.79602  0.55239  0.09381  1.0000
  C   C1133     1.0  0.79559  0.57167  0.11044  1.0000
  C   C1134     1.0  0.79446  0.56142  0.13064  1.0000
  C   C1135     1.0  0.79388  0.53159  0.13388  1.0000
  C   C1136     1.0  0.79449  0.51230  0.11726  1.0000
  H   H1818     1.0  0.79683  0.56069  0.07830  1.0000
  H   H1819     1.0  0.79601  0.59446  0.10760  1.0000
  H   H1820     1.0  0.90906  0.50507  0.13772  1.0000
  H   H1821     1.0  0.78116  0.62604  0.22161  1.0000
  C   C1137     1.0  0.79185  0.82106  0.11213  1.0000
  C   C1138     1.0  0.78880  0.80562  0.13032  1.0000
  C   C1139     1.0  0.78957  0.77556  0.13067  1.0000
  C   C1140     1.0  0.79312  0.76067  0.11269  1.0000
  C   C1141     1.0  0.79624  0.77608  0.09451  1.0000
  C   C1142     1.0  0.79577  0.80615  0.09426  1.0000
  H   H1822     1.0  0.78571  0.81696  0.14420  1.0000
  H   H1823     1.0  0.78707  0.76394  0.14474  1.0000
  H   H1824     1.0  0.79899  0.76468  0.08055  1.0000
  H   H1825     1.0  0.79824  0.81769  0.08018  1.0000
  C   C1143     1.0  0.81067  0.85972  0.00171  1.0000
  H   H1826     1.0  0.92841  0.54546  0.11123  1.0000
  C   C1144     1.0  0.76094  0.87449  0.00060  1.0000
  C   C1145     1.0  0.94975  0.80785  0.09720  1.0000
  C   C1146     1.0  0.94665  0.77858  0.09439  1.0000
  C   C1147     1.0  0.94789  0.75865  0.11071  1.0000
  C   C1148     1.0  0.95221  0.76774  0.13019  1.0000
  C   C1149     1.0  0.95517  0.79708  0.13302  1.0000
  C   C1150     1.0  0.95396  0.81700  0.11669  1.0000
  H   H1827     1.0  0.94336  0.77115  0.07943  1.0000
  H   H1828     1.0  0.94557  0.73624  0.10822  1.0000
  H   H1829     1.0  0.95851  0.80442  0.14798  1.0000
  H   H1830     1.0  0.95635  0.83936  0.11922  1.0000
  C   C1151     1.0  0.96179  0.50635  0.11828  1.0000
  C   C1152     1.0  0.95830  0.52152  0.13628  1.0000
  C   C1153     1.0  0.95879  0.55157  0.13645  1.0000
  C   C1154     1.0  0.96333  0.56674  0.11878  1.0000
  C   C1155     1.0  0.96697  0.55155  0.10083  1.0000
  C   C1156     1.0  0.96604  0.52150  0.10049  1.0000
  H   H1831     1.0  0.95498  0.50996  0.15010  1.0000
  H   H1832     1.0  0.95575  0.56290  0.15031  1.0000
  H   H1833     1.0  0.97051  0.56309  0.08709  1.0000
  H   H1834     1.0  0.96882  0.51006  0.08654  1.0000
  C   C1157     1.0  0.89013  0.93241  0.05407  1.0000
  C   C1158     1.0  0.87624  0.94368  0.06157  1.0000
  C   C1159     1.0  0.86222  0.93011  0.05762  1.0000
  C   C1160     1.0  0.86194  0.90527  0.04585  1.0000
  C   C1161     1.0  0.87584  0.89387  0.03839  1.0000
  C   C1162     1.0  0.88990  0.90733  0.04252  1.0000
  H   H1835     1.0  0.99029  0.61235  0.33818  1.0000
  H   H1836     1.0  0.85161  0.93918  0.06339  1.0000
  H   H1837     1.0  0.87573  0.87477  0.02915  1.0000
  H   H1838     1.0  0.90050  0.89872  0.03638  1.0000
  C   C1163     1.0  0.00013  0.62306  0.33023  1.0000
  H   H1839     1.0  0.98017  0.66264  0.29590  1.0000
  H   H1840     1.0  0.92874  0.49934  0.13039  1.0000
  H   H1841     1.0  0.80465  0.61592  0.46804  1.0000
  C   C1164     1.0  0.99328  0.97439  0.05543  1.0000
  H   H1842     1.0  0.92222  0.50467  0.07422  1.0000
  H   H1843     1.0  0.79302  0.52330  0.14939  1.0000
  N   N114      1.0  0.84219  0.73320  0.12178  1.0000
  C   C1165     1.0  0.83138  0.74124  0.13844  1.0000
  C   C1166     1.0  0.85139  0.75845  0.11561  1.0000
  C   C1167     1.0  0.83353  0.72286  0.10404  1.0000
  C   C1168     1.0  0.85243  0.71029  0.12908  1.0000
  H   H1844     1.0  0.82420  0.72275  0.14325  1.0000
  H   H1845     1.0  0.82347  0.75854  0.13360  1.0000
  H   H1846     1.0  0.83746  0.74847  0.15235  1.0000
  H   H1847     1.0  0.85798  0.76671  0.12877  1.0000
  H   H1848     1.0  0.85971  0.75315  0.10308  1.0000
  H   H1849     1.0  0.84394  0.77610  0.11007  1.0000
  H   H1850     1.0  0.84126  0.71653  0.09112  1.0000
  H   H1851     1.0  0.82554  0.73950  0.09829  1.0000
  H   H1852     1.0  0.82639  0.70390  0.10826  1.0000
  H   H1853     1.0  0.86068  0.70335  0.11692  1.0000
  H   H1854     1.0  0.84583  0.69108  0.13427  1.0000
  H   H1855     1.0  0.85917  0.71738  0.14247  1.0000
  H   H1856     1.0  0.79169  0.58848  0.19848  1.0000
  C   C1169     1.0  0.81721  0.61361  0.46506  1.0000
  H   H1857     1.0  0.98345  0.60664  0.18217  1.0000
  N   N115      1.0  0.91396  0.50924  0.10537  1.0000
  H   H1858     1.0  0.79406  0.48950  0.12010  1.0000
  C   C1170     1.0  0.76604  0.84481  0.06369  1.0000
  C   C1171     1.0  0.75571  0.57189  0.21546  1.0000
  S   S478      1.0  0.79564  0.49942  0.07529  1.0000
  H   H1859     1.0  0.76625  0.86254  0.05219  1.0000
  H   H1860     1.0  0.80324  0.91545  0.99825  1.0000
  H   H1861     1.0  0.99304  0.54742  0.23830  1.0000
  H   H1862     1.0  0.98756  0.96447  0.04219  1.0000
  H   H1863     1.0  0.97706  0.59382  0.15809  1.0000
  C   C1172     1.0  0.91649  0.54044  0.10654  1.0000
  C   C1173     1.0  0.00336  0.56964  0.14598  1.0000
  H   H1864     1.0  0.79938  0.86472  0.00901  1.0000
  H   H1865     1.0  0.91472  0.55104  0.09143  1.0000
  H   H1866     1.0  0.77838  0.50339  0.03509  1.0000
  H   H1867     1.0  0.97314  0.64494  0.31876  1.0000
  C   C1174     1.0  0.76349  0.60495  0.47265  1.0000
  C   C1175     1.0  0.98552  0.59013  0.17028  1.0000
  H   H1868     1.0  0.88960  0.51206  0.11048  1.0000
  H   H1869     1.0  0.76173  0.62416  0.23044  1.0000
  S   S479      1.0  0.96905  0.96746  0.10945  1.0000
  H   H1870     1.0  0.00117  0.54784  0.15234  1.0000
  C   C1176     1.0  0.76039  0.73674  0.22419  1.0000
  C   C1177     1.0  0.77084  0.48424  0.03423  1.0000
  H   H1871     1.0  0.77552  0.59899  0.23992  1.0000
  S   S480      1.0  0.76516  0.68053  0.21063  1.0000
  H   H1872     1.0  0.76027  0.82285  0.10138  1.0000
  H   H1873     1.0  0.87628  0.96314  0.07044  1.0000
  H   H1874     1.0  0.77981  0.55970  0.19059  1.0000
  H   H1875     1.0  0.76891  0.82458  0.05563  1.0000
  H   H1876     1.0  0.90858  0.55054  0.11794  1.0000
  H   H1877     1.0  0.76401  0.51745  0.06652  1.0000
  C   C1178     1.0  0.00386  0.73582  0.46614  1.0000
  H   H1878     1.0  0.82605  0.66609  0.47658  1.0000
  H   H1879     1.0  0.99738  0.52629  0.99944  1.0000
  H   H1880     1.0  0.00226  0.63759  0.16410  1.0000
  H   H1881     1.0  0.93669  0.50242  0.09331  1.0000
  C   C1179     1.0  0.99619  0.56976  0.23885  1.0000
  H   H1882     1.0  0.76906  0.74321  0.21304  1.0000
  C   C1180     1.0  0.76031  0.84563  0.00641  1.0000
  C   C1181     1.0  0.00387  0.62744  0.24028  1.0000
  H   H1883     1.0  0.00298  0.49081  0.26765  1.0000
  N   N116      1.0  0.90250  0.85302  0.09202  1.0000
  C   C1182     1.0  0.91458  0.84716  0.10707  1.0000
  C   C1183     1.0  0.88983  0.83241  0.09519  1.0000
  C   C1184     1.0  0.90891  0.84996  0.07100  1.0000
  C   C1185     1.0  0.89664  0.88242  0.09477  1.0000
  H   H1884     1.0  0.91032  0.84979  0.12313  1.0000
  H   H1885     1.0  0.92456  0.86167  0.10473  1.0000
  H   H1886     1.0  0.91904  0.82496  0.10559  1.0000
  H   H1887     1.0  0.89389  0.81004  0.09313  1.0000
  H   H1888     1.0  0.88477  0.83411  0.11093  1.0000
  H   H1889     1.0  0.88051  0.83627  0.08408  1.0000
  H   H1890     1.0  0.90005  0.85343  0.05923  1.0000
  H   H1891     1.0  0.91393  0.82833  0.06859  1.0000
  H   H1892     1.0  0.91827  0.86565  0.06792  1.0000
  H   H1893     1.0  0.88705  0.88705  0.08424  1.0000
  H   H1894     1.0  0.90569  0.89869  0.09146  1.0000
  H   H1895     1.0  0.89231  0.88596  0.11070  1.0000
  H   H1896     1.0  0.98774  0.61595  0.28136  1.0000
  C   C1186     1.0  0.91672  0.49598  0.12561  1.0000
  C   C1187     1.0  0.99882  0.50384  0.99605  1.0000
  H   H1897     1.0  0.81955  0.86165  0.01369  1.0000
  H   H1898     1.0  0.98322  0.49003  0.02048  1.0000
  H   H1899     1.0  0.76714  0.83805  0.01893  1.0000
  C   C1188     1.0  0.92465  0.49695  0.09002  1.0000
  H   H1900     1.0  0.81932  0.59112  0.46037  1.0000
  C   C1189     1.0  0.75642  0.70782  0.22606  1.0000
  H   H1901     1.0  0.75712  0.87468  0.09666  1.0000
  C   C1190     1.0  0.98733  0.98201  0.99989  1.0000
  H   H1902     1.0  0.00383  0.64095  0.34019  1.0000
  C   C1191     1.0  0.76349  0.60818  0.19100  1.0000
  H   H1903     1.0  0.99525  0.57288  0.13314  1.0000
  H   H1904     1.0  0.98687  0.96740  0.06953  1.0000
  H   H1905     1.0  0.75889  0.55885  0.22907  1.0000
  H   H1906     1.0  0.77367  0.60734  0.46312  1.0000
  H   H1907     1.0  0.75636  0.77961  0.23514  1.0000
  N   N117      1.0  0.82596  0.62101  0.48347  1.0000
  H   H1908     1.0  0.75720  0.87140  0.26520  1.0000
  C   C1192     1.0  0.78202  0.57442  0.20357  1.0000
  H   H1909     1.0  0.84648  0.63206  0.46647  1.0000
  H   H1910     1.0  0.98300  0.56889  0.17735  1.0000
  C   C1193     1.0  0.75684  0.49790  0.06487  1.0000
  H   H1911     1.0  0.77533  0.84895  0.07465  1.0000
  C   C1194     1.0  0.84254  0.61778  0.47923  1.0000
  H   H1912     1.0  0.84548  0.59542  0.47503  1.0000
  N   N118      1.0  0.75546  0.48976  0.04310  1.0000
  H   H1913     1.0  0.98095  0.59794  0.30416  1.0000
  N   N119      1.0  0.00127  0.59179  0.16185  1.0000
  C   C1195     1.0  0.99104  0.60893  0.29704  1.0000
  H   H1914     1.0  0.81031  0.83698  0.99689  1.0000
  C   C1196     1.0  0.81447  0.90889  0.99141  1.0000
  H   H1915     1.0  0.99563  0.62458  0.13997  1.0000
  C   C1197     1.0  0.77182  0.61085  0.22604  1.0000
  H   H1916     1.0  0.77267  0.62309  0.18587  1.0000
  C   C1198     1.0  0.00384  0.62034  0.15254  1.0000
  H   H1917     1.0  0.00500  0.92580  0.07128  1.0000
  C   C1199     1.0  0.99073  0.48325  0.00807  1.0000
  C   C1200     1.0  0.00262  0.48363  0.28400  1.0000
  H   H1918     1.0  0.00515  0.92447  0.04376  1.0000
  Fe  Fe241     1.0  0.95989  0.94822  0.65183  1.0000
  S   S481      1.0  0.94549  0.93056  0.67834  1.0000
  H   H1919     1.0  0.97228  0.80835  0.56211  1.0000
  Fe  Fe242     1.0  0.96629  0.88717  0.63639  1.0000
  S   S482      1.0  0.95175  0.86643  0.66086  1.0000
  S   S483      1.0  0.97929  0.86093  0.61271  1.0000
  Fe  Fe243     1.0  0.93491  0.90194  0.65497  1.0000
  S   S484      1.0  0.90991  0.89564  0.64594  1.0000
  Fe  Fe244     1.0  0.96380  0.89653  0.68220  1.0000
  S   S485      1.0  0.97118  0.87829  0.71365  1.0000
  S   S486      1.0  0.94877  0.92032  0.62858  1.0000
  S   S487      1.0  0.97900  0.91641  0.65768  1.0000
  Fe  Fe245     1.0  0.78855  0.92865  0.67963  1.0000
  S   S488      1.0  0.78247  0.91455  0.64755  1.0000
  S   S489      1.0  0.77279  0.93190  0.70858  1.0000
  Fe  Fe246     1.0  0.82322  0.92861  0.66870  1.0000
  S   S490      1.0  0.81961  0.91559  0.63614  1.0000
  S   S491      1.0  0.84593  0.93596  0.68454  1.0000
  Fe  Fe247     1.0  0.80018  0.94739  0.63716  1.0000
  H   H1920     1.0  0.80389  0.89043  0.95538  1.0000
  Fe  Fe248     1.0  0.80238  0.88357  0.64853  1.0000
  S   S492      1.0  0.80552  0.83521  0.64217  1.0000
  S   S493      1.0  0.80509  0.96287  0.66897  1.0000
  S   S494      1.0  0.80717  0.89521  0.68135  1.0000
  Fe  Fe249     1.0  0.96317  0.69861  0.58516  1.0000
  S   S495      1.0  0.95149  0.71875  0.55852  1.0000
  S   S496      1.0  0.97314  0.72603  0.61025  1.0000
  Fe  Fe250     1.0  0.95597  0.63725  0.57142  1.0000
  S   S497      1.0  0.94426  0.65418  0.54304  1.0000
  S   S498      1.0  0.95244  0.58871  0.57670  1.0000
  Fe  Fe251     1.0  0.96399  0.68567  0.53961  1.0000
  S   S499      1.0  0.97352  0.69992  0.50775  1.0000
  Fe  Fe252     1.0  0.93303  0.68590  0.56412  1.0000
  S   S500      1.0  0.90822  0.69965  0.56901  1.0000
  S   S501      1.0  0.97657  0.66640  0.56633  1.0000
  S   S502      1.0  0.94391  0.66813  0.59237  1.0000
  Fe  Fe253     1.0  0.78956  0.64737  0.53339  1.0000
  S   S503      1.0  0.77896  0.66285  0.56318  1.0000
  S   S504      1.0  0.78025  0.63310  0.50197  1.0000
  Fe  Fe254     1.0  0.82235  0.65409  0.54996  1.0000
  S   S505      1.0  0.81443  0.66942  0.58098  1.0000
  S   S506      1.0  0.84640  0.64334  0.53807  1.0000
  Fe  Fe255     1.0  0.79637  0.63510  0.57883  1.0000
  S   S507      1.0  0.79022  0.61139  0.60833  1.0000
  Fe  Fe256     1.0  0.79751  0.69666  0.56411  1.0000
  S   S508      1.0  0.79069  0.74286  0.57240  1.0000
  S   S509      1.0  0.80568  0.61733  0.54936  1.0000
  S   S510      1.0  0.80672  0.68371  0.53287  1.0000
  H   H1921     1.0  0.77371  0.57907  0.80704  1.0000
  H   H1922     1.0  0.87572  0.81644  0.65293  1.0000
  H   H1923     1.0  0.87656  0.84606  0.63535  1.0000
  C   C1201     1.0  0.89125  0.68378  0.55993  1.0000
  C   C1202     1.0  0.87708  0.69295  0.56807  1.0000
  C   C1203     1.0  0.86327  0.68066  0.56166  1.0000
  C   C1204     1.0  0.86349  0.65911  0.54693  1.0000
  C   C1205     1.0  0.87766  0.64985  0.53881  1.0000
  C   C1206     1.0  0.89149  0.66212  0.54526  1.0000
  H   H1924     1.0  0.87679  0.70972  0.57941  1.0000
  H   H1925     1.0  0.85245  0.68801  0.56799  1.0000
  H   H1926     1.0  0.87794  0.63328  0.52733  1.0000
  H   H1927     1.0  0.90230  0.65514  0.53870  1.0000
  H   H1928     1.0  0.98689  0.78319  0.64560  1.0000
  C   C1207     1.0  0.92133  0.97511  0.62304  1.0000
  N   N120      1.0  0.97999  0.78550  0.53532  1.0000
  H   H1929     1.0  0.92404  0.57718  0.60612  1.0000
  H   H1930     1.0  0.86894  0.85100  0.66082  1.0000
  C   C1208     1.0  0.80164  0.81033  0.62210  1.0000
  C   C1209     1.0  0.79240  0.81704  0.60544  1.0000
  C   C1210     1.0  0.78932  0.79624  0.59040  1.0000
  C   C1211     1.0  0.79561  0.76854  0.59148  1.0000
  C   C1212     1.0  0.80509  0.76197  0.60795  1.0000
  C   C1213     1.0  0.80792  0.78258  0.62321  1.0000
  H   H1931     1.0  0.80594  0.93466  0.71442  1.0000
  H   H1932     1.0  0.96022  0.79844  0.51842  1.0000
  H   H1933     1.0  0.81021  0.74100  0.60895  1.0000
  H   H1934     1.0  0.81500  0.77688  0.63601  1.0000
  C   C1214     1.0  0.79002  0.51302  0.61142  1.0000
  C   C1215     1.0  0.78918  0.52720  0.59239  1.0000
  C   C1216     1.0  0.78967  0.55728  0.59118  1.0000
  C   C1217     1.0  0.79067  0.57349  0.60906  1.0000
  C   C1218     1.0  0.79144  0.55932  0.62809  1.0000
  C   C1219     1.0  0.79130  0.52923  0.62927  1.0000
  H   H1935     1.0  0.78813  0.51489  0.57851  1.0000
  H   H1936     1.0  0.78895  0.56791  0.57644  1.0000
  H   H1937     1.0  0.79220  0.57164  0.64201  1.0000
  H   H1938     1.0  0.79187  0.51863  0.64402  1.0000
  C   C1220     1.0  0.98817  0.86457  0.72538  1.0000
  N   N121      1.0  0.76863  0.69144  0.62325  1.0000
  C   C1221     1.0  0.98715  0.85346  0.74554  1.0000
  H   H1939     1.0  0.91838  0.58640  0.56981  1.0000
  H   H1940     1.0  0.97628  0.85417  0.75375  1.0000
  C   C1222     1.0  0.96134  0.52172  0.62803  1.0000
  C   C1223     1.0  0.95154  0.51578  0.61184  1.0000
  C   C1224     1.0  0.94905  0.53648  0.59633  1.0000
  C   C1225     1.0  0.95595  0.56372  0.59699  1.0000
  C   C1226     1.0  0.96539  0.56995  0.61347  1.0000
  C   C1227     1.0  0.96816  0.54901  0.62873  1.0000
  H   H1941     1.0  0.98435  0.74048  0.53825  1.0000
  H   H1942     1.0  0.94164  0.53141  0.58376  1.0000
  H   H1943     1.0  0.97081  0.59070  0.61429  1.0000
  H   H1944     1.0  0.97574  0.55399  0.64115  1.0000
  C   C1228     1.0  0.97640  0.82369  0.61049  1.0000
  C   C1229     1.0  0.98813  0.80712  0.60172  1.0000
  C   C1230     1.0  0.98669  0.77728  0.60056  1.0000
  C   C1231     1.0  0.97334  0.76365  0.60770  1.0000
  C   C1232     1.0  0.96145  0.78023  0.61617  1.0000
  C   C1233     1.0  0.96296  0.81020  0.61756  1.0000
  C   C1234     1.0  0.80181  0.87613  0.96886  1.0000
  H   H1945     1.0  0.89333  0.96109  0.63652  1.0000
  H   H1946     1.0  0.95123  0.76981  0.62219  1.0000
  H   H1947     1.0  0.95379  0.82281  0.62418  1.0000
  C   C1235     1.0  0.89247  0.90788  0.65706  1.0000
  C   C1236     1.0  0.89133  0.91762  0.67727  1.0000
  C   C1237     1.0  0.87704  0.92637  0.68545  1.0000
  C   C1238     1.0  0.86379  0.92555  0.67354  1.0000
  C   C1239     1.0  0.86505  0.91660  0.65317  1.0000
  C   C1240     1.0  0.87927  0.90764  0.64504  1.0000
  H   H1948     1.0  0.90137  0.91783  0.68673  1.0000
  H   H1949     1.0  0.87621  0.93341  0.70121  1.0000
  H   H1950     1.0  0.85506  0.91679  0.64364  1.0000
  H   H1951     1.0  0.88010  0.90066  0.62927  1.0000
  C   C1241     1.0  0.76281  0.57975  0.79853  1.0000
  H   H1952     1.0  0.82519  0.95803  0.76169  1.0000
  H   H1953     1.0  0.84377  0.86925  0.64759  1.0000
  C   C1242     1.0  0.85517  0.80909  0.62287  1.0000
  H   H1954     1.0  0.89870  0.56365  0.59310  1.0000
  H   H1955     1.0  0.78199  0.80171  0.57777  1.0000
  S   S511      1.0  0.96610  0.49569  0.64718  1.0000
  C   C1243     1.0  0.82897  0.87152  0.97484  1.0000
  H   H1956     1.0  0.81834  0.92352  0.73448  1.0000
  H   H1957     1.0  0.86161  0.81915  0.60978  1.0000
  H   H1958     1.0  0.84363  0.80317  0.61721  1.0000
  H   H1959     1.0  0.86117  0.78894  0.62698  1.0000
  H   H1960     1.0  0.78958  0.67030  0.63139  1.0000
  H   H1961     1.0  0.97561  0.95868  0.92214  1.0000
  C   C1244     1.0  0.76355  0.71331  0.60837  1.0000
  C   C1245     1.0  0.00422  0.71838  0.50747  1.0000
  H   H1962     1.0  0.76613  0.70679  0.59227  1.0000
  H   H1963     1.0  0.82355  0.57898  0.49682  1.0000
  H   H1964     1.0  0.99861  0.81734  0.59642  1.0000
  C   C1246     1.0  0.82134  0.60176  0.50057  1.0000
  N   N122      1.0  0.81179  0.96789  0.73528  1.0000
  H   H1965     1.0  0.77497  0.49972  0.71108  1.0000
  H   H1966     1.0  0.78742  0.83814  0.60427  1.0000
  H   H1967     1.0  0.79826  0.92976  0.73974  1.0000
  H   H1968     1.0  0.00375  0.78095  0.66074  1.0000
  C   C1247     1.0  0.76596  0.62998  0.79070  1.0000
  N   N123      1.0  0.99822  0.96683  0.90980  1.0000
  C   C1248     1.0  0.86946  0.83581  0.64773  1.0000
  N   N124      1.0  0.75552  0.60823  0.79972  1.0000
  H   H1969     1.0  0.85080  0.79460  0.66263  1.0000
  H   H1970     1.0  0.81031  0.65421  0.49251  1.0000
  H   H1971     1.0  0.99890  0.83289  0.77070  1.0000
  C   C1249     1.0  0.80848  0.93760  0.73089  1.0000
  C   C1250     1.0  0.76075  0.66407  0.61940  1.0000
  H   H1972     1.0  0.81717  0.92412  0.97868  1.0000
  H   H1973     1.0  0.80096  0.85381  0.96321  1.0000
  H   H1974     1.0  0.91538  0.59871  0.62586  1.0000
  H   H1975     1.0  0.91009  0.65199  0.59922  1.0000
  H   H1976     1.0  0.79172  0.70735  0.62390  1.0000
  C   C1251     1.0  0.98766  0.96033  0.92720  1.0000
  C   C1252     1.0  0.98510  0.76045  0.54731  1.0000
  C   C1253     1.0  0.96431  0.78037  0.52802  1.0000
  H   H1977     1.0  0.92924  0.61393  0.60821  1.0000
  C   C1254     1.0  0.99104  0.77966  0.66145  1.0000
  H   H1978     1.0  0.98781  0.75743  0.66594  1.0000
  C   C1255     1.0  0.76801  0.49270  0.72407  1.0000
  H   H1979     1.0  0.00464  0.71140  0.52330  1.0000
  H   H1980     1.0  0.76885  0.68514  0.65590  1.0000
  H   H1981     1.0  0.00081  0.92292  0.90076  1.0000
  C   C1256     1.0  0.99045  0.79580  0.69660  1.0000
  C   C1257     1.0  0.84517  0.81460  0.65739  1.0000
  H   H1982     1.0  0.99068  0.93981  0.93488  1.0000
  H   H1983     1.0  0.76047  0.53526  0.73193  1.0000
  H   H1984     1.0  0.94590  0.49527  0.61122  1.0000
  H   H1985     1.0  0.76871  0.62530  0.77432  1.0000
  S   S512      1.0  0.79754  0.97625  0.60911  1.0000
  C   C1258     1.0  0.99741  0.94401  0.89427  1.0000
  C   C1259     1.0  0.98870  0.82997  0.66878  1.0000
  C   C1260     1.0  0.78532  0.68731  0.62090  1.0000
  H   H1986     1.0  0.97790  0.75720  0.56138  1.0000
  H   H1987     1.0  0.83190  0.88576  0.96159  1.0000
  H   H1988     1.0  0.82907  0.65730  0.50298  1.0000
  H   H1989     1.0  0.96398  0.77638  0.68168  1.0000
  H   H1990     1.0  0.98796  0.77369  0.70211  1.0000
  H   H1991     1.0  0.83830  0.87360  0.98620  1.0000
  C   C1261     1.0  0.75977  0.51285  0.73601  1.0000
  N   N125      1.0  0.98447  0.80086  0.67582  1.0000
  H   H1992     1.0  0.93386  0.97829  0.62483  1.0000
  H   H1993     1.0  0.99617  0.76464  0.59478  1.0000
  H   H1994     1.0  0.76336  0.65608  0.60367  1.0000
  H   H1995     1.0  0.96379  0.76064  0.51852  1.0000
  C   C1262     1.0  0.82271  0.65096  0.48911  1.0000
  H   H1996     1.0  0.82772  0.60665  0.51473  1.0000
  H   H1997     1.0  0.78835  0.68058  0.60508  1.0000
  H   H1998     1.0  0.76950  0.73411  0.61060  1.0000
  H   H1999     1.0  0.92924  0.98160  0.66279  1.0000
  H   H2000     1.0  0.96231  0.81392  0.68713  1.0000
  C   C1263     1.0  0.76503  0.70108  0.64432  1.0000
  H   H2001     1.0  0.82906  0.84909  0.96927  1.0000
  H   H2002     1.0  0.98996  0.77182  0.50664  1.0000
  H   H2003     1.0  0.99173  0.81542  0.55438  1.0000
  H   H2004     1.0  0.00132  0.83309  0.66836  1.0000
  C   C1264     1.0  0.99081  0.71424  0.49638  1.0000
  H   H2005     1.0  0.99716  0.76280  0.55221  1.0000
  H   H2006     1.0  0.77082  0.72173  0.64762  1.0000
  H   H2007     1.0  0.83344  0.80889  0.65248  1.0000
  C   C1265     1.0  0.00001  0.84131  0.75525  1.0000
  N   N126      1.0  0.81398  0.87905  0.98417  1.0000
  H   H2008     1.0  0.84382  0.82893  0.67087  1.0000
  H   H2009     1.0  0.95605  0.77750  0.54108  1.0000
  H   H2010     1.0  0.98371  0.84652  0.67906  1.0000
  H   H2011     1.0  0.96271  0.80181  0.66104  1.0000
  H   H2012     1.0  0.77695  0.63082  0.79904  1.0000
  C   C1266     1.0  0.99043  0.79005  0.51746  1.0000
  H   H2013     1.0  0.98735  0.80954  0.50859  1.0000
  H   H2014     1.0  0.85286  0.86737  0.62260  1.0000
  H   H2015     1.0  0.83477  0.85028  0.62737  1.0000
  C   C1267     1.0  0.96762  0.79809  0.67646  1.0000
  N   N127      1.0  0.85398  0.82863  0.64055  1.0000
  C   C1268     1.0  0.76122  0.95770  0.72201  1.0000
  H   H2016     1.0  0.76267  0.61582  0.83068  1.0000
  H   H2017     1.0  0.80519  0.96381  0.76708  1.0000
  C   C1269     1.0  0.84605  0.85506  0.63425  1.0000
  N   N128      1.0  0.90706  0.60669  0.59545  1.0000
  C   C1270     1.0  0.91317  0.60726  0.57415  1.0000
  C   C1271     1.0  0.89457  0.58542  0.59718  1.0000
  C   C1272     1.0  0.90106  0.63526  0.60082  1.0000
  C   C1273     1.0  0.91942  0.59880  0.60958  1.0000
  H   H2018     1.0  0.92227  0.62373  0.57215  1.0000
  H   H2019     1.0  0.90408  0.61226  0.56298  1.0000
  H   H2020     1.0  0.88973  0.58433  0.61309  1.0000
  H   H2021     1.0  0.88502  0.59085  0.58675  1.0000
  H   H2022     1.0  0.89657  0.63586  0.61688  1.0000
  H   H2023     1.0  0.89158  0.64169  0.59059  1.0000
  H   H2024     1.0  0.84932  0.62336  0.49299  1.0000
  H   H2025     1.0  0.91916  0.95162  0.62298  1.0000
  C   C1274     1.0  0.00239  0.86339  0.71510  1.0000
  H   H2026     1.0  0.98247  0.49091  0.60270  1.0000
  H   H2027     1.0  0.97628  0.83047  0.54003  1.0000
  H   H2028     1.0  0.98449  0.83442  0.65308  1.0000
  C   C1275     1.0  0.98008  0.81109  0.54850  1.0000
  H   H2029     1.0  0.79038  0.88185  0.97556  1.0000
  H   H2030     1.0  0.76534  0.57358  0.78233  1.0000
  H   H2031     1.0  0.80892  0.60381  0.50435  1.0000
  H   H2032     1.0  0.98519  0.81071  0.70795  1.0000
  C   C1276     1.0  0.91699  0.97720  0.65968  1.0000
  H   H2033     1.0  0.76076  0.65169  0.79137  1.0000
  H   H2034     1.0  0.91546  0.95361  0.66016  1.0000
  H   H2035     1.0  0.98566  0.94186  0.88822  1.0000
  H   H2036     1.0  0.76453  0.64697  0.63017  1.0000
  C   C1277     1.0  0.81508  0.97101  0.75730  1.0000
  H   H2037     1.0  0.97409  0.48825  0.57793  1.0000
  H   H2038     1.0  0.00355  0.87215  0.69976  1.0000
  C   C1278     1.0  0.76352  0.61518  0.49296  1.0000
  H   H2039     1.0  0.00189  0.76617  0.86907  1.0000
  H   H2040     1.0  0.75570  0.92839  0.74675  1.0000
  H   H2041     1.0  0.78811  0.97927  0.73954  1.0000
  H   H2042     1.0  0.83547  0.96401  0.72594  1.0000
  H   H2043     1.0  0.98809  0.97729  0.93912  1.0000
  C   C1279     1.0  0.00228  0.94527  0.98319  1.0000
  C   C1280     1.0  0.82520  0.97733  0.72281  1.0000
  H   H2044     1.0  0.82303  0.97541  0.70610  1.0000
  H   H2045     1.0  0.00255  0.79227  0.52218  1.0000
  H   H2046     1.0  0.00307  0.79905  0.69701  1.0000
  H   H2047     1.0  0.00485  0.92288  0.98091  1.0000
  H   H2048     1.0  0.99434  0.48284  0.58077  1.0000
