data_image0
_chemical_formula_structural       FeS2FeS2FeSFeS3FeS2FeS2FeSFeS3FeS2FeS2FeSFeS3FeS2FeS2FeSFeS3FeS2FeS2FeSFeS3FeS2FeS2FeSFeS3FeS2FeS2FeSFeS3FeS2FeS2FeSFeS3C6H4C6H4C6H4C6H4C6H4C6H4C6H4C6H4C6H4C6H4C6H4C6H4C6H4C6H4C6H4C6H4FeS2FeS2FeSFeS3FeS2FeS2FeSFeS3FeS2FeS2FeSFeS3FeS2FeS2FeSFeS3FeS2FeS2FeSFeS3FeS2FeS2FeSFeS3FeS2FeS2FeSFeS3FeS2FeS2FeSFeS3C6H4C6H4C6H4C6H4C6H4C6H4C6H4C6H4C6H4C6H4C6H4C6H4C6H4C6H4C6H4C6H4NC4H12NC4H12NC4H12NC4H12NC4H12NC4H12NC4H12NC4H12NC4H12NC4H12NC4H12NC4H12NC4H12NC4H12NC4H12NC4H12NC4H12NC4H12NC4H12NC4H12NC4H12NC4H12NC4H12NC4H12NC4H12NC4H12NC4H12NC4H12NC4H12NC4H12NC4H12NC4H12
_chemical_formula_sum              "Fe64 S128 C320 H512 N32"
_cell_length_a       29.192942267382332
_cell_length_b       32.836187978912506
_cell_length_c       35.08017648274839
_cell_angle_alpha    90.11564887005488
_cell_angle_beta     89.91484717372595
_cell_angle_gamma    89.73942096973732

_space_group_name_H-M_alt    "P 1"
_space_group_IT_number       1

loop_
  _space_group_symop_operation_xyz
  'x, y, z'

loop_
  _atom_site_type_symbol
  _atom_site_label
  _atom_site_symmetry_multiplicity
  _atom_site_fract_x
  _atom_site_fract_y
  _atom_site_fract_z
  _atom_site_occupancy
  Fe  Fe1       1.0  0.7178571519934234  0.25224239385258107  0.5597954113482257  1.0000
  S   S1        1.0  0.6418256469028876  0.24336959725357032  0.562735127564743  1.0000
  S   S2        1.0  0.7695581511526993  0.20213541166805069  0.5516273787093944  1.0000
  Fe  Fe2       1.0  0.7116872710287802  0.3441625494198618  0.5614302136630958  1.0000
  S   S3        1.0  0.6349486793008214  0.343798876550304  0.5640526830509317  1.0000
  S   S4        1.0  0.7544549827820378  0.4013030529376941  0.565237681757239  1.0000
  Fe  Fe3       1.0  0.6436303181916713  0.2933296694424503  0.6065479972557869  1.0000
  S   S5        1.0  0.595652723978646  0.2954744738934036  0.6569465991121889  1.0000
  Fe  Fe4       1.0  0.6390879257570565  0.29407877307619124  0.5202117255238514  1.0000
  S   S6        1.0  0.5889940817131404  0.29023598266925776  0.4716807877216463  1.0000
  S   S7        1.0  0.720414025984237  0.2975453893677334  0.6076529420470352  1.0000
  S   S8        1.0  0.7150827283682968  0.2989782046547909  0.5133992723460726  1.0000
  Fe  Fe5       1.0  0.7259080393751927  0.9930832386210874  0.5999996570453375  1.0000
  S   S9        1.0  0.6659543210026757  0.9916538788568158  0.5605869837691378  1.0000
  S   S10       1.0  0.7220523669729761  0.04328058916210087  0.6431471365082846  1.0000
  Fe  Fe6       1.0  0.7656138313727948  0.91492677308372  0.5684057045492029  1.0000
  S   S11       1.0  0.7085408575956038  0.9064205483294788  0.526657437396809  1.0000
  S   S12       1.0  0.8219138071081198  0.8681276832492684  0.5704246245131454  1.0000
  Fe  Fe7       1.0  0.7165042899363463  0.9731245571829115  0.5159972450208371  1.0000
  S   S13       1.0  0.7089462935245885  0.9949794355009847  0.455886756953813  1.0000
  Fe  Fe8       1.0  0.663111808480668  0.9254558829110456  0.5748483733726084  1.0000
  S   S14       1.0  0.5937131170515844  0.8984128279321538  0.5845691577784288  1.0000
  S   S15       1.0  0.7777511628881767  0.9807363465040414  0.5538474423499276  1.0000
  S   S16       1.0  0.719313486717147  0.9280798182528593  0.6181238405953712  1.0000
  Fe  Fe9       1.0  0.35907519590783543  0.7217974452872222  0.11011859065186647  1.0000
  S   S17       1.0  0.190265155930364  0.5989809843882542  0.5998643060802793  1.0000
  S   S18       1.0  0.16214530043867084  0.6690814125928722  0.6844853475599203  1.0000
  Fe  Fe10      1.0  0.4523713359171553  0.6941875389008813  0.08311122390801229  1.0000
  S   S19       1.0  0.4245934426123234  0.6630318572116546  0.03158416693605015  1.0000
  S   S20       1.0  0.5276090232805073  0.6913484943543872  0.09435710421137844  1.0000
  Fe  Fe11      1.0  0.2318681463041881  0.6312095311692093  0.5556200889595952  1.0000
  S   S21       1.0  0.2046104413071918  0.629900551650429  0.4956200412465385  1.0000
  Fe  Fe12      1.0  0.36903462584769836  0.6409527715149144  0.0699631620899317  1.0000
  S   S22       1.0  0.3434222962717354  0.5768666671906263  0.0713017239367486  1.0000
  S   S23       1.0  0.24588521678318132  0.6857138244917866  0.592790163265366  1.0000
  S   S24       1.0  0.40122181820530095  0.6666512378357827  0.12268485916360762  1.0000
  Fe  Fe13      1.0  0.8136549210504735  0.6678362517734937  0.6367538136193626  1.0000
  S   S25       1.0  0.8127608190296105  0.6202347530183152  0.6821740767063055  1.0000
  S   S26       1.0  0.7499880744339442  0.6931122853024737  0.6104379203390872  1.0000
  Fe  Fe14      1.0  0.07839513011975008  0.7373032774375122  0.1653644426526584  1.0000
  S   S27       1.0  0.09822734822089108  0.6727581961372734  0.17781760851886816  1.0000
  S   S28       1.0  0.11648547131988907  0.7754104749495662  0.12333390318643578  1.0000
  Fe  Fe15      1.0  0.8755817578939501  0.5959933077268639  0.6530362874906208  1.0000
  S   S29       1.0  0.885965139244632  0.5291087265484397  0.6438470419775618  1.0000
  Fe  Fe16      1.0  0.08058383494627819  0.6885139612019437  0.23824187866975455  1.0000
  S   S30       1.0  0.12665358738852772  0.6618191821938759  0.2830789491467845  1.0000
  S   S31       1.0  0.8713693254326155  0.6393992490735311  0.604009271954699  1.0000
  S   S32       1.0  0.06755060684902148  0.7548138249350776  0.22643169728739718  1.0000
  Fe  Fe17      1.0  0.3953387370561491  0.5139861345503388  0.2656862422915628  1.0000
  S   S33       1.0  0.3470235599342889  0.4614885665468659  0.26148350439104767  1.0000
  S   S34       1.0  0.4468390140855554  0.5299241358786503  0.22114868043893776  1.0000
  Fe  Fe18      1.0  0.3599193372510623  0.5407488299980866  0.3425477610503972  1.0000
  S   S35       1.0  0.3087602662253483  0.4902314635864443  0.345902928611743  1.0000
  S   S36       1.0  0.3720784173340016  0.587812888521275  0.38761325915574524  1.0000
  Fe  Fe19      1.0  0.36542641789581953  0.4508721620323723  0.32260189641855763  1.0000
  S   S37       1.0  0.3781681987214187  0.38713771869274766  0.3436531316027959  1.0000
  Fe  Fe20      1.0  0.2953059853738791  0.5057267252100167  0.2845548347308935  1.0000
  S   S38       1.0  0.22486984033520208  0.5076743173685991  0.25931566688390334  1.0000
  S   S39       1.0  0.41820255068206363  0.5000251950785284  0.3250301024647793  1.0000
  S   S40       1.0  0.34192181693937845  0.559513676882133  0.28308861524792867  1.0000
  Fe  Fe21      1.0  0.9730365236983761  0.4401390947119346  0.4485242712542043  1.0000
  S   S41       1.0  0.9758243479978146  0.5006201012861725  0.4780177261969924  1.0000
  S   S42       1.0  0.9118932857647716  0.3992783529998381  0.44236613546421744  1.0000
  Fe  Fe22      1.0  0.07035600820489929  0.44558520433634097  0.42066687326172864  1.0000
  S   S43       1.0  0.0830191129581821  0.5066193061576245  0.4471039378013449  1.0000
  S   S44       1.0  0.12204229162805325  0.411313635130557  0.38616653867450085  1.0000
  Fe  Fe23      1.0  0.045655026973183244  0.48055348602842146  0.4970052092849243  1.0000
  S   S45       1.0  0.07038441446177424  0.49843385288772507  0.5548512945777947  1.0000
  Fe  Fe24      1.0  0.012892879864816464  0.5221515396012172  0.42590532125244374  1.0000
  S   S46       1.0  0.9936660236492372  0.5838225268298647  0.40373126129376813  1.0000
  S   S47       1.0  0.0395453473036631  0.41760730788921396  0.47284872834291386  1.0000
  S   S48       1.0  0.0036637376797163945  0.4635929507098088  0.39416272381979156  1.0000
  Fe  Fe25      1.0  0.5734458650770523  0.15236328486840153  0.21103679731325053  1.0000
  S   S49       1.0  0.5015828951205699  0.17642711426541252  0.20935457428955997  1.0000
  S   S50       1.0  0.6011477286722213  0.13414107786211663  0.1537795925271702  1.0000
  Fe  Fe26      1.0  0.5805789039601614  0.16320653728979637  0.29686454504099996  1.0000
  S   S51       1.0  0.5095979549937484  0.18890798995376112  0.3018622151102164  1.0000
  S   S52       1.0  0.6249159086075472  0.15320730069499125  0.3486892575859533  1.0000
  Fe  Fe27      1.0  0.4908498674953412  0.13854463721321897  0.2614869976269274  1.0000
  S   S53       1.0  0.4257667512037102  0.10410548856252619  0.27221865971286113  1.0000
  Fe  Fe28      1.0  0.5272838253649339  0.22425736557046758  0.2492849812087347  1.0000
  S   S54       1.0  0.5136436242864034  0.29013443588571974  0.23551779328592654  1.0000
  S   S55       1.0  0.5608079553101252  0.11022894950152781  0.25997644053897534  1.0000
  S   S56       1.0  0.6004140017175259  0.2029820306765482  0.24745416996658062  1.0000
  Fe  Fe29      1.0  0.547026317292017  0.8783177149000974  0.33369147139200944  1.0000
  S   S57       1.0  0.493079017190814  0.8394092042195761  0.30696931846146397  1.0000
  S   S58       1.0  0.5433151813010672  0.8914157077266529  0.39618411186340735  1.0000
  Fe  Fe30      1.0  0.5944988585361834  0.894849473079597  0.2583991688462751  1.0000
  S   S59       1.0  0.5444341606328307  0.8573087495021157  0.22510302899724477  1.0000
  S   S60       1.0  0.6544412673183163  0.9261912538024691  0.23143777039565444  1.0000
  Fe  Fe31      1.0  0.49190179153036606  0.8878887631980795  0.26206803248222044  1.0000
  S   S61       1.0  0.42579664464376793  0.9142688493467034  0.2412370703151778  1.0000
  Fe  Fe32      1.0  0.5512739781753927  0.813065385127346  0.27319426490908516  1.0000
  S   S62       1.0  0.5646309677122128  0.7466203050580449  0.263391004270372  1.0000
  S   S63       1.0  0.5413768242518616  0.9289565102292948  0.29157691117376267  1.0000
  S   S64       1.0  0.6057795736711209  0.8479984136711597  0.3038346370030809  1.0000
  C   C1        1.0  0.4261618541128696  0.05178080699771769  0.26130290150924607  1.0000
  C   C2        1.0  0.4656434018047401  0.03225696658674604  0.24761366477850763  1.0000
  C   C3        1.0  0.4656097520053292  0.9900231598980396  0.2411029752904057  1.0000
  C   C4        1.0  0.42589089692708504  0.9673301888828293  0.24775904545225783  1.0000
  C   C5        1.0  0.3860606531065907  0.9870459341241574  0.26027090765082184  1.0000
  C   C6        1.0  0.3863457514233556  0.02908953799685099  0.2673968691565754  1.0000
  H   H1        1.0  0.4960860717575957  0.049591462337123415  0.24173876679077788  1.0000
  H   H2        1.0  0.4961035326931066  0.975168583340439  0.2302527106079134  1.0000
  H   H3        1.0  0.35525334997573155  0.9696793347509254  0.2653824033170777  1.0000
  H   H4        1.0  0.35567112472302487  0.044038840428343606  0.27782780231711224  1.0000
  C   C7        1.0  0.4140552621881675  0.3596978102542153  0.3125282943814705  1.0000
  C   C8        1.0  0.43543484264718474  0.37916124201246676  0.2819337222257626  1.0000
  C   C9        1.0  0.46467052617235  0.35714318137241763  0.2576242708783816  1.0000
  C   C10       1.0  0.47305587023713663  0.31568442197822855  0.26401873604582304  1.0000
  C   C11       1.0  0.45102652307132624  0.29602347775376353  0.2942326401606086  1.0000
  C   C12       1.0  0.4215632695768635  0.3180178251789573  0.3184616631232001  1.0000
  H   H5        1.0  0.43012528033701924  0.41136895762034353  0.27725824214754197  1.0000
  H   H6        1.0  0.481621009757958  0.37255402586463215  0.2343195227829058  1.0000
  H   H7        1.0  0.4569203784590476  0.2639915359116854  0.29916049598562383  1.0000
  H   H8        1.0  0.40497397438413585  0.3027865508444732  0.3420279691091821  1.0000
  C   C13       1.0  0.18909860284731628  0.4861176758101253  0.29354422769702215  1.0000
  C   C14       1.0  0.16104833907051652  0.45338464888769653  0.2836182563280611  1.0000
  C   C15       1.0  0.13846474233434147  0.43143123332098343  0.3121586092501682  1.0000
  C   C16       1.0  0.143068992871058  0.4429592207692308  0.35037762263158206  1.0000
  C   C17       1.0  0.1683486627448021  0.47753415599174026  0.35996623982729387  1.0000
  C   C18       1.0  0.1917898567257799  0.4989007983052306  0.3315233436424715  1.0000
  H   H9        1.0  0.1589357953780954  0.4436079088505139  0.2541932126441668  1.0000
  H   H10       1.0  0.11857606890681627  0.4048154272535073  0.3048027793420746  1.0000
  H   H11       1.0  0.1717333028050927  0.4866376675816642  0.38946215732773726  1.0000
  H   H12       1.0  0.21284091282164766  0.5247340844059138  0.33909219457130924  1.0000
  C   C19       1.0  0.09284465253371366  0.6435673697495538  0.3206647018983512  1.0000
  C   C20       1.0  0.10756965581547151  0.6101244800001417  0.34226893538470476  1.0000
  C   C21       1.0  0.07754513625416926  0.5916446718246898  0.36829759514721383  1.0000
  C   C22       1.0  0.03325920970003682  0.607348735020858  0.37336835468788715  1.0000
  C   C23       1.0  0.01962025311750959  0.6420825484902379  0.3532966556212205  1.0000
  C   C24       1.0  0.049245847379395524  0.6600161206412987  0.3268464960378977  1.0000
  H   H13       1.0  0.14148949486055384  0.5975285598540202  0.33775849587988943  1.0000
  H   H14       1.0  0.08845586241361003  0.5649767707433796  0.38383831490437237  1.0000
  H   H15       1.0  0.985589450063316  0.6545866562526454  0.35742322685656575  1.0000
  H   H16       1.0  0.03813090192840374  0.6864785401835654  0.31099221570587976  1.0000
  C   C25       1.0  0.9378507329731692  0.5203038599335348  0.6200623253737564  1.0000
  C   C26       1.0  0.9743215877656587  0.5475567280667356  0.6238729263695527  1.0000
  C   C27       1.0  0.016022345183525966  0.5397990036374162  0.6053142413506666  1.0000
  C   C28       1.0  0.020609791510877384  0.5055927259398012  0.5817968744478127  1.0000
  C   C29       1.0  0.9840737767826816  0.47851297823465033  0.5777670384364721  1.0000
  C   C30       1.0  0.9430260221858271  0.48544248578059096  0.5975172398037091  1.0000
  H   H17       1.0  0.9706915750043772  0.574486037495364  0.6412458984976431  1.0000
  H   H18       1.0  0.04412321209489667  0.5609694195329707  0.6081673260477344  1.0000
  H   H19       1.0  0.9875143785766927  0.45214219905932573  0.5594026569193769  1.0000
  H   H20       1.0  0.9150104721269431  0.4642389964488569  0.5946338703971683  1.0000
  C   C31       1.0  0.25021510750469744  0.6205885221073276  0.4639124132180561  1.0000
  C   C32       1.0  0.2948231074174692  0.6309047630856084  0.4744270989347581  1.0000
  C   C33       1.0  0.331779372912106  0.6210972243373214  0.450541814059572  1.0000
  C   C34       1.0  0.3245008626532267  0.60046674119027  0.4161625984494713  1.0000
  C   C35       1.0  0.27976406696663464  0.5904428511793545  0.4052591034355578  1.0000
  C   C36       1.0  0.2425436846156749  0.600973662503234  0.42894936777783055  1.0000
  H   H21       1.0  0.30093882408983474  0.6470742485274449  0.5007940413389412  1.0000
  H   H22       1.0  0.36620364092987323  0.6292954473694221  0.45890895805075094  1.0000
  H   H23       1.0  0.2738397594064556  0.5750640740513467  0.3784421148074287  1.0000
  H   H24       1.0  0.20801115890195943  0.5933242830011697  0.42046071956951103  1.0000
  C   C37       1.0  0.3742152503208617  0.556284465663334  0.10936790702002219  1.0000
  C   C38       1.0  0.3516136863786778  0.5342472093571493  0.13770268465231061  1.0000
  C   C39       1.0  0.37413886692503123  0.5253788761944749  0.17198575495629922  1.0000
  C   C40       1.0  0.41971041600108605  0.5372302742525426  0.1772600758905765  1.0000
  C   C41       1.0  0.44298727979457614  0.5573012369339694  0.14804521981984411  1.0000
  C   C42       1.0  0.4201188162717799  0.5671220283274993  0.1142338188480223  1.0000
  H   H25       1.0  0.31613256139037427  0.5258156057890674  0.13397569498550088  1.0000
  H   H26       1.0  0.3559710034227749  0.509911631270888  0.1944402990147681  1.0000
  H   H27       1.0  0.47820116448598515  0.5665415504320175  0.15202357437011876  1.0000
  H   H28       1.0  0.43770149591612467  0.5841892378773631  0.09233300707539827  1.0000
  C   C43       1.0  0.554702095096127  0.7327164395952361  0.21602067383784238  1.0000
  C   C44       1.0  0.519551781872705  0.7511057936881451  0.19504224875508488  1.0000
  C   C45       1.0  0.5108189235800495  0.7382394451702973  0.15759251407247354  1.0000
  C   C46       1.0  0.5384014245965203  0.7081549417509659  0.14077123932564417  1.0000
  C   C47       1.0  0.5741841635830582  0.6905441977841736  0.16150279957466518  1.0000
  C   C48       1.0  0.5817083452064331  0.7022058914006579  0.19936162352855766  1.0000
  H   H29       1.0  0.4983615627359179  0.77445418234608  0.20799855594695613  1.0000
  H   H30       1.0  0.4830821525526366  0.7518380073295792  0.14160395941190007  1.0000
  H   H31       1.0  0.5951933473723214  0.6669827624730362  0.14863875600307797  1.0000
  H   H32       1.0  0.6085548299735914  0.6876066687136007  0.21569737815885853  1.0000
  C   C49       1.0  0.2677429024802461  0.7605897915051856  0.15118418546581844  1.0000
  C   C50       1.0  0.07000131882348404  0.6828983593210877  0.6863880210666385  1.0000
  C   C51       1.0  0.02763160757128791  0.6924356367504362  0.6698589449047921  1.0000
  C   C52       1.0  0.17480210031884358  0.771997429845488  0.13433091759771743  1.0000
  C   C53       1.0  0.20746986448378468  0.7733182662035213  0.10516546280503047  1.0000
  C   C54       1.0  0.2539064273022437  0.7671058399359204  0.11353244614217184  1.0000
  H   H33       1.0  0.07180158664488356  0.6747333105953234  0.7162157221485811  1.0000
  H   H34       1.0  0.9969945127742031  0.6922190406933443  0.6871326952534976  1.0000
  H   H35       1.0  0.1966815321272286  0.7777415824968802  0.07595341206731265  1.0000
  H   H36       1.0  0.27881525584815636  0.7671994268361136  0.09073477780934769  1.0000
  C   C55       1.0  0.6612891834683404  0.9695010832205558  0.43759052561034106  1.0000
  C   C56       1.0  0.6251397210391328  0.9595949632128677  0.4619887403667923  1.0000
  C   C57       1.0  0.5880626103107276  0.9370838688722699  0.4484958421447287  1.0000
  C   C58       1.0  0.5876229646293392  0.9232815889666365  0.4108601991951711  1.0000
  C   C59       1.0  0.6230258080315587  0.934065662646859  0.3859431920428495  1.0000
  C   C60       1.0  0.6597422839614008  0.9576272576780014  0.39926701151669003  1.0000
  H   H37       1.0  0.625647902449482  0.9690834237434405  0.49138740453949137  1.0000
  H   H38       1.0  0.5600290884001249  0.9298060871756201  0.46744698540204427  1.0000
  H   H39       1.0  0.622709337521312  0.9235653212063232  0.3566945213361246  1.0000
  H   H40       1.0  0.6877418934667853  0.9651863218143856  0.38032086763757106  1.0000
  C   C61       1.0  0.5947429216907223  0.8566874014304291  0.6155436057059939  1.0000
  C   C62       1.0  0.6362230130091571  0.8419213269125166  0.6298600074853017  1.0000
  C   C63       1.0  0.609047903180051  0.9181091712158362  0.16351916182461546  1.0000
  C   C64       1.0  0.6509929678537941  0.9247410912933981  0.1816455426615986  1.0000
  C   C65       1.0  0.6912220801171249  0.9263281544769875  0.1600415647325835  1.0000
  C   C66       1.0  0.5535872533644046  0.8387749594768124  0.6268596619319351  1.0000
  H   H41       1.0  0.6679710951221269  0.855528074839591  0.621166801728735  1.0000
  H   H42       1.0  0.5776038387176925  0.9194451143827946  0.1796581504120181  1.0000
  H   H43       1.0  0.7235843814318181  0.9323892835258009  0.17389018810844944  1.0000
  H   H44       1.0  0.5213496327504613  0.8499774485724805  0.6157385650462124  1.0000
  C   C67       1.0  0.7994280041971679  0.8188909450237923  0.5756550679180402  1.0000
  C   C68       1.0  0.8288254600377514  0.7852357380305351  0.5737011745313213  1.0000
  C   C69       1.0  0.8128455607755962  0.7464179012234342  0.5828689016698361  1.0000
  C   C70       1.0  0.7670637355858188  0.7407614594552894  0.5931740755089367  1.0000
  C   C71       1.0  0.7366801783938834  0.773884317898283  0.5926515111707162  1.0000
  C   C72       1.0  0.7530062794292682  0.8130401256922217  0.5839914225923419  1.0000
  H   H45       1.0  0.8642478476760637  0.7890463503954718  0.5658295922026495  1.0000
  H   H46       1.0  0.8362953769235364  0.7208898132235305  0.5823361088620588  1.0000
  H   H47       1.0  0.7011810035464706  0.7695971205329366  0.600508863950373  1.0000
  H   H48       1.0  0.7301437835650044  0.8388787016596848  0.5848042899669784  1.0000
  C   C73       1.0  0.6063454896573769  0.26181871568314646  0.6948347000137485  1.0000
  C   C74       1.0  0.6468508011194294  0.2389466471926018  0.6970831727711737  1.0000
  C   C75       1.0  0.6894068869015931  0.15100581890503545  0.17585267119167552  1.0000
  C   C76       1.0  0.658426673848405  0.14699266721328114  0.1457398489840802  1.0000
  C   C77       1.0  0.6732465347667977  0.15288178574198028  0.10826595668359484  1.0000
  C   C78       1.0  0.7188705545800489  0.1629678968865  0.10084422145853433  1.0000
  H   H49       1.0  0.6722165373248429  0.2410779311170355  0.6746760800225667  1.0000
  H   H50       1.0  0.6859353906707013  0.1958314027054061  0.730461310741243  1.0000
  H   H51       1.0  0.6494162888441191  0.149789325806663  0.08487360978144953  1.0000
  H   H52       1.0  0.7293860120011195  0.1684089838149104  0.07205212174700626  1.0000
  C   C79       1.0  0.599233473976667  0.24955329866160125  0.4403016452105031  1.0000
  C   C80       1.0  0.6438873593781659  0.23627326206995986  0.43255928602179167  1.0000
  C   C81       1.0  0.6516443584041991  0.20634110073348286  0.4045974393830191  1.0000
  C   C82       1.0  0.6147942685920306  0.18966315917842566  0.3844139378436065  1.0000
  C   C83       1.0  0.5701127586469195  0.20198448592069085  0.3931416822955412  1.0000
  C   C84       1.0  0.5623723073142111  0.2320045094444907  0.4208962188461031  1.0000
  H   H53       1.0  0.6725160041904713  0.24993474687400657  0.44726210500849956  1.0000
  H   H54       1.0  0.6862986544025919  0.1969186779543867  0.397864237291738  1.0000
  H   H55       1.0  0.541410423971314  0.1883317130611856  0.3786628245200733  1.0000
  H   H56       1.0  0.5277158882178699  0.2417711464218785  0.427226758288295  1.0000
  C   C85       1.0  0.7970273159570382  0.4039694206416492  0.5300527222568862  1.0000
  C   C86       1.0  0.7894566632225969  0.38748297059944947  0.49391246396452104  1.0000
  C   C87       1.0  0.8246361145227729  0.3874914223775627  0.4667305129832903  1.0000
  C   C88       1.0  0.8671560925270504  0.4047556780795051  0.47528641117805515  1.0000
  C   C89       1.0  0.8741571233104473  0.42303746155611016  0.5108399085637971  1.0000
  C   C90       1.0  0.8391259826058487  0.42233607492636893  0.5383314279516644  1.0000
  H   H57       1.0  0.7566182628622021  0.3743730761290963  0.4869674269820423  1.0000
  H   H58       1.0  0.8190692675499365  0.37367222250544707  0.4390858681479283  1.0000
  H   H59       1.0  0.9070795775414119  0.4361880821191226  0.5176316428711617  1.0000
  H   H60       1.0  0.8451810173482289  0.4348054078790063  0.5664011608158214  1.0000
  C   C91       1.0  0.7593998538648126  0.15997124977371216  0.5808738160920197  1.0000
  C   C92       1.0  0.7230223678583866  0.1599918819341375  0.6068764216883653  1.0000
  C   C93       1.0  0.712849988549444  0.12453596989691396  0.6274645408383153  1.0000
  C   C94       1.0  0.7384577692410029  0.08892531884960997  0.6214116229856039  1.0000
  C   C95       1.0  0.7755037280221806  0.08928956956704215  0.5961127196500783  1.0000
  C   C96       1.0  0.7864202204326979  0.1249800719217572  0.5763185079971755  1.0000
  H   H61       1.0  0.7024281877721188  0.18712643254257286  0.6109286917745708  1.0000
  H   H62       1.0  0.6843360402465255  0.12442035476851565  0.6472267542402941  1.0000
  H   H63       1.0  0.7956966339260366  0.061990778451143314  0.5917382144966234  1.0000
  H   H64       1.0  0.8147605548923532  0.12495354974554972  0.5564102057125451  1.0000
  Fe  Fe33      1.0  0.8463981918258802  0.1396659954584582  0.9843783092732915  1.0000
  S   S65       1.0  0.7838490177096252  0.16657302974960603  0.010976032274262026  1.0000
  S   S66       1.0  0.8329114392613213  0.08204600899709658  0.951639563971254  1.0000
  Fe  Fe34      1.0  0.9057027237165273  0.21127534850953933  0.007482929833674934  1.0000
  S   S67       1.0  0.8482045617624012  0.24424764757138098  0.036956328316151144  1.0000
  S   S68       1.0  0.9748405616133303  0.23871602850922308  0.9966119340651416  1.0000
  Fe  Fe35      1.0  0.8296806368460578  0.18260979320044826  0.05982963694924992  1.0000
  S   S69       1.0  0.8089897029954856  0.17359663530923328  0.12124990349343268  1.0000
  Fe  Fe36      1.0  0.8071595917258761  0.22568181849839214  0.9862975406907628  1.0000
  S   S70       1.0  0.7623738686389233  0.2701518532762094  0.9554159436252536  1.0000
  S   S71       1.0  0.8914696345782404  0.15087224947525876  0.035130377862591766  1.0000
  S   S72       1.0  0.8655654696727354  0.19741777289226334  0.9546900652453156  1.0000
  Fe  Fe37      1.0  0.8168763886498206  0.8740557690885556  0.032293953856317836  1.0000
  S   S73       1.0  0.7556128113633794  0.882790653655268  0.9945388111014546  1.0000
  S   S74       1.0  0.8708249299882946  0.9208056354615607  0.044801738880331676  1.0000
  Fe  Fe38      1.0  0.7858377314114625  0.7915456753023611  0.060179696881208056  1.0000
  S   S75       1.0  0.7215197403223479  0.7929012494230284  0.02600917691856308  1.0000
  S   S76       1.0  0.8021834191869202  0.7353226339323615  0.09369385184936108  1.0000
  Fe  Fe39      1.0  0.766227821219144  0.8171282772988192  0.9793455280882106  1.0000
  S   S77       1.0  0.7558876162289266  0.794302784233871  0.919716546629742  1.0000
  Fe  Fe40      1.0  0.7159283962245996  0.858353944437342  0.043699974306888434  1.0000
  S   S78       1.0  0.6482663108272452  0.8877677789904822  0.057034837609027944  1.0000
  S   S79       1.0  0.8317726046544313  0.8104090265899068  0.012193535973776815  1.0000
  S   S80       1.0  0.7761120794749498  0.8545517011052923  0.08311686387449013  1.0000
  Fe  Fe41      1.0  0.21098953274581525  0.6496784582531043  0.6387068564568817  1.0000
  S   S81       1.0  0.3221849680195897  0.6939819007325979  0.060424148014635026  1.0000
  S   S82       1.0  0.32490957750807636  0.7488362707879113  0.16149755595675686  1.0000
  Fe  Fe42      1.0  0.30843676264355646  0.6502563454966368  0.6104330954756557  1.0000
  S   S83       1.0  0.29720000921484896  0.598241474942909  0.5697279890497585  1.0000
  S   S84       1.0  0.3775062581905152  0.6784697441510621  0.6195909056514203  1.0000
  Fe  Fe43      1.0  0.3806669589340945  0.7188785719229522  0.026137340912288476  1.0000
  S   S85       1.0  0.3755349629177465  0.7482947166842471  0.9687527931994768  1.0000
  Fe  Fe44      1.0  0.25658415779140675  0.570681207703561  0.6170345097186186  1.0000
  S   S86       1.0  0.25734053319688677  0.5057465672890302  0.635749059121404  1.0000
  S   S87       1.0  0.41326077915575826  0.7521988318154987  0.07497852778550218  1.0000
  S   S88       1.0  0.2746181519776281  0.6188949683065867  0.6593294481999027  1.0000
  Fe  Fe45      1.0  0.9952926205723492  0.734905611357368  0.21572992952853842  1.0000
  S   S89       1.0  0.006834404036720532  0.6700898666858369  0.23335906911277848  1.0000
  S   S90       1.0  0.934592097083758  0.7739692738771216  0.22985647542366827  1.0000
  Fe  Fe46      1.0  0.9159862958761963  0.6793096465637999  0.6399618570993503  1.0000
  S   S91       1.0  0.9252183697906329  0.6332649046558955  0.6865151643899504  1.0000
  S   S92       1.0  0.972244455314273  0.712983671591314  0.6099277817106106  1.0000
  Fe  Fe47      1.0  0.023647996789635695  0.6595975263547851  0.171964482662877  1.0000
  S   S93       1.0  0.9996114021691144  0.6027703498432117  0.1434889331668312  1.0000
  Fe  Fe48      1.0  0.8622159292454227  0.6611877646457618  0.7120929113765965  1.0000
  S   S94       1.0  0.8585312588822059  0.6719482536109964  0.7749825493006891  1.0000
  S   S95       1.0  0.005267620182807686  0.7225465123265595  0.15345269555265073  1.0000
  S   S96       1.0  0.857907361097054  0.7113787339541978  0.6691540705252372  1.0000
  Fe  Fe49      1.0  0.41678741016563337  0.5112587416146012  0.7854961345909653  1.0000
  S   S97       1.0  0.3583336062076864  0.4820624657816309  0.8163504453381742  1.0000
  S   S98       1.0  0.4413623758509093  0.49493416511458477  0.7272444007022083  1.0000
  Fe  Fe50      1.0  0.43709981072068305  0.5710004495041561  0.8481818329830687  1.0000
  S   S99       1.0  0.38202014609859053  0.5464530419964693  0.8859873193256781  1.0000
  S   S100      1.0  0.478034607474279  0.6278092067639396  0.8571196701624082  1.0000
  Fe  Fe51      1.0  0.4059133558951373  0.48494493077637985  0.8664015113253831  1.0000
  S   S101      1.0  0.413172888403614  0.43367543271344794  0.9082073171708458  1.0000
  Fe  Fe52      1.0  0.33892773791919945  0.5456663840203532  0.8335365383682517  1.0000
  S   S102      1.0  0.26981940153787737  0.5752876518288641  0.8387893416294878  1.0000
  S   S103      1.0  0.46613081476699414  0.5095357030587461  0.8339689110971964  1.0000
  S   S104      1.0  0.3921188862436841  0.5746208810812861  0.7969528298616332  1.0000
  Fe  Fe53      1.0  0.9820299425764474  0.4652652086534834  0.9631876403349416  1.0000
  S   S105      1.0  0.9397879315802795  0.5206063973302449  0.9499416228901638  1.0000
  S   S106      1.0  0.9585236522096705  0.4294386591242334  0.013957040846465762  1.0000
  Fe  Fe54      1.0  0.046929457780148676  0.47983918045941854  0.897092870674803  1.0000
  S   S107      1.0  0.010611871458688027  0.5365510155623252  0.8782163280857007  1.0000
  S   S108      1.0  0.10626093172798834  0.4538683382681833  0.8642456325939235  1.0000
  Fe  Fe55      1.0  0.007498141539242997  0.5507943820360243  0.9407660674021762  1.0000
  S   S109      1.0  0.020924756063612993  0.6126650541588373  0.9651731103153044  1.0000
  Fe  Fe56      1.0  0.9466396429698111  0.5008955718014997  0.8893319987227368  1.0000
  S   S110      1.0  0.8862263570453236  0.4992580518670004  0.8500778324751651  1.0000
  S   S111      1.0  0.049660894118903176  0.49702871525201164  0.9589655365160266  1.0000
  S   S112      1.0  0.9830663153846988  0.442663100094074  0.902859796942503  1.0000
  Fe  Fe57      1.0  0.570395426217725  0.1830127459652177  0.8368735122386173  1.0000
  S   S113      1.0  0.5002747023903387  0.16782861763941892  0.8157547349201935  1.0000
  S   S114      1.0  0.6314183156876323  0.17972484100694425  0.797855653127769  1.0000
  Fe  Fe58      1.0  0.5374587357279542  0.20196928510764242  0.9168102718881849  1.0000
  S   S115      1.0  0.4643002617339273  0.18870207073732975  0.9030262036843855  1.0000
  S   S116      1.0  0.558272289039059  0.21746563667538577  0.9768246963410415  1.0000
  Fe  Fe59      1.0  0.492173696573204  0.13491884958760966  0.8710985428600709  1.0000
  S   S117      1.0  0.45225458730537443  0.07664279950256239  0.8725077757275653  1.0000
  Fe  Fe60      1.0  0.4778773253568539  0.22268782759156017  0.8490252020729732  1.0000
  S   S118      1.0  0.4242290636232342  0.2635565042887984  0.8238251224253016  1.0000
  S   S119      1.0  0.5647987784710342  0.1447734314115656  0.8896839644972979  1.0000
  S   S120      1.0  0.5489273310857415  0.24131776293202786  0.8652573976692121  1.0000
  Fe  Fe61      1.0  0.5267633778100909  0.797818656737273  0.8341703636311727  1.0000
  S   S121      1.0  0.4770099797302079  0.84898444085779  0.8256907185343829  1.0000
  S   S122      1.0  0.5434032867356209  0.7787077046510023  0.8934825878593561  1.0000
  Fe  Fe62      1.0  0.5502759088816453  0.7914645909375665  0.7506286937322447  1.0000
  S   S123      1.0  0.5036658034852936  0.843079730013286  0.7345131082778892  1.0000
  S   S124      1.0  0.5949106879304066  0.7599047765604315  0.7077482209072433  1.0000
  Fe  Fe63      1.0  0.5308148767154034  0.874140626251181  0.7866934447862268  1.0000
  S   S125      1.0  0.5615471334215972  0.936835281132836  0.7876939997154361  1.0000
  Fe  Fe64      1.0  0.45455253690073877  0.8126829395917528  0.7746526135500313  1.0000
  S   S126      1.0  0.381335631553977  0.7989955763185379  0.7599992608092333  1.0000
  S   S127      1.0  0.582238806167405  0.8252885790214943  0.7989300344633438  1.0000
  S   S128      1.0  0.499539455628312  0.7587840638351843  0.7870840586583574  1.0000
  C   C97       1.0  0.4821569907605936  0.03766187466302218  0.8487799319515124  1.0000
  C   C98       1.0  0.5261187755087164  0.0447586553898931  0.8345170535127348  1.0000
  C   C99       1.0  0.5501228162084164  0.013541567474702143  0.8158145318524894  1.0000
  C   C100      1.0  0.5301073711365434  0.9752162511497868  0.8109121158885896  1.0000
  C   C101      1.0  0.48606386072006796  0.9680517912337613  0.8250370691282161  1.0000
  C   C102      1.0  0.462160207734122  0.999254233159995  0.8441255084186287  1.0000
  H   H65       1.0  0.5416815542860327  0.07435778901111192  0.8378363542047942  1.0000
  H   H66       1.0  0.5843330628692147  0.019214565643556947  0.8052563822074763  1.0000
  H   H67       1.0  0.47024067528858077  0.9386688016832477  0.8210978636498132  1.0000
  H   H68       1.0  0.42806907612856626  0.9937092987573807  0.8550383478976827  1.0000
  C   C103      1.0  0.415138035744692  0.3858723533883143  0.885475353028081  1.0000
  C   C104      1.0  0.39014777472663453  0.37894071154735126  0.8521092468946823  1.0000
  C   C105      1.0  0.3923265471712451  0.34099629298961204  0.8337989598481925  1.0000
  C   C106      1.0  0.41996150863441783  0.3099153290719758  0.8485125743547837  1.0000
  C   C107      1.0  0.4446866195541619  0.31652906829378535  0.8820831605389087  1.0000
  C   C108      1.0  0.44193560925115943  0.3543858701212441  0.9007252127235922  1.0000
  H   H69       1.0  0.3682031406200304  0.40240977194376937  0.8408436427362233  1.0000
  H   H70       1.0  0.3727308527610551  0.3358224459349133  0.8080986095463818  1.0000
  H   H71       1.0  0.46592238555992627  0.29255186028153923  0.8937662175414557  1.0000
  H   H72       1.0  0.46117875673525305  0.3594622221365441  0.9266378613464653  1.0000
  C   C109      1.0  0.22606467520262452  0.5408900293039424  0.8499726589564169  1.0000
  C   C110      1.0  0.18401510542401045  0.5555235461418773  0.863676896011786  1.0000
  C   C111      1.0  0.1475188006096313  0.5286101250176841  0.8697946827097924  1.0000
  C   C112      1.0  0.15279851944777878  0.4871832386757003  0.8613773793987684  1.0000
  C   C113      1.0  0.19509536690751816  0.47250945294841507  0.848317304931635  1.0000
  C   C114      1.0  0.23180853723719855  0.4992549729131961  0.8430017641657789  1.0000
  H   H73       1.0  0.17942113176673083  0.5877156019474992  0.8692738541168862  1.0000
  H   H74       1.0  0.11501762445946961  0.5400923887684933  0.8801651095778285  1.0000
  H   H75       1.0  0.1992330106738065  0.44045808977783074  0.8418136058130041  1.0000
  H   H76       1.0  0.26389339136127965  0.48771577588031384  0.8321697765678734  1.0000
  C   C115      1.0  0.8631478180841048  0.6247458271907324  0.7980741791736772  1.0000
  C   C116      1.0  0.8909544714736912  0.6205841262443229  0.8303160952434625  1.0000
  C   C117      1.0  0.8974090637875167  0.5821427526377675  0.8469833658532323  1.0000
  C   C118      1.0  0.8752433102909789  0.5480242786718009  0.8318950704095596  1.0000
  C   C119      1.0  0.8459980895736964  0.5525114057050159  0.8006225708300811  1.0000
  C   C120      1.0  0.8404474259574933  0.5907017852454394  0.7834452573541942  1.0000
  H   H77       1.0  0.9085511015775647  0.6468472689258195  0.8417438230437334  1.0000
  H   H78       1.0  0.9196470514862919  0.5789829096260938  0.871425721319026  1.0000
  H   H79       1.0  0.8283501344927265  0.526312940916973  0.7891500293480057  1.0000
  H   H80       1.0  0.8181731382464807  0.5937857497015862  0.7591274618530953  1.0000
  C   C121      1.0  0.009613215238531536  0.6046545581690644  0.09436647495885953  1.0000
  C   C122      1.0  0.997262759064073  0.5715028010006198  0.07164971343980242  1.0000
  C   C123      1.0  0.002668426114345035  0.5733675052794157  0.03205814471112589  1.0000
  C   C124      1.0  0.01965505366773601  0.6086735382500296  0.01497548177846908  1.0000
  C   C125      1.0  0.03288114518154939  0.6416291149210253  0.03774706591050547  1.0000
  C   C126      1.0  0.0282178422824233  0.6394957227352859  0.07751247240758286  1.0000
  H   H81       1.0  0.9831880665055159  0.5443915773458288  0.0846053482919693  1.0000
  H   H82       1.0  0.9927743389812693  0.547617492475654  0.014846653425828915  1.0000
  H   H83       1.0  0.04651192499315315  0.6688243930121173  0.024654910495535365  1.0000
  H   H84       1.0  0.03853492675364323  0.6649598108304906  0.09498530686048134  1.0000
  C   C127      1.0  0.4014527187567177  0.715234691584986  0.9359701114989962  1.0000
  C   C128      1.0  0.4299051198873111  0.7304228189182053  0.9072625487361342  1.0000
  C   C129      1.0  0.4539591315138632  0.7034410901154902  0.8833675024823444  1.0000
  C   C130      1.0  0.4486044838364997  0.6613863391872169  0.887495929216712  1.0000
  C   C131      1.0  0.4197408281476457  0.6463636579906569  0.9159082186832258  1.0000
  C   C132      1.0  0.39596566154213836  0.6731997244343773  0.9399198484626395  1.0000
  H   H85       1.0  0.43477483703845465  0.762952229484306  0.9044063195882187  1.0000
  H   H86       1.0  0.47679374652888235  0.7152552719357171  0.8618029825309081  1.0000
  H   H87       1.0  0.41689679163761134  0.6140879081535985  0.9204099893025455  1.0000
  H   H88       1.0  0.37341406889914114  0.6613295157082076  0.9616762395766866  1.0000
  C   C133      1.0  0.3102469220188403  0.49862150170332076  0.6580665674925052  1.0000
  C   C134      1.0  0.31452580625115945  0.470962362284108  0.6881325541522454  1.0000
  C   C135      1.0  0.35534620704788883  0.46915634771102244  0.7090614906402257  1.0000
  C   C136      1.0  0.39239089593811743  0.4937480964178952  0.6988026825219426  1.0000
  C   C137      1.0  0.3887907225617694  0.5199834215485971  0.6676632719175187  1.0000
  C   C138      1.0  0.34742216237180074  0.5229729632630006  0.6477420541675974  1.0000
  H   H89       1.0  0.2858494828666867  0.45203857597184716  0.6961057957075866  1.0000
  H   H90       1.0  0.3580641811824898  0.44890264064361285  0.7332297856849392  1.0000
  H   H91       1.0  0.41735971595664334  0.5390349871281951  0.659731431751768  1.0000
  H   H92       1.0  0.3443319605318121  0.5443567462162332  0.6245194559508995  1.0000
  C   C139      1.0  0.3790268110193892  0.7685533593590403  0.7188085873737138  1.0000
  C   C140      1.0  0.41851980878101164  0.7618166034246066  0.6970288928547342  1.0000
  C   C141      1.0  0.4173502299887602  0.7353402221651976  0.6656448735101  1.0000
  C   C142      1.0  0.3769466276824012  0.7147407933074383  0.6564300055213873  1.0000
  C   C143      1.0  0.33719247005111774  0.7219780459836823  0.6777823874614841  1.0000
  C   C144      1.0  0.338149189916655  0.7491345843324405  0.7087395556799226  1.0000
  H   H93       1.0  0.4501121240069788  0.7767597985903331  0.7044364014075319  1.0000
  H   H94       1.0  0.44796905473632803  0.7304275706571026  0.6487957918679713  1.0000
  H   H95       1.0  0.3056628711885695  0.7067564549609375  0.6703880606102255  1.0000
  H   H96       1.0  0.30724181018021146  0.7548646021003004  0.7249080560019994  1.0000
  C   C145      1.0  0.10985414592010856  0.6833437534749753  0.6642136370456356  1.0000
  C   C146      1.0  0.23536618059375153  0.7613177728001052  0.18058571585620697  1.0000
  C   C147      1.0  0.18877534064233803  0.7661923375713939  0.1720820636143352  1.0000
  C   C148      1.0  0.025244714757949538  0.70302653739236  0.6313386874448824  1.0000
  C   C149      1.0  0.0653868430099902  0.7052376699246182  0.6096156574511848  1.0000
  C   C150      1.0  0.1076119334233099  0.6945756106295702  0.625828253410213  1.0000
  H   H97       1.0  0.24604065617199006  0.7569033839605741  0.2098101602950706  1.0000
  H   H98       1.0  0.16366566953971629  0.7655127648427106  0.19475895442599644  1.0000
  H   H99       1.0  0.06386039557141099  0.7146236300748272  0.5801618401341767  1.0000
  H   H100      1.0  0.1385208018378037  0.6955528589778633  0.6088045736482989  1.0000
  C   C151      1.0  0.6968829933574677  0.7905877202996192  0.9115255395549485  1.0000
  C   C152      1.0  0.6804731484910743  0.7722501941653326  0.8782214506780522  1.0000
  C   C153      1.0  0.6331125158242782  0.7686875212005245  0.8722980640272375  1.0000
  C   C154      1.0  0.602418506543636  0.7825481016306446  0.9001945639514244  1.0000
  C   C155      1.0  0.6188229498991089  0.8002952042083143  0.933611300119718  1.0000
  C   C156      1.0  0.6659037065547693  0.8054008536714982  0.9386893299815009  1.0000
  H   H101      1.0  0.7043988454203269  0.7606494876210147  0.8572907715498203  1.0000
  H   H102      1.0  0.6203422635484757  0.7544928071719529  0.8465952962242489  1.0000
  H   H103      1.0  0.5951076905741304  0.811240967767211  0.9550882106640102  1.0000
  H   H104      1.0  0.6780548844839012  0.8214419167855828  0.9634268509096563  1.0000
  C   C157      1.0  0.6485898353384885  0.9069998206597538  0.10359589476142328  1.0000
  C   C158      1.0  0.6078388550321685  0.9089334468858723  0.12449354315043193  1.0000
  C   C159      1.0  0.6365981355580186  0.8101815247039659  0.6564832928903891  1.0000
  C   C160      1.0  0.595325404759694  0.7934055262774387  0.669023438053785  1.0000
  C   C161      1.0  0.553875156830915  0.8072371430679234  0.6537095389093247  1.0000
  C   C162      1.0  0.6899335191986705  0.9175855255992228  0.12096276639049197  1.0000
  H   H105      1.0  0.5755896133513873  0.9017944498033492  0.110921951667031  1.0000
  H   H106      1.0  0.6687095913319135  0.7999691479671535  0.668435151463449  1.0000
  H   H107      1.0  0.521852321173153  0.79421104530694  0.6631848456286605  1.0000
  H   H108      1.0  0.7209718626077096  0.9183818454900128  0.10438495407439818  1.0000
  C   C163      1.0  0.8351717260435775  0.7453100786750687  0.13423551017812452  1.0000
  C   C164      1.0  0.863240573464749  0.7146206411133018  0.14901238551428353  1.0000
  C   C165      1.0  0.8925944939875571  0.7230726086680377  0.17949727073910848  1.0000
  C   C166      1.0  0.8931869037339245  0.7619653948325034  0.19578623297002773  1.0000
  C   C167      1.0  0.8633365580366827  0.7920952020357193  0.18237497247835321  1.0000
  C   C168      1.0  0.8346254319428136  0.7838340580887504  0.151340528841986  1.0000
  H   H109      1.0  0.8632280784384162  0.6845326613792698  0.13640333923294334  1.0000
  H   H110      1.0  0.9150808755070715  0.69947328579057  0.19024953608284711  1.0000
  H   H111      1.0  0.8636344709574666  0.8221345847768182  0.19511572902165586  1.0000
  H   H112      1.0  0.8123375501403651  0.8073224372707223  0.14068251427368206  1.0000
  C   C169      1.0  0.7504983524559725  0.1655322542681209  0.13058840525580773  1.0000
  C   C170      1.0  0.7356083126261879  0.15972128504319727  0.16819796957764077  1.0000
  C   C171      1.0  0.6546295776306913  0.21347616639790962  0.7286962832820538  1.0000
  C   C172      1.0  0.6219240093330335  0.21094172783865925  0.7579447500044965  1.0000
  C   C173      1.0  0.5814127274711053  0.23358539668366554  0.7553638689760426  1.0000
  C   C174      1.0  0.5735918123495802  0.25870311406213176  0.7238436305882501  1.0000
  H   H113      1.0  0.7598702201295835  0.1618176067836115  0.19141285907602867  1.0000
  H   H114      1.0  0.678084405132425  0.1464015182760472  0.20490589756637223  1.0000
  H   H115      1.0  0.5559231711147283  0.23172647872855068  0.7776058237193045  1.0000
  H   H116      1.0  0.5418112605001874  0.2753880305741032  0.7217678962192032  1.0000
  C   C175      1.0  0.7046554096257898  0.26172324438446903  0.9658762532856864  1.0000
  C   C176      1.0  0.671294277157158  0.2755255278108576  0.9404510015296151  1.0000
  C   C177      1.0  0.6257879894790486  0.2632745260166486  0.944863864504527  1.0000
  C   C178      1.0  0.613561808547311  0.2374569294036347  0.9747731231902687  1.0000
  C   C179      1.0  0.6464169221854857  0.2256440767437076  0.0015840949943934923  1.0000
  C   C180      1.0  0.6919964793033223  0.23804073544929738  0.9972524360702184  1.0000
  H   H117      1.0  0.6808359961841673  0.2943853898639019  0.9164877197844864  1.0000
  H   H118      1.0  0.600186441301547  0.27375617943240493  0.9250173379196062  1.0000
  H   H119      1.0  0.6371084344976138  0.20564127660620782  0.024769606588556536  1.0000
  H   H120      1.0  0.7174173864507676  0.2286109815171288  0.017767723248391487  1.0000
  C   C181      1.0  0.9736682346262387  0.29167629636629594  0.003203908424788793  1.0000
  C   C182      1.0  0.9478452764168146  0.30881611296244366  0.0327779423659591  1.0000
  C   C183      1.0  0.9449900628526828  0.35121203412882757  0.03676159934307899  1.0000
  C   C184      1.0  0.9671319621219615  0.37665776403512297  0.010705873108092234  1.0000
  C   C185      1.0  0.9936486182722708  0.3596330148193147  0.9814307719076953  1.0000
  C   C186      1.0  0.9973349105991958  0.3171030288755786  0.9779605538252303  1.0000
  H   H121      1.0  0.9307287130128504  0.2893563011803925  0.053045404874978885  1.0000
  H   H122      1.0  0.9249260153372494  0.3642942940058105  0.059718544353553726  1.0000
  H   H123      1.0  0.011391665414462793  0.3791531299274391  0.9615643549639656  1.0000
  H   H124      1.0  0.017647137591774165  0.3038914298960418  0.9552283976641892  1.0000
  C   C187      1.0  0.8462210768550987  0.03715156277881815  0.976539166048197  1.0000
  C   C188      1.0  0.8295411873055372  0.9998877513324907  0.9631628074814063  1.0000
  C   C189      1.0  0.8380383576332258  0.9639345787125272  0.9835395808734136  1.0000
  C   C190      1.0  0.8631638772560568  0.965064630669749  0.01742174166582755  1.0000
  C   C191      1.0  0.8810875938626812  0.0021214725402383117  0.030209551098401954  1.0000
  C   C192      1.0  0.8725200145672145  0.038117681512854995  0.009829809436832537  1.0000
  H   H125      1.0  0.809933221985796  0.9988126628413968  0.9370368417802161  1.0000
  H   H126      1.0  0.8258790543432039  0.935280108560215  0.9725463283332451  1.0000
  H   H127      1.0  0.9012265539496389  0.0031314962255373224  0.056056705288845654  1.0000
  H   H128      1.0  0.8865583227220563  0.06651118164946612  0.01978326921621476  1.0000
  N   N1        1.0  0.5396504861641126  0.038168548132583746  0.3565038076648821  1.0000
  C   C193      1.0  0.5064963685483648  0.0043593006271451795  0.35905242860060027  1.0000
  C   C194      1.0  0.5149718339581022  0.0762644075539387  0.34727104747778226  1.0000
  C   C195      1.0  0.5736365437325235  0.029144245201514263  0.32631080962059933  1.0000
  C   C196      1.0  0.5635430558978665  0.043047693506040874  0.3933206518565817  1.0000
  H   H129      1.0  0.5238426529123239  0.9750300549737719  0.3659534603039194  1.0000
  H   H130      1.0  0.4878495267841921  3.0083229925814692e-05  0.3316124078771945  1.0000
  H   H131      1.0  0.48031881773371904  0.010018836238583573  0.3815330226261089  1.0000
  H   H132      1.0  0.5387671137982246  0.10259822115629835  0.34549605891674506  1.0000
  H   H133      1.0  0.497108643678396  0.0737627200691553  0.3194100704867273  1.0000
  H   H134      1.0  0.48841423461144445  0.083702777430394  0.36899009313815956  1.0000
  H   H135      1.0  0.5931656987311175  0.000718460715316116  0.3325269563288811  1.0000
  H   H136      1.0  0.5989847516150355  0.054231792287018354  0.32335927206719917  1.0000
  H   H137      1.0  0.5568315280185533  0.02494764375415648  0.29808322781273167  1.0000
  H   H138      1.0  0.5824531020464399  0.01481490611413716  0.40113749774271756  1.0000
  H   H139      1.0  0.5389954576123178  0.049893545561904507  0.4167682581657637  1.0000
  H   H140      1.0  0.5889466585212391  0.06825890725207762  0.391993346882032  1.0000
  N   N2        1.0  0.9715557854556625  0.8440677213895118  0.1117238154708533  1.0000
  C   C197      1.0  0.9756897975443446  0.8411543065101286  0.1536368019150658  1.0000
  C   C198      1.0  0.9678097588035385  0.8873337117889191  0.1005085265566994  1.0000
  C   C199      1.0  0.930152050853324  0.822092564069393  0.09908211149540014  1.0000
  C   C200      1.0  0.012565981751567536  0.8257308935557455  0.09365372436436314  1.0000
  H   H141      1.0  0.9790163145314656  0.8089510911018896  0.16302388548798996  1.0000
  H   H142      1.0  0.9450725802460251  0.8540121584817313  0.16838783295744353  1.0000
  H   H143      1.0  0.006443227869560086  0.8574919252816515  0.16431581758010072  1.0000
  H   H144      1.0  0.9984366721794198  0.9049324790722736  0.10952716621695191  1.0000
  H   H145      1.0  0.964360830198666  0.8906350498336661  0.06902344699345919  1.0000
  H   H146      1.0  0.9370545750848723  0.9021047087892216  0.11343800481087518  1.0000
  H   H147      1.0  0.9263831097908223  0.8230790383796872  0.06752046799636835  1.0000
  H   H148      1.0  0.8985602543653588  0.8359641861601421  0.1114123530071407  1.0000
  H   H149      1.0  0.9311043403313154  0.7895561575787537  0.10806203471432241  1.0000
  H   H150      1.0  0.011185364142482612  0.827979219520436  0.06203977801084637  1.0000
  H   H151      1.0  0.01621973452873893  0.7929241798375939  0.10100796089008246  1.0000
  H   H152      1.0  0.044618098899846366  0.8408972200063021  0.103281331753043  1.0000
  N   N3        1.0  0.9495197827212223  0.8382927208822939  0.6227230717131925  1.0000
  C   C201      1.0  0.9419956522893534  0.8823582074705585  0.6290120250843655  1.0000
  C   C202      1.0  0.9935073848844892  0.8256692639812064  0.6400134804084836  1.0000
  C   C203      1.0  0.9507367383280174  0.8298671125409217  0.581308000431654  1.0000
  C   C204      1.0  0.9117228721618932  0.8152599237711943  0.6405020924624799  1.0000
  H   H153      1.0  0.9089720465577329  0.8926416549995977  0.616101711510706  1.0000
  H   H154      1.0  0.9697642391835286  0.9007557450323798  0.6158934656411935  1.0000
  H   H155      1.0  0.9405684619658718  0.8898644260290867  0.6599407193508405  1.0000
  H   H156      1.0  0.9999724885753221  0.7925148496094642  0.6356971769667449  1.0000
  H   H157      1.0  0.02290165396115773  0.8422470347065621  0.6272209120755163  1.0000
  H   H158      1.0  0.9938648497651478  0.8314085047084698  0.6712847851369167  1.0000
  H   H159      1.0  0.954282955681443  0.7966095569177679  0.5754528175599793  1.0000
  H   H160      1.0  0.9799306281271687  0.8454716208616126  0.5672186551638405  1.0000
  H   H161      1.0  0.918845953662251  0.8406820818670441  0.5670687052518908  1.0000
  H   H162      1.0  0.8778242625046935  0.8256726332220004  0.62971332990955  1.0000
  H   H163      1.0  0.9113317484098925  0.8190531693831468  0.6720053035173644  1.0000
  H   H164      1.0  0.9146935733682393  0.7820714482071098  0.6343091117021963  1.0000
  N   N4        1.0  0.2488087615137482  0.3509345761280836  0.3151259133189764  1.0000
  C   C205      1.0  0.2299642840488589  0.3528361609184045  0.27607987943820783  1.0000
  C   C206      1.0  0.21359214331409962  0.3352530949211476  0.3415568225491814  1.0000
  C   C207      1.0  0.2625648077562277  0.3921690550780938  0.32734035480545426  1.0000
  C   C208      1.0  0.28925856379540527  0.3236644006175088  0.31549621719998394  1.0000
  H   H165      1.0  0.25554077229652267  0.3652921602826152  0.25562138017180486  1.0000
  H   H166      1.0  0.1992103745700823  0.3728923823185978  0.2748320968615971  1.0000
  H   H167      1.0  0.21971972311056193  0.3221611964567744  0.26568668404700707  1.0000
  H   H168      1.0  0.22665380954779943  0.3339109593781071  0.3713300305652099  1.0000
  H   H169      1.0  0.18261358200777944  0.3552062749066494  0.34193702930254505  1.0000
  H   H170      1.0  0.20235874758991262  0.30411757070153533  0.33336040793585703  1.0000
  H   H171      1.0  0.2778568801129678  0.39189260818560945  0.3563964097395632  1.0000
  H   H172      1.0  0.23300220006894753  0.41351694361009883  0.3280042393380407  1.0000
  H   H173      1.0  0.2885740185699132  0.4051683603663258  0.3077034049823636  1.0000
  H   H174      1.0  0.30506345146955355  0.32223920279761664  0.3443574200368596  1.0000
  H   H175      1.0  0.3163791314306858  0.3346698134865304  0.2956757873808432  1.0000
  H   H176      1.0  0.28029620317374293  0.29209101751625444  0.30682300699837417  1.0000
  N   N5        1.0  0.2430339108187471  0.6331285025552855  0.1928519667352886  1.0000
  C   C209      1.0  0.2275624358457103  0.6555418384885873  0.15865040430320845  1.0000
  C   C210      1.0  0.28129901624886305  0.6056734661287739  0.1823144612967736  1.0000
  C   C211      1.0  0.20475818509589436  0.6088825633839472  0.20835465909769119  1.0000
  C   C212      1.0  0.25847240924064774  0.6624215041977464  0.2221359150668394  1.0000
  H   H177      1.0  0.2560107815612629  0.6733311065308555  0.14571629253798668  1.0000
  H   H178      1.0  0.19964935587132898  0.6775089076782871  0.1656628218414684  1.0000
  H   H179      1.0  0.21437139352666792  0.6345341757688072  0.13632347177194482  1.0000
  H   H180      1.0  0.31116949618155754  0.6229435242326311  0.17109065607319546  1.0000
  H   H181      1.0  0.29312579362969243  0.5873397759267901  0.207119803074365  1.0000
  H   H182      1.0  0.270846200697788  0.5838601666140948  0.15964621880591673  1.0000
  H   H183      1.0  0.1752072933747939  0.6286531030236313  0.216357406099916  1.0000
  H   H184      1.0  0.21513357575674946  0.5921911710594698  0.23459803826448328  1.0000
  H   H185      1.0  0.19245636464800972  0.5859601215838491  0.18738463488793866  1.0000
  H   H186      1.0  0.2709541018423228  0.6465083856896786  0.2481467385141737  1.0000
  H   H187      1.0  0.22989138264075262  0.6829217486058801  0.23124422018151952  1.0000
  H   H188      1.0  0.2865977200446396  0.6820259683082782  0.21119981523336248  1.0000
  N   N6        1.0  0.9656036251397135  0.4990531845597783  0.7455462674811402  1.0000
  C   C213      1.0  0.9222559597955291  0.4759380858881522  0.7454627926383621  1.0000
  C   C214      1.0  0.9554274268509506  0.542843327043286  0.7404731469625356  1.0000
  C   C215      1.0  0.9950092204906782  0.48460548699228695  0.7139123708834065  1.0000
  C   C216      1.0  0.989482339856279  0.4928629567275633  0.7822388847272835  1.0000
  H   H189      1.0  0.9030185829149816  0.480464819789235  0.7183458873547415  1.0000
  H   H190      1.0  0.8993676897991002  0.485828433233673  0.7691316916424464  1.0000
  H   H191      1.0  0.9284535859788041  0.4427230508991547  0.749050101959021  1.0000
  H   H192      1.0  0.9872021811362837  0.5613723311053533  0.7395002302802901  1.0000
  H   H193      1.0  0.9362847549473862  0.5483298216434606  0.7135631143719321  1.0000
  H   H194      1.0  0.9339815672303895  0.554957824974073  0.7642231599659124  1.0000
  H   H195      1.0  0.02737161014717726  0.5022588628435948  0.7121845865239639  1.0000
  H   H196      1.0  0.9772961162518901  0.48780033236446596  0.6859903884335763  1.0000
  H   H197      1.0  0.004180601546674101  0.45187950384348047  0.7173120449998159  1.0000
  H   H198      1.0  0.022389544403902617  0.5097701405160996  0.7834041949970311  1.0000
  H   H199      1.0  0.9971439049048815  0.46010343096392053  0.7874926724434405  1.0000
  H   H200      1.0  0.9681585906142511  0.5037603492855864  0.806534076545511  1.0000
  N   N7        1.0  0.22365911348898335  0.49259735720786546  0.5035072982635603  1.0000
  C   C217      1.0  0.25660384335932546  0.5069590558457201  0.4744687254459112  1.0000
  C   C218      1.0  0.19592359452005428  0.4590821373411386  0.48755955184074556  1.0000
  C   C219      1.0  0.19314079797022513  0.5265460580942134  0.5147788073455339  1.0000
  C   C220      1.0  0.24889318370830923  0.47801238512950095  0.5373886117876522  1.0000
  H   H201      1.0  0.23876168419606042  0.5173430230556175  0.4481777356565132  1.0000
  H   H202      1.0  0.28113423642071794  0.48253260089182193  0.46598795283274064  1.0000
  H   H203      1.0  0.2770465578239127  0.5332204411159238  0.48516900208139874  1.0000
  H   H204      1.0  0.1699558335002607  0.44826615618485594  0.5085103379770889  1.0000
  H   H205      1.0  0.1770316477619316  0.46894085462376234  0.46159458788293856  1.0000
  H   H206      1.0  0.21769914784995767  0.4325953281195558  0.4793111769113586  1.0000
  H   H207      1.0  0.16710808445563208  0.5167136824608703  0.5360589669285556  1.0000
  H   H208      1.0  0.17464551116005525  0.5394700844086905  0.4898144455934495  1.0000
  H   H209      1.0  0.21297090012208142  0.551711188142361  0.5279333126710101  1.0000
  H   H210      1.0  0.22505705592313618  0.467836781041381  0.5602810727713599  1.0000
  H   H211      1.0  0.27049037603588016  0.5025399384544263  0.5498963144544082  1.0000
  H   H212      1.0  0.27197943054124385  0.45203896835804286  0.530302620281895  1.0000
  N   N8        1.0  0.8892507604871004  0.666154168490258  0.012616650976947863  1.0000
  C   C221      1.0  0.9000169765444502  0.665013346121758  0.05378687028609952  1.0000
  C   C222      1.0  0.8436875533871727  0.6850527840937605  0.007069515671343618  1.0000
  C   C223      1.0  0.8890855977012045  0.6242151996720839  0.9971771938117604  1.0000
  C   C224      1.0  0.9242305328201793  0.6903915736650874  0.9924172739935921  1.0000
  H   H213      1.0  0.900590604977833  0.6961475545633943  0.06640921123901111  1.0000
  H   H214      1.0  0.933997794027224  0.6506465457893704  0.05910685462111309  1.0000
  H   H215      1.0  0.8741606865643473  0.6471752753923679  0.06997042773707851  1.0000
  H   H216      1.0  0.8341399307253291  0.6862055206436322  0.9763702279118164  1.0000
  H   H217      1.0  0.8165210041477666  0.6680571506986138  0.022568371236566076  1.0000
  H   H218      1.0  0.8428567285235868  0.7168334420482628  0.018148287325884027  1.0000
  H   H219      1.0  0.8812296175479376  0.623863888583747  0.966130387780252  1.0000
  H   H220      1.0  0.8634486656866994  0.6048524376590761  0.011958951787809369  1.0000
  H   H221      1.0  0.9231113361893276  0.6092644260287118  0.0006726372288383686  1.0000
  H   H222      1.0  0.9253128552107402  0.7222453492961354  0.0032227405255538244  1.0000
  H   H223      1.0  0.9174345065473665  0.6915207329145571  0.961210589214365  1.0000
  H   H224      1.0  0.9590520252396854  0.6770218921152804  0.9960347500062515  1.0000
  N   N9        1.0  0.556424449064668  0.6835269295191432  0.9773736314601815  1.0000
  C   C225      1.0  0.5230566447628429  0.7171878296692297  0.9819383965919736  1.0000
  C   C226      1.0  0.536379600974533  0.6454699556423672  0.9922333713777972  1.0000
  C   C227      1.0  0.598579931199152  0.6933661554889428  0.9987346885101563  1.0000
  C   C228      1.0  0.5675998106555393  0.6780761424243913  0.9365695807661392  1.0000
  H   H225      1.0  0.5366727070263597  0.7462980032795643  0.9704805254162043  1.0000
  H   H226      1.0  0.5140792336659893  0.7222468268848196  0.012456794908787483  1.0000
  H   H227      1.0  0.4907160435005342  0.7107924572959898  0.9664520679687493  1.0000
  H   H228      1.0  0.5605465392582238  0.619378603155321  0.9892931908422193  1.0000
  H   H229      1.0  0.5276157013518845  0.6483384984463728  0.023013512335070763  1.0000
  H   H230      1.0  0.5043727969904667  0.6374947892775331  0.9766830442235196  1.0000
  H   H231      1.0  0.5912467115213995  0.6975960609019506  0.029684773647375762  1.0000
  H   H232      1.0  0.6142980674704648  0.7221073894051773  0.9881989760609132  1.0000
  H   H233      1.0  0.6246315478797363  0.6687206972057735  0.9960096122091081  1.0000
  H   H234      1.0  0.5912842843569353  0.6519364088218211  0.9318921707050267  1.0000
  H   H235      1.0  0.5842208243237992  0.7055690882534038  0.9246502657891577  1.0000
  H   H236      1.0  0.5362909214603546  0.6725114792631226  0.9193307510964501  1.0000
  N   N10       1.0  0.5726905471892881  0.33864681679675596  0.3534966808676009  1.0000
  C   C229      1.0  0.5656486553095994  0.37198238853393417  0.3258458238251598  1.0000
  C   C230      1.0  0.577638065912507  0.29959628316107617  0.3327753756045327  1.0000
  C   C231      1.0  0.5328119345664157  0.3366504247265325  0.379455434408337  1.0000
  C   C232      1.0  0.6146155880799221  0.3464199296090484  0.37590093857276274  1.0000
  H   H237      1.0  0.561766653962765  0.401950863636275  0.34040986122013384  1.0000
  H   H238      1.0  0.5341393534205667  0.36702688928107424  0.308743174352629  1.0000
  H   H239      1.0  0.5947514328778003  0.3742035782081309  0.30543770641224594  1.0000
  H   H240      1.0  0.5847007381169462  0.27399679355601125  0.3525930684956484  1.0000
  H   H241      1.0  0.5460093220297971  0.29192052654723194  0.3167115161401461  1.0000
  H   H242      1.0  0.6062436412522931  0.3005179050114956  0.31179296407087026  1.0000
  H   H243      1.0  0.5277875032900431  0.3657430652715664  0.39528421452588275  1.0000
  H   H244      1.0  0.5371512563627849  0.3122716459152405  0.4011039383293712  1.0000
  H   H245      1.0  0.5006144034697241  0.3303627309692522  0.36361587933034306  1.0000
  H   H246      1.0  0.6209632421641093  0.3216729338845413  0.39693262692698716  1.0000
  H   H247      1.0  0.611845091581225  0.3753452908548867  0.39236093088785556  1.0000
  H   H248      1.0  0.6453853655721665  0.34831256925543647  0.357242170018545  1.0000
  N   N11       1.0  0.307272982507661  0.49663025523094895  0.9772152931947955  1.0000
  C   C233      1.0  0.3106921143880072  0.4528321037567765  0.9865302660070084  1.0000
  C   C234      1.0  0.3529169563039624  0.5155116044642741  0.9812291267972062  1.0000
  C   C235      1.0  0.27474518652513097  0.5167799991925655  0.0036205273413221217  1.0000
  C   C236      1.0  0.290857724873108  0.5012900968394304  0.937572580203144  1.0000
  H   H249      1.0  0.2769389471212831  0.43748062864128523  0.9837354565688676  1.0000
  H   H250      1.0  0.32303632564502116  0.44817028168637  0.016228759560869443  1.0000
  H   H251      1.0  0.3352582872500509  0.43686379267153147  0.9671386130216484  1.0000
  H   H252      1.0  0.3518542639843068  0.5485669963149188  0.9742505248226921  1.0000
  H   H253      1.0  0.3658847597429719  0.5129645941789006  0.011002771873108719  1.0000
  H   H254      1.0  0.3786272882556079  0.5006301925346923  0.9621943697830966  1.0000
  H   H255      1.0  0.2858994828765386  0.5134838415666655  0.03383215355733493  1.0000
  H   H256      1.0  0.23972007884729987  0.5037784215877207  0.0011366588577996772  1.0000
  H   H257      1.0  0.2722183901717128  0.5500731819293245  0.9978647426143994  1.0000
  H   H258      1.0  0.25612649534033033  0.4879730945908661  0.9337394448853839  1.0000
  H   H259      1.0  0.31417137611261753  0.48563290480530613  0.9170095089541119  1.0000
  H   H260      1.0  0.2885913006261051  0.5339438859923885  0.9291841809477769  1.0000
  N   N12       1.0  0.7252634682606758  0.1632381900921871  0.8842829038283998  1.0000
  C   C237      1.0  0.7132742454968682  0.15803608889195275  0.9249013401073423  1.0000
  C   C238      1.0  0.7073653788245322  0.20279573658199546  0.8706618626692831  1.0000
  C   C239      1.0  0.7048764238925602  0.12988504205353046  0.8617315967061737  1.0000
  C   C240      1.0  0.7756332608599902  0.16231975770114349  0.879947696089514  1.0000
  H   H261      1.0  0.7263583071421875  0.12852756790563458  0.936228030805057  1.0000
  H   H262      1.0  0.6755138848125262  0.1592491902873805  0.9294759833830211  1.0000
  H   H263      1.0  0.7285424093115671  0.18259930913709654  0.9425029969156165  1.0000
  H   H264      1.0  0.7143608120987939  0.20716816208218436  0.8397286301155209  1.0000
  H   H265      1.0  0.6695637793972999  0.20510477142754424  0.8746267577787135  1.0000
  H   H266      1.0  0.7231818142743826  0.22866991510456813  0.8862628070112327  1.0000
  H   H267      1.0  0.7179612608288309  0.09963215070130271  0.8710674744859473  1.0000
  H   H268      1.0  0.7127058119812372  0.1332440182317236  0.830798850986902  1.0000
  H   H269      1.0  0.6668682891916448  0.12979359216054376  0.8644192774072795  1.0000
  H   H270      1.0  0.7905204667222517  0.1332279036338362  0.8907535498512766  1.0000
  H   H271      1.0  0.7918978248331338  0.18753083572256712  0.8962320827400557  1.0000
  H   H272      1.0  0.7859530833822432  0.16555992463338454  0.8495651819306154  1.0000
  N   N13       1.0  0.7631121691354804  0.034506760578050466  0.09683325796590125  1.0000
  C   C241      1.0  0.7230485277119445  0.045451974394204564  0.12069492641778123  1.0000
  C   C242      1.0  0.7472927207150342  0.017193153097474045  0.06022943495949562  1.0000
  C   C243      1.0  0.7916223479951168  0.004090717199972227  0.11694755295815518  1.0000
  C   C244      1.0  0.7906389186166999  0.07133558460561029  0.08945656362368948  1.0000
  H   H273      1.0  0.7336976915253849  0.05958104545193854  0.14818283168573854  1.0000
  H   H274      1.0  0.701823512688283  0.018300327501981295  0.12753568566832585  1.0000
  H   H275      1.0  0.700443609391088  0.06792426259853479  0.10611618208163409  1.0000
  H   H276      1.0  0.7767291881923599  0.008563434728527497  0.04159872152919886  1.0000
  H   H277      1.0  0.7263056812187183  0.9893526489038565  0.06473410252444212  1.0000
  H   H278      1.0  0.7260392169906015  0.03950265490752347  0.04413706744018886  1.0000
  H   H279      1.0  0.8046903052752163  0.016406191575078832  0.14443605124400727  1.0000
  H   H280      1.0  0.8217840939740032  0.9947349109002858  0.09941735303454036  1.0000
  H   H281      1.0  0.7718495244914427  0.9760744191308823  0.12341161757014385  1.0000
  H   H282      1.0  0.7705805763956015  0.09485368309539366  0.07387506279529732  1.0000
  H   H283      1.0  0.8214918463660842  0.06433441979840815  0.07202478803533818  1.0000
  H   H284      1.0  0.8027042628405759  0.08553022036425717  0.11648405032954812  1.0000
  N   N14       1.0  0.1845045982308994  0.5534616132939429  0.7354953212272028  1.0000
  C   C245      1.0  0.1683846375698756  0.5571016575077731  0.6957537992125928  1.0000
  C   C246      1.0  0.1513222168436043  0.5292197499167685  0.7576261836721356  1.0000
  C   C247      1.0  0.18854281234089815  0.5945028886289739  0.7525347048203143  1.0000
  C   C248      1.0  0.2297552798415389  0.5330493560287711  0.7359608108841051  1.0000
  H   H285      1.0  0.19263380389944504  0.5753158320930108  0.6785507803615531  1.0000
  H   H286      1.0  0.1345715631982931  0.5728149186921506  0.6940833609695392  1.0000
  H   H287      1.0  0.16559924177002155  0.5267995099853722  0.6816380704676702  1.0000
  H   H288      1.0  0.16251054818448238  0.5258338976916752  0.7876792104808977  1.0000
  H   H289      1.0  0.11696310346535221  0.5439732362159981  0.7581268230561123  1.0000
  H   H290      1.0  0.14763479110857544  0.49798750847069684  0.7456722175798423  1.0000
  H   H291      1.0  0.19956270778136728  0.5929248196735429  0.7828251967060168  1.0000
  H   H292      1.0  0.15535921770391262  0.6113367312873691  0.7516238549428572  1.0000
  H   H293      1.0  0.21401253724538155  0.613316294087725  0.7368886898774966  1.0000
  H   H294      1.0  0.24342310675777035  0.53035118927583  0.7654390284288496  1.0000
  H   H295      1.0  0.2554392859642384  0.5501316451190118  0.7188682286379877  1.0000
  H   H296      1.0  0.22788276564753643  0.5018753162221625  0.723589338223875  1.0000
  N   N15       1.0  0.689329686312401  0.7949689325022333  0.18585049382763766  1.0000
  C   C249      1.0  0.7230557099863584  0.8282395358653661  0.1889192529795154  1.0000
  C   C250      1.0  0.7078563246809333  0.76231664125872  0.16108398141938113  1.0000
  C   C251      1.0  0.6463583435801539  0.8109425492023629  0.16925313891859942  1.0000
  C   C252      1.0  0.6800073041707537  0.7785093146866758  0.22425993943895547  1.0000
  H   H297      1.0  0.7103471927080555  0.8530513886465564  0.2079831193689659  1.0000
  H   H298      1.0  0.7301407346230346  0.8420648478545185  0.1606221339646747  1.0000
  H   H299      1.0  0.7561782105209135  0.8171575005326394  0.200795656785888  1.0000
  H   H300      1.0  0.6830205187354299  0.7368945035564568  0.15788344746299773  1.0000
  H   H301      1.0  0.7157851375810175  0.7738541688166612  0.13197533454504118  1.0000
  H   H302      1.0  0.7401792313198048  0.7492757847014386  0.17280426750204245  1.0000
  H   H303      1.0  0.6319980735029882  0.8360761376034274  0.18695754123676483  1.0000
  H   H304      1.0  0.6197067557795658  0.7868636801714343  0.16720585923292888  1.0000
  H   H305      1.0  0.6519661225984744  0.8233543990969912  0.14008566294977687  1.0000
  H   H306      1.0  0.7118004254194152  0.7668070686630373  0.237953810652892  1.0000
  H   H307      1.0  0.6551460762930641  0.7530116335717498  0.22315593719882873  1.0000
  H   H308      1.0  0.6650560995121286  0.8022139391838895  0.24339614297907572  1.0000
  N   N16       1.0  0.33783242642389627  0.15871762448692098  0.8546234736484427  1.0000
  C   C253      1.0  0.3367170429924943  0.20169295627427508  0.8673645874321935  1.0000
  C   C254      1.0  0.37498709335917346  0.15310687422828279  0.8264407167953121  1.0000
  C   C255      1.0  0.2935555707148943  0.1481889274386949  0.8368769950744739  1.0000
  C   C256      1.0  0.34619903036666305  0.1318224290667969  0.8876922410953  1.0000
  H   H309      1.0  0.33128121619417983  0.22288406315006662  0.8429936158519652  1.0000
  H   H310      1.0  0.3696586542947038  0.2107331509105519  0.8808273780540653  1.0000
  H   H311      1.0  0.3090169228523955  0.20726303065432172  0.8885764659441605  1.0000
  H   H312      1.0  0.3772202802242657  0.12101034249504819  0.8162231353620784  1.0000
  H   H313      1.0  0.3705824997294366  0.17343057683597635  0.8013220634568942  1.0000
  H   H314      1.0  0.4086496486669876  0.16041048060688087  0.8391991120187008  1.0000
  H   H315      1.0  0.2863592221009926  0.16787152723342402  0.8117490379543245  1.0000
  H   H316      1.0  0.2646835782421261  0.15208969881408277  0.8573597981733332  1.0000
  H   H317      1.0  0.2933719922945682  0.11595061604179918  0.8269272790520247  1.0000
  H   H318      1.0  0.3482090750328682  0.09921201405885936  0.8789301057339347  1.0000
  H   H319      1.0  0.31877931565512063  0.13491372374196936  0.9095707257761  1.0000
  H   H320      1.0  0.3794019505851164  0.13889845790032088  0.9017547275597952  1.0000
  N   N17       1.0  0.5886551135671098  0.9819650278485  0.6787831723065827  1.0000
  C   C257      1.0  0.5886645778938008  0.013868087449877109  0.7085645989563104  1.0000
  C   C258      1.0  0.5924146924373689  0.0013672186373665518  0.6409735649520292  1.0000
  C   C259      1.0  0.5456978971925869  0.9583457161768004  0.6807420924248295  1.0000
  C   C260      1.0  0.6280493037201947  0.9542905698926758  0.6847474368336802  1.0000
  H   H321      1.0  0.5868357271473784  0.0003124278942203685  0.7374878698424431  1.0000
  H   H322      1.0  0.558900879643356  0.034892040393874835  0.7055722627787573  1.0000
  H   H323      1.0  0.6204733490984902  0.032503363796896556  0.7072969701134821  1.0000
  H   H324      1.0  0.6249120903282317  0.01881718803323218  0.6383049214701071  1.0000
  H   H325      1.0  0.5918632050863324  0.9782397893726583  0.6177886284514406  1.0000
  H   H326      1.0  0.5635941320735569  0.02290748851561508  0.6358079747276046  1.0000
  H   H327      1.0  0.544852756116183  0.9340967530667408  0.6584452564182243  1.0000
  H   H328      1.0  0.515114854406365  0.9781666791843688  0.6766991540540928  1.0000
  H   H329      1.0  0.5419197834040451  0.9429641794609244  0.7087938401074426  1.0000
  H   H330      1.0  0.6288503150353477  0.9296537268795626  0.6629011845559611  1.0000
  H   H331      1.0  0.6262787048060091  0.9393741770241026  0.7132227754489576  1.0000
  H   H332      1.0  0.661147076865503  0.9710062488464246  0.6830637862490072  1.0000
  N   N18       1.0  0.48405228394682165  0.6405564774354079  0.721537940161955  1.0000
  C   C261      1.0  0.5221421149937701  0.6698844077433703  0.7181220256560935  1.0000
  C   C262      1.0  0.4672945904111713  0.6295853329510787  0.6831149873549759  1.0000
  C   C263      1.0  0.44645702097703976  0.6593438028886239  0.7437836312413717  1.0000
  C   C264      1.0  0.5001987930389704  0.6034083900968872  0.7412343204809613  1.0000
  H   H333      1.0  0.5510145919506086  0.6571647440417425  0.7010611930504166  1.0000
  H   H334      1.0  0.5358543583897248  0.678594203001786  0.7465815322385079  1.0000
  H   H335      1.0  0.5109181209211071  0.6985355026307152  0.7038000977772649  1.0000
  H   H336      1.0  0.43730872959718703  0.6087822227659528  0.6845757040827815  1.0000
  H   H337      1.0  0.4561322833216752  0.6569249488683017  0.6669172948456343  1.0000
  H   H338      1.0  0.4942952005685078  0.6141179553369877  0.6659153152719137  1.0000
  H   H339      1.0  0.4160768014060116  0.6391422774073543  0.7449384198641311  1.0000
  H   H340      1.0  0.43494291942472885  0.6884263653758217  0.7308078957743893  1.0000
  H   H341      1.0  0.457355056075629  0.6660669061746392  0.7735780284552661  1.0000
  H   H342      1.0  0.5115281055921712  0.6101984166752816  0.7709106164324403  1.0000
  H   H343      1.0  0.5294222902291035  0.5889539593192097  0.725874491059287  1.0000
  H   H344      1.0  0.47260024111919796  0.5801908628944596  0.743057400057438  1.0000
  N   N19       1.0  0.7307667768995069  0.7368314934252252  0.749262601535142  1.0000
  C   C265      1.0  0.6967829188995086  0.767468151214841  0.7621133717520782  1.0000
  C   C266      1.0  0.7343511607011636  0.70406033832731  0.7779742410024687  1.0000
  C   C267      1.0  0.7758925160357657  0.7564480223857875  0.7446892903824232  1.0000
  C   C268      1.0  0.716184248642228  0.7193256012004647  0.712343536842801  1.0000
  H   H345      1.0  0.6914536070395443  0.7915889783333169  0.7402716170732238  1.0000
  H   H346      1.0  0.7076176504246023  0.7826000094794135  0.7890269286764969  1.0000
  H   H347      1.0  0.662771009597993  0.7533692898247295  0.7674748595713987  1.0000
  H   H348      1.0  0.7592359844047799  0.6800920771568101  0.7688967354494428  1.0000
  H   H349      1.0  0.746539465455374  0.716017798393366  0.8059062592945463  1.0000
  H   H350      1.0  0.7007577744107716  0.6890319810671177  0.7827561395990691  1.0000
  H   H351      1.0  0.8024419787616013  0.7339290377595338  0.7358651044350756  1.0000
  H   H352      1.0  0.7878690908179758  0.7701722723391617  0.7719562321740367  1.0000
  H   H353      1.0  0.7747736353581839  0.7808727076371555  0.7227467793881198  1.0000
  H   H354      1.0  0.7404918522310633  0.6954419534530719  0.7021367550009902  1.0000
  H   H355      1.0  0.7143890503679964  0.7428962297365109  0.6896233514833056  1.0000
  H   H356      1.0  0.681537818827804  0.7054547714698086  0.7143757526451947  1.0000
  N   N20       1.0  0.05888632825725515  0.6301124804512113  0.5081616556841463  1.0000
  C   C269      1.0  0.08476064818572682  0.6296664912824695  0.4718859361671146  1.0000
  C   C270      1.0  0.09110336893049897  0.6258824735341427  0.5403891927876281  1.0000
  C   C271      1.0  0.02620006705880029  0.5959118887908591  0.5087095009056795  1.0000
  C   C272      1.0  0.03338398513777907  0.6689237537331159  0.511617769374714  1.0000
  H   H357      1.0  0.11016472238118458  0.6548502355788941  0.47066780867403757  1.0000
  H   H358      1.0  0.06158431023810618  0.6331239531701492  0.4469501456986987  1.0000
  H   H359      1.0  0.10419806599465908  0.6007147520424894  0.4680829936928179  1.0000
  H   H360      1.0  0.07285478407421087  0.6263918289000563  0.5682741703665157  1.0000
  H   H361      1.0  0.11052356401892793  0.5966619055434396  0.5386151574783454  1.0000
  H   H362      1.0  0.11673006802741281  0.6509227772766261  0.5406135708000495  1.0000
  H   H363      1.0  0.00640991921979106  0.5950595119858956  0.5358439698088718  1.0000
  H   H364      1.0  0.04425726127781804  0.5662146026827947  0.5058623199982935  1.0000
  H   H365      1.0  0.0012089014332261616  0.5981385258675178  0.4848527378731768  1.0000
  H   H366      1.0  0.013307416068551126  0.6702870243999431  0.5386515622351723  1.0000
  H   H367      1.0  0.008808636467653619  0.6728597353464969  0.4876207919321983  1.0000
  H   H368      1.0  0.057003590872202636  0.695426337899063  0.5112422322910196  1.0000
  N   N21       1.0  0.4493699567826612  0.6503127134144812  0.25721684916379844  1.0000
  C   C273      1.0  0.45153589843114333  0.6929853949064108  0.270602637147263  1.0000
  C   C274      1.0  0.45146782986901174  0.622597979211411  0.2903782282061409  1.0000
  C   C275      1.0  0.4884668598119463  0.6419037744744692  0.23149220240245444  1.0000
  C   C276      1.0  0.40605964063509536  0.6438123667114704  0.23633412473242696  1.0000
  H   H369      1.0  0.4838929619854292  0.698947967828001  0.28643175411712035  1.0000
  H   H370      1.0  0.4225445856542804  0.7004695076792452  0.29007618698082094  1.0000
  H   H371      1.0  0.45039598161295064  0.7147614504312279  0.24633771333616777  1.0000
  H   H372      1.0  0.4501504582855116  0.5901060571572947  0.28133900604176987  1.0000
  H   H373      1.0  0.4837267964069314  0.6267364338833376  0.3067677079266665  1.0000
  H   H374      1.0  0.42236022115160576  0.627861472084686  0.3104396676902099  1.0000
  H   H375      1.0  0.48857399533351853  0.6096853574080702  0.22151236133809868  1.0000
  H   H376      1.0  0.5217742776716395  0.6475425805442443  0.2459473569288525  1.0000
  H   H377      1.0  0.4872470938193944  0.6615084061542952  0.20565354639252711  1.0000
  H   H378      1.0  0.40396460091568104  0.6121078538599873  0.22511279077561355  1.0000
  H   H379      1.0  0.4030994091187753  0.6647852348739521  0.21154230687697329  1.0000
  H   H380      1.0  0.3758376413927941  0.6490488729791145  0.25509907079804806  1.0000
  N   N22       1.0  0.5568904058041273  0.2464114426723885  0.10903183509048953  1.0000
  C   C277      1.0  0.5483322642997664  0.20607161937546215  0.09170128180430792  1.0000
  C   C278      1.0  0.5755581002811625  0.2741106050869895  0.07974877985163964  1.0000
  C   C279      1.0  0.5902166139097972  0.2421655214911062  0.14048314193134193  1.0000
  C   C280      1.0  0.513474003543136  0.2632432454647573  0.12423235543028488  1.0000
  H   H381      1.0  0.5336023370737233  0.18443223814911885  0.1127947280181072  1.0000
  H   H382      1.0  0.5805504183648974  0.19207448268924318  0.08078686564768867  1.0000
  H   H383      1.0  0.524264900009317  0.20820048970218438  0.06716655716627473  1.0000
  H   H384      1.0  0.5810240976169516  0.30525014036948644  0.09138962601077627  1.0000
  H   H385      1.0  0.6090989653062796  0.2628692768992839  0.06875000045723079  1.0000
  H   H386      1.0  0.5521813229288695  0.2766226817984376  0.05474733530368181  1.0000
  H   H387      1.0  0.5970234297059578  0.27189677236364207  0.15462111444766502  1.0000
  H   H388      1.0  0.6235105276516004  0.22959703113390023  0.13019829795122595  1.0000
  H   H389      1.0  0.5773576937780723  0.2210620820267077  0.16278685718877206  1.0000
  H   H390      1.0  0.5187551230155548  0.2933876010285656  0.13815597620194575  1.0000
  H   H391      1.0  0.49849599301500147  0.24288194951774844  0.1463056082096612  1.0000
  H   H392      1.0  0.4875532303204525  0.2671726388256998  0.10129329624043981  1.0000
  N   N23       1.0  0.37461897498291336  0.8643778124945829  0.14438485982481453  1.0000
  C   C281      1.0  0.3556216091538681  0.8475803474944065  0.10864342572885823  1.0000
  C   C282      1.0  0.33831802106083975  0.8657986834116816  0.17382799690094694  1.0000
  C   C283      1.0  0.3917970877066782  0.9059862931306513  0.13731917166136265  1.0000
  C   C284      1.0  0.4126815931546043  0.8381584257794357  0.15770158532219217  1.0000
  H   H393      1.0  0.32641661998439553  0.8662672219110558  0.09805701455783344  1.0000
  H   H394      1.0  0.34264202358749557  0.8161402949916288  0.11287176019959078  1.0000
  H   H395      1.0  0.3819703702682555  0.8461593649039004  0.08570677579656816  1.0000
  H   H396      1.0  0.351443479148414  0.8783284678612672  0.2012115356676405  1.0000
  H   H397      1.0  0.3089645593809318  0.8852105845810542  0.16483440604565777  1.0000
  H   H398      1.0  0.3247098450693155  0.8348825387854385  0.1799789644120976  1.0000
  H   H399      1.0  0.40626196224362815  0.9197218243626502  0.16368544871497073  1.0000
  H   H400      1.0  0.3639555663843729  0.9266176877838237  0.12738232055537102  1.0000
  H   H401      1.0  0.4194574400033322  0.9060178410241895  0.11546477800748979  1.0000
  H   H402      1.0  0.42781714476763044  0.8500774416290561  0.18461015855973215  1.0000
  H   H403      1.0  0.4406586675921706  0.8361592150808562  0.13620056454501261  1.0000
  H   H404      1.0  0.4007883604420316  0.806612649222598  0.16356483662506452  1.0000
  N   N24       1.0  0.6039779480107775  0.8162869314484522  0.4900545969178095  1.0000
  C   C285      1.0  0.564761761846177  0.8435525998154293  0.4982743177622387  1.0000
  C   C286      1.0  0.6304563780890586  0.8094001800788843  0.5254066413138534  1.0000
  C   C287      1.0  0.633708480956655  0.8352922323759199  0.46098207463120267  1.0000
  C   C288      1.0  0.5867875907226412  0.7769769104276769  0.4754687537671143  1.0000
  H   H405      1.0  0.5419916512941545  0.8307467085636846  0.5206907268275907  1.0000
  H   H406      1.0  0.54372244554661  0.8491588464551447  0.47230167516865385  1.0000
  H   H407      1.0  0.5765802858514006  0.8736835994882455  0.5087666427565973  1.0000
  H   H408      1.0  0.6604924650181199  0.7890602776085843  0.5204150668543583  1.0000
  H   H409      1.0  0.6436731791925638  0.8385204929083081  0.5371852246955003  1.0000
  H   H410      1.0  0.6089449636995506  0.795442596227129  0.5481010530532818  1.0000
  H   H411      1.0  0.6643642128034097  0.8161745629159526  0.4546886952232087  1.0000
  H   H412      1.0  0.6460558741027213  0.8656793935662045  0.4704868490852836  1.0000
  H   H413      1.0  0.6149828869211881  0.840101421594874  0.4336886256144616  1.0000
  H   H414      1.0  0.6154559357006829  0.7556418697145751  0.46883511678617573  1.0000
  H   H415      1.0  0.5665431322445206  0.7812739827184145  0.4488334109073396  1.0000
  H   H416      1.0  0.5640738614293337  0.7619083485563329  0.49666781596993487  1.0000
  N   N25       1.0  0.5888926582529237  0.9236359860487087  0.9137543277024149  1.0000
  C   C289      1.0  0.6221296443265066  0.9478203976204613  0.8915605657626225  1.0000
  C   C290      1.0  0.5736497503316248  0.8886060075486854  0.8905660214719598  1.0000
  C   C291      1.0  0.5488618352376422  0.9493391497359248  0.9236054973654635  1.0000
  C   C292      1.0  0.6109129397768699  0.9087733124368377  0.9490853898834776  1.0000
  H   H417      1.0  0.6528268026550597  0.9293042983268749  0.8837763109296768  1.0000
  H   H418      1.0  0.6340523564355656  0.9748247491478366  0.9079152817835173  1.0000
  H   H419      1.0  0.6067519316311442  0.9589928645772015  0.8644576468803817  1.0000
  H   H420      1.0  0.54903955466807  0.8691086110413384  0.9064530341658024  1.0000
  H   H421      1.0  0.5562814299648796  0.8988020543245346  0.8640023951970709  1.0000
  H   H422      1.0  0.6030397951329165  0.8689492441568035  0.8818814472124504  1.0000
  H   H423      1.0  0.5227765349389525  0.931797104717984  0.9398355472718747  1.0000
  H   H424      1.0  0.5318107644360915  0.961424944141894  0.8975699241408117  1.0000
  H   H425      1.0  0.5589159424220972  0.9759859781973915  0.9413276022124647  1.0000
  H   H426      1.0  0.5872033721033758  0.889593409566657  0.9662085265679162  1.0000
  H   H427      1.0  0.6221051789799721  0.9343342068318986  0.9677266138216485  1.0000
  H   H428      1.0  0.6417993655688085  0.8899653485929143  0.9426843311567249  1.0000
  N   N26       1.0  0.8471973592984712  0.3694162438145319  0.9417797313943514  1.0000
  C   C293      1.0  0.8732413700174243  0.3314062015508132  0.9346634905796829  1.0000
  C   C294      1.0  0.8765043155403184  0.4048452361832301  0.933328469196346  1.0000
  C   C295      1.0  0.832808777763321  0.3707422350817527  0.9821915864480231  1.0000
  C   C296      1.0  0.8063546497749325  0.3707548541300138  0.9169657120835433  1.0000
  H   H429      1.0  0.8520501428671771  0.3039885320189111  0.9403957042410757  1.0000
  H   H430      1.0  0.9037630813555408  0.32923382874472085  0.9535467128296884  1.0000
  H   H431      1.0  0.8855990601549508  0.3295126949961559  0.9047214812458161  1.0000
  H   H432      1.0  0.8864952389735424  0.40578622519630325  0.9027132497999322  1.0000
  H   H433      1.0  0.8589852876017388  0.43413898275120216  0.9401935507994901  1.0000
  H   H434      1.0  0.9085589035931451  0.40382691448435  0.9502908855474047  1.0000
  H   H435      1.0  0.8123885487733874  0.39858721297284466  0.9886353191512457  1.0000
  H   H436      1.0  0.8629703577315067  0.37086182370230325  0.0015682506640488647  1.0000
  H   H437      1.0  0.8116332680794061  0.3437547923688199  0.9897581673647047  1.0000
  H   H438      1.0  0.786518230009794  0.399422348833527  0.9212632323344352  1.0000
  H   H439      1.0  0.7828965637225472  0.34498954044224084  0.9230074852838918  1.0000
  H   H440      1.0  0.8160198968862792  0.368912190453034  0.8863167537602811  1.0000
  N   N27       1.0  0.779014658693296  0.5368625142638117  0.5611786789499669  1.0000
  C   C297      1.0  0.7599115674456292  0.578189641525422  0.5672287583623777  1.0000
  C   C298      1.0  0.753815850877895  0.5163202684901905  0.5301356337939919  1.0000
  C   C299      1.0  0.7743427323679702  0.512979469747526  0.5966560315796119  1.0000
  C   C300      1.0  0.8279675381322237  0.53990227266732  0.5506905140050874  1.0000
  H   H441      1.0  0.7633619634834586  0.5973621142835325  0.5412506568932874  1.0000
  H   H442      1.0  0.7778201436539718  0.5943789222503097  0.5907908954777432  1.0000
  H   H443      1.0  0.7229164716792317  0.5771398883601703  0.5748607297707136  1.0000
  H   H444      1.0  0.7676178374339526  0.48516599513668746  0.5248083389673337  1.0000
  H   H445      1.0  0.7168704085098228  0.5128389069627979  0.5372623275406011  1.0000
  H   H446      1.0  0.7563275175001631  0.5334999773406365  0.5029099651557711  1.0000
  H   H447      1.0  0.7895537854161834  0.48200182348902004  0.5935450655702047  1.0000
  H   H448      1.0  0.7377863381326608  0.5088343564765592  0.6047128585948988  1.0000
  H   H449      1.0  0.7919290478966097  0.5280248536326523  0.6209801308482228  1.0000
  H   H450      1.0  0.8437904395808976  0.5093030002203407  0.5466287429488975  1.0000
  H   H451      1.0  0.8479649205472541  0.555568678472952  0.5732607949360158  1.0000
  H   H452      1.0  0.8327779277804899  0.5572058799721696  0.5237501604495557  1.0000
  N   N28       1.0  0.3195422310955445  0.7006669255018811  0.8241176581468365  1.0000
  C   C301      1.0  0.36885005746488525  0.7058330164428951  0.8159792667214838  1.0000
  C   C302      1.0  0.29639130169487315  0.7407617103160757  0.8223366198666224  1.0000
  C   C303      1.0  0.31372493934809803  0.6832118765325783  0.8626368453836275  1.0000
  C   C304      1.0  0.2993134986482689  0.6729431312596588  0.7955327979505596  1.0000
  H   H453      1.0  0.38823654180729866  0.6769400655775953  0.8202116751339776  1.0000
  H   H454      1.0  0.3842562595478437  0.7293602896621367  0.8348431843938181  1.0000
  H   H455      1.0  0.37461317482351963  0.7161321299499999  0.7862055516896591  1.0000
  H   H456      1.0  0.2589876274575365  0.7381018041850431  0.8278538487348424  1.0000
  H   H457      1.0  0.3107440355574268  0.762314908898673  0.8437569348770878  1.0000
  H   H458      1.0  0.3009680368442105  0.7552337354718236  0.7939176302469808  1.0000
  H   H459      1.0  0.27696234470293596  0.6780292252550022  0.8694605849283403  1.0000
  H   H460      1.0  0.32781297879316645  0.7038053150402404  0.8849427168744584  1.0000
  H   H461      1.0  0.33156632995650975  0.6532814728075119  0.8652999850448194  1.0000
  H   H462      1.0  0.26228783461985145  0.6677034999649752  0.8012757691151838  1.0000
  H   H463      1.0  0.3164943331628306  0.6426232462285797  0.7958963572932366  1.0000
  H   H464      1.0  0.30243085318467766  0.6854878356046709  0.7661612776012259  1.0000
  N   N29       1.0  0.49583574719708773  0.3725768907504195  0.7494442760759116  1.0000
  C   C305      1.0  0.5042726760164935  0.3392885118469638  0.7769403754685338  1.0000
  C   C306      1.0  0.44620688948447285  0.38154259517335903  0.7477636988782004  1.0000
  C   C307      1.0  0.5122731414095106  0.36018910481139255  0.7112189240624702  1.0000
  C   C308      1.0  0.5205820156128146  0.4094632493927811  0.761852069201515  1.0000
  H   H465      1.0  0.5412699166603826  0.33100807093471823  0.7783183951955563  1.0000
  H   H466      1.0  0.4852152612110021  0.3111904576411005  0.7690294849227803  1.0000
  H   H467      1.0  0.49310226961512843  0.34796446074148335  0.8062297310410812  1.0000
  H   H468      1.0  0.43313071137143944  0.39280705416187356  0.7756994949077985  1.0000
  H   H469      1.0  0.43848652073452105  0.4054961042423737  0.7262385776177108  1.0000
  H   H470      1.0  0.42621020039500096  0.35395271627489755  0.7400460098735655  1.0000
  H   H471      1.0  0.5068270375897433  0.38472328175196563  0.6898138073557605  1.0000
  H   H472      1.0  0.49419613706438925  0.33259154150531617  0.7007013264379978  1.0000
  H   H473      1.0  0.5496079199609336  0.35289897114410973  0.7113738072135094  1.0000
  H   H474      1.0  0.5148885663611821  0.435163679528306  0.7416894247680907  1.0000
  H   H475      1.0  0.5581460062320528  0.4037974532716158  0.7634833831726384  1.0000
  H   H476      1.0  0.5087585724507024  0.4198925906208283  0.7904799894420554  1.0000
  N   N30       1.0  0.67591997067624  0.11247043360034184  0.48532936567590557  1.0000
  C   C309      1.0  0.6863604597209716  0.11171143728781024  0.44408251070268007  1.0000
  C   C310      1.0  0.6653666844878494  0.15463235218839444  0.49750930764362694  1.0000
  C   C311      1.0  0.715965759450694  0.09737117646539653  0.5068195368929679  1.0000
  C   C312      1.0  0.6361112881545244  0.0861006535328749  0.49312788831438553  1.0000
  H   H477      1.0  0.6565912727489194  0.12212534799047467  0.4268650675190226  1.0000
  H   H478      1.0  0.6954419043252394  0.0804216861641695  0.4341981578360457  1.0000
  H   H479      1.0  0.7157892957193014  0.13179570924399  0.4370835707779261  1.0000
  H   H480      1.0  0.6347128206353858  0.16696096200493207  0.4825454363698255  1.0000
  H   H481      1.0  0.6586344954246137  0.15632907604617083  0.5287419043785486  1.0000
  H   H482      1.0  0.694495577456567  0.17551520322043943  0.49157019350325276  1.0000
  H   H483      1.0  0.7261802703642416  0.06618519529434352  0.497705580880154  1.0000
  H   H484      1.0  0.7084848618672767  0.09600780566426158  0.5378851401800554  1.0000
  H   H485      1.0  0.7462009926559211  0.11743998487661284  0.5027098456337095  1.0000
  H   H486      1.0  0.6276143836102892  0.08575829526923365  0.524081935188195  1.0000
  H   H487      1.0  0.6431385984473161  0.05406318739692595  0.48433513745815554  1.0000
  H   H488      1.0  0.6052222237913976  0.09673287952749658  0.47743767560645495  1.0000
  N   N31       1.0  0.04941675766637066  0.5350307687676096  0.25730458923115573  1.0000
  C   C313      1.0  0.09729316775631358  0.54542369246479  0.2666276488236278  1.0000
  C   C314      1.0  0.03933534775641245  0.548021943373445  0.21789535466694324  1.0000
  C   C315      1.0  0.01806567928814684  0.5562778094376932  0.28391883134043144  1.0000
  C   C316      1.0  0.0430618459455836  0.4905645312494279  0.2607658281418593  1.0000
  H   H489      1.0  0.10602917598046413  0.5366191663135899  0.2963742999956722  1.0000
  H   H490      1.0  0.10342866088450364  0.5786939533142842  0.263918539612661  1.0000
  H   H491      1.0  0.12194061417011826  0.5297888680836681  0.24722761679733088  1.0000
  H   H492      1.0  0.044357047965926544  0.5814124430499464  0.2144109032169961  1.0000
  H   H493      1.0  0.06194108598226644  0.5325264833713533  0.19675848318416464  1.0000
  H   H494      1.0  0.003249103345436044  0.541434993523951  0.209758578912473  1.0000
  H   H495      1.0  0.9815506517513932  0.5499243764034949  0.2771922034925268  1.0000
  H   H496      1.0  0.022655579453787045  0.5898816273057004  0.28259824878922196  1.0000
  H   H497      1.0  0.02409007719277989  0.546750070112584  0.31394254988512604  1.0000
  H   H498      1.0  0.007255548926073496  0.4816701097845922  0.2538721093543054  1.0000
  H   H499      1.0  0.05053351440276832  0.4799351812681693  0.29028516171867047  1.0000
  H   H500      1.0  0.06629026784603709  0.4736116854826479  0.2411013305683784  1.0000
  N   N32       1.0  0.8793992771534652  0.2844409859775544  0.533526566148254  1.0000
  C   C317      1.0  0.8356538476294586  0.2932577527622015  0.5141033747839571  1.0000
  C   C318      1.0  0.9025944730133064  0.25010619646014753  0.5140732275645183  1.0000
  C   C319      1.0  0.8702096582612303  0.27353912251732865  0.5736954583274027  1.0000
  C   C320      1.0  0.9088302432492699  0.3209320528100619  0.5321454365463182  1.0000
  H   H501      1.0  0.815919262104965  0.31724766780981334  0.5294749600847042  1.0000
  H   H502      1.0  0.8135546938826158  0.2658273623345493  0.512670617499486  1.0000
  H   H503      1.0  0.8412291348904911  0.30385557745950575  0.48433512490976527  1.0000
  H   H504      1.0  0.9358420490969582  0.24256463949088194  0.5278833208128811  1.0000
  H   H505      1.0  0.8810245026738428  0.2221548737299273  0.5146941093612801  1.0000
  H   H506      1.0  0.9096347411187748  0.2573973138487372  0.48361814316185586  1.0000
  H   H507      1.0  0.8483171313445034  0.24593080915903381  0.5757250063565912  1.0000
  H   H508      1.0  0.8517432934488839  0.29851741482448363  0.5889298768947643  1.0000
  H   H509      1.0  0.9024437479732704  0.26709774757257326  0.5894664884803877  1.0000
  H   H510      1.0  0.8922382589801853  0.3472198921293063  0.5468270277938034  1.0000
  H   H511      1.0  0.9157398931513712  0.33051569131256114  0.5021943464359271  1.0000
  H   H512      1.0  0.9424698457889036  0.31542785011921276  0.5460882493176258  1.0000
