data_image0
_chemical_formula_structural       FeS2FeS2FeSFeS3FeS2FeS2FeSFeS3FeS2FeS2FeSFeS3FeS2FeS2FeSFeS3FeS2FeS2FeSFeS3FeS2FeS2FeSFeS3FeS2FeS2FeSFeS3FeS2FeS2FeSFeS3C6H4C6H4C6H4C6H4C6H4C6H4C6H4C6H4C6H4C6H4C6H4C6H4C6H4C6H4C6H4C6H4NC4H12NC4H12NC4H12NC4H12NC4H12NC4H12NC4H12NC4H12NC4H12NC4H12NC4H12NC4H12NC4H12NC4H12NC4H12NC4H12
_chemical_formula_sum              "Fe32 S64 C160 H256 N16"
_cell_length_a       26.053621709839263
_cell_length_b       29.19473010008057
_cell_length_c       22.106268343581736
_cell_angle_alpha    89.5959080232937
_cell_angle_beta     92.25064302260905
_cell_angle_gamma    89.67771037662378

_space_group_name_H-M_alt    "P 1"
_space_group_IT_number       1

loop_
  _space_group_symop_operation_xyz
  'x, y, z'

loop_
  _atom_site_type_symbol
  _atom_site_label
  _atom_site_symmetry_multiplicity
  _atom_site_fract_x
  _atom_site_fract_y
  _atom_site_fract_z
  _atom_site_occupancy
  Fe  Fe1       1.0  0.5677847292510861  0.9286608309665142  0.7102823181743764  1.0000
  S   S1        1.0  0.6295381907723179  0.876661749058673  0.6951135798422784  1.0000
  S   S2        1.0  0.4846447412143392  0.909217001937336  0.6990860056509495  1.0000
  Fe  Fe2       1.0  0.6442289920688808  0.0014726115266934237  0.750320548518271  1.0000
  S   S3        1.0  0.7121257908053094  0.9551302601117212  0.738929486201739  1.0000
  S   S4        1.0  0.6535692262679073  0.07496730127403639  0.7782182980845189  1.0000
  Fe  Fe3       1.0  0.6704983013059655  0.9349920957748318  0.6522322022431872  1.0000
  S   S5        1.0  0.7111134207892813  0.9288144874803963  0.56458061127299  1.0000
  Fe  Fe4       1.0  0.6641102731699795  0.902109102893701  0.7829197213259635  1.0000
  S   S6        1.0  0.6959832949223457  0.8522414934220663  0.8528464122266914  1.0000
  S   S7        1.0  0.6059277568421015  0.9854652595084037  0.6606420486011462  1.0000
  S   S8        1.0  0.5992098415089064  0.9499428486738906  0.8015877815568131  1.0000
  Fe  Fe5       1.0  0.39994032978678423  0.714464847042375  0.5033855693114254  1.0000
  S   S9        1.0  0.4173974001059576  0.6408951856601702  0.482407010301595  1.0000
  S   S10       1.0  0.4566242565859783  0.7696086653377028  0.4829339828002796  1.0000
  Fe  Fe6       1.0  0.2942000749086114  0.6932590604435995  0.5476445157889355  1.0000
  S   S11       1.0  0.3014543144121002  0.6183068467306482  0.5304762520888924  1.0000
  S   S12       1.0  0.22207351446761375  0.7253941997709179  0.5791379447632607  1.0000
  Fe  Fe7       1.0  0.38099286664722976  0.6260279766978286  0.570286755556072  1.0000
  S   S13       1.0  0.40765794924045745  0.57391397914621  0.638847187894164  1.0000
  Fe  Fe8       1.0  0.33650534796211345  0.6397856013158351  0.44449997646016004  1.0000
  S   S14       1.0  0.312753297556295  0.6047334991444085  0.35868858265665154  1.0000
  S   S15       1.0  0.37085137730635503  0.6997132508779527  0.5956855539620809  1.0000
  S   S16       1.0  0.3218621978297169  0.7146306664184151  0.4574006911698114  1.0000
  Fe  Fe9       1.0  0.02581539953914569  0.6774297842335154  0.26765472098527965  1.0000
  S   S17       1.0  0.9969462308318991  0.7496386290097659  0.25955680383864443  1.0000
  S   S18       1.0  0.05279238195434832  0.6524798195756698  0.3594046596547816  1.0000
  Fe  Fe10      1.0  0.009516928836816652  0.6584596350870716  0.1342722043998157  1.0000
  S   S19       1.0  0.9792275060096651  0.7291675556876873  0.11441640753288262  1.0000
  S   S20       1.0  0.01308434998971486  0.607128886086371  0.05991148059488749  1.0000
  Fe  Fe11      1.0  0.04347636104245156  0.7518156749783351  0.17671416431316667  1.0000
  S   S21       1.0  0.09717897051662949  0.8086691845489161  0.15634048213898089  1.0000
  Fe  Fe12      1.0  0.9353652003239009  0.7195050988482903  0.19827908591789  1.0000
  S   S22       1.0  0.850789267293304  0.7347707783014966  0.19505135536216112  1.0000
  S   S23       1.0  0.07781741180488466  0.6817392531367892  0.18964272570386975  1.0000
  S   S24       1.0  0.960349280864331  0.6466820892233959  0.2136151537168105  1.0000
  Fe  Fe13      1.0  0.6222656733921103  0.9181936947404248  0.15081096793209947  1.0000
  S   S25       1.0  0.6922230785841303  0.9536960398768572  0.11889890430869832  1.0000
  S   S26       1.0  0.593233079560992  0.8544618470433322  0.10617185376484706  1.0000
  Fe  Fe14      1.0  0.6110229513200576  0.9817499332441862  0.2559418417770356  1.0000
  S   S27       1.0  0.6794459499296504  0.023992917680971892  0.23357900558752473  1.0000
  S   S28       1.0  0.567644328623037  0.9889546211561889  0.3405609962331386  1.0000
  Fe  Fe15      1.0  0.6487581711352957  0.018187085856167462  0.13765121549044945  1.0000
  S   S29       1.0  0.6581291020670839  0.07533625728139492  0.07030026710027859  1.0000
  Fe  Fe16      1.0  0.7165503517408545  0.956137164900214  0.21685509822467508  1.0000
  S   S30       1.0  0.7976012629207596  0.9409085406789994  0.24783425603490783  1.0000
  S   S31       1.0  0.5759844118486264  0.9822544199144946  0.1613755229523426  1.0000
  S   S32       1.0  0.6506660764186784  0.9143113821878188  0.24730091616732008  1.0000
  Fe  Fe17      1.0  0.3553305438851472  0.7014740054741996  0.06022630985371502  1.0000
  S   S33       1.0  0.2774431072381664  0.6693277866528968  0.047946897958837775  1.0000
  S   S34       1.0  0.38803779518071163  0.7290625640924385  0.14782555818405213  1.0000
  Fe  Fe18      1.0  0.38288633839857616  0.6839872467287023  0.9314852025201505  1.0000
  S   S35       1.0  0.3082531945212267  0.6493529879866118  0.9073811151765555  1.0000
  S   S36       1.0  0.4424609751210698  0.6999758620088634  0.8645863469165321  1.0000
  Fe  Fe19      1.0  0.273755037799623  0.7064707372602895  0.9589971041406408  1.0000
  S   S37       1.0  0.20135969868285786  0.7389645756045652  0.9216843396519698  1.0000
  Fe  Fe20      1.0  0.31945699612312767  0.6151903650768356  0.998074028738508  1.0000
  S   S38       1.0  0.30493410720196035  0.5406786583968435  0.014916842010054054  1.0000
  S   S39       1.0  0.3473247555328963  0.74428195778539  0.9758898908135777  1.0000
  S   S40       1.0  0.3978338507386509  0.644279182385081  0.017284732722525176  1.0000
  Fe  Fe21      1.0  0.5240287113710153  0.3844728671410561  0.966968181662678  1.0000
  S   S41       1.0  0.6053691944927003  0.4024617773071795  0.9933516305686783  1.0000
  S   S42       1.0  0.4844634268901993  0.430906564343219  0.8985824724997098  1.0000
  Fe  Fe22      1.0  0.5269095730203859  0.29741431987046035  0.043056550556619166  1.0000
  S   S43       1.0  0.6081957563266207  0.3084309861730414  0.07567998463573167  1.0000
  S   S44       1.0  0.49032985559266273  0.2318675400561364  0.07127683444196128  1.0000
  Fe  Fe23      1.0  0.5830094909399396  0.38132166284957325  0.08617978370874883  1.0000
  S   S45       1.0  0.6058777202385026  0.41925716605008223  0.17026598854741787  1.0000
  Fe  Fe24      1.0  0.6214447580060596  0.3278000676327228  0.9796542690901507  1.0000
  S   S46       1.0  0.6836800508106816  0.29755165607490813  0.9246395114478105  1.0000
  S   S47       1.0  0.5000420969552524  0.3691312292947995  0.06137299293851939  1.0000
  S   S48       1.0  0.5416104927738992  0.311469440332251  0.9459865973768726  1.0000
  Fe  Fe25      1.0  0.9068420511110933  0.662063977504971  0.7602907306785021  1.0000
  S   S49       1.0  0.939253925517603  0.5911993547209039  0.7729665826723277  1.0000
  S   S50       1.0  0.9012089442962861  0.7083790904079772  0.8399172796780681  1.0000
  Fe  Fe26      1.0  0.8964521629887181  0.6534146607952699  0.6245041816239553  1.0000
  S   S51       1.0  0.9283023154636693  0.5818813567526133  0.6256482938962445  1.0000
  S   S52       1.0  0.8711469737328996  0.6844768004126321  0.5348672168919042  1.0000
  Fe  Fe27      1.0  0.8780276966363574  0.5714437758839872  0.704380239321967  1.0000
  S   S53       1.0  0.8256399137650892  0.5113998084512906  0.7161914279067947  1.0000
  Fe  Fe28      1.0  0.9865276192556592  0.6086922162762307  0.6936077221098519  1.0000
  S   S54       1.0  0.06951272989752177  0.58573656403343  0.6951329411660133  1.0000
  S   S55       1.0  0.8414551179629384  0.6410772430696605  0.6980936650020401  1.0000
  S   S56       1.0  0.9587701122244899  0.6815068612729347  0.6862608512271022  1.0000
  Fe  Fe29      1.0  0.724918114631839  0.23929651623319656  0.5416466063088693  1.0000
  S   S57       1.0  0.6394409090460131  0.2476125857473853  0.5410183972758829  1.0000
  S   S58       1.0  0.7597125280829071  0.17009399661200372  0.5593207419373146  1.0000
  Fe  Fe30      1.0  0.7424988422193189  0.3368084295653  0.5022650405241585  1.0000
  S   S59       1.0  0.6585486214836463  0.3540919922287723  0.4971509612235351  1.0000
  S   S60       1.0  0.8034400608030501  0.3883644931548269  0.48380132946680654  1.0000
  Fe  Fe31      1.0  0.6564225856297669  0.31507704815645754  0.5845604365724613  1.0000
  S   S61       1.0  0.6086986253787663  0.3442044332858169  0.6571287185666652  1.0000
  Fe  Fe32      1.0  0.6494840370302315  0.28527838982205533  0.4538503546037521  1.0000
  S   S62       1.0  0.597234089889308  0.2684065708134214  0.3743292385719345  1.0000
  S   S63       1.0  0.7414848426385535  0.3033764172127062  0.593935023153871  1.0000
  S   S64       1.0  0.7337961017635539  0.2714005334631  0.45049069996930113  1.0000
  C   C1        1.0  0.8194079625952356  0.4787760990276238  0.6501856003070255  1.0000
  C   C2        1.0  0.8610652239615614  0.47286919172683134  0.6129250724814177  1.0000
  C   C3        1.0  0.8560651025534094  0.44532446192033887  0.5613406524322031  1.0000
  C   C4        1.0  0.8097183521433788  0.42300992667545206  0.547765983469036  1.0000
  C   C5        1.0  0.7682802616090669  0.4285033365578137  0.5854014581031403  1.0000
  C   C6        1.0  0.7730371395948257  0.4565525103428589  0.6363681846263217  1.0000
  H   H1        1.0  0.8975792269520139  0.48837339382943223  0.6247606074076711  1.0000
  H   H2        1.0  0.8884498763308227  0.4402876528362187  0.53288950427975  1.0000
  H   H3        1.0  0.7322659309501495  0.4115586720763281  0.5748622681853528  1.0000
  H   H4        1.0  0.7404979173478823  0.4613719868123995  0.6645534223291258  1.0000
  C   C7        1.0  0.5995205161135587  0.38044134644424327  0.23022316867417983  1.0000
  C   C8        1.0  0.5653672346598037  0.343807765126231  0.22395977406370712  1.0000
  C   C9        1.0  0.5626867276323295  0.31082290545931146  0.2700066807931631  1.0000
  C   C10       1.0  0.5950248318739686  0.31375262289808353  0.3218253016021637  1.0000
  C   C11       1.0  0.6288278660706703  0.3506564247414695  0.32838786890403404  1.0000
  C   C12       1.0  0.6306227213036727  0.38430442671210646  0.2829108957960079  1.0000
  H   H5        1.0  0.5410105763355104  0.34068361489017823  0.18354389241607938  1.0000
  H   H6        1.0  0.5362358215780839  0.2825448523563657  0.26480274249368757  1.0000
  H   H7        1.0  0.6548149911425225  0.3526144641873977  0.36749888570244726  1.0000
  H   H8        1.0  0.6574748942085464  0.4123146131404632  0.287581589510906  1.0000
  C   C13       1.0  0.6647738654170617  0.30991492896462863  0.8495318476246652  1.0000
  C   C14       1.0  0.6279521756232378  0.34404514126106384  0.8378603010063662  1.0000
  C   C15       1.0  0.6106474974308763  0.35354360613976527  0.7786479527199328  1.0000
  C   C16       1.0  0.6309658972093574  0.3299940126989036  0.7304232827793109  1.0000
  C   C17       1.0  0.6683271354690128  0.29600806430608  0.7415856045257945  1.0000
  C   C18       1.0  0.6849300943817245  0.2855770645888115  0.8014090538582676  1.0000
  H   H9        1.0  0.6125585392268054  0.36340733446759094  0.8744093444896599  1.0000
  H   H10       1.0  0.5815177486417036  0.37931549056699504  0.7702621635677789  1.0000
  H   H11       1.0  0.6838556957717016  0.2775372956090169  0.7042844078477474  1.0000
  H   H12       1.0  0.7129880903331837  0.2586445048347044  0.8102644080147573  1.0000
  C   C19       1.0  0.3520751207285331  0.5086489082517018  0.9796554177486719  1.0000
  C   C20       1.0  0.38416354347796805  0.5303185960571544  0.93942826892278  1.0000
  C   C21       1.0  0.4240114431369378  0.5059535241865393  0.9134622052545056  1.0000
  C   C22       1.0  0.432688831599788  0.4599857549270296  0.9290116390271238  1.0000
  C   C23       1.0  0.4006793276553515  0.43809460624787216  0.9694644503872479  1.0000
  C   C24       1.0  0.35984555768978627  0.46231144232636084  0.9941624343348983  1.0000
  H   H13       1.0  0.37846929220485537  0.5660791799246395  0.9289807923328057  1.0000
  H   H14       1.0  0.4489457960305161  0.523165896832048  0.8827234374168217  1.0000
  H   H15       1.0  0.40692265267487326  0.402369286671244  0.9809753442965957  1.0000
  H   H16       1.0  0.33486606975452743  0.4453909705310845  0.025155266700817913  1.0000
  C   C25       1.0  0.6094875000618409  0.1170336450418723  0.06865736139291734  1.0000
  C   C26       1.0  0.564924686733186  0.11133961319583596  0.10109824614661508  1.0000
  C   C27       1.0  0.5275521274414298  0.14622978489719957  0.10066604276652971  1.0000
  C   C28       1.0  0.5353261113098245  0.18712122343375043  0.06892933492813813  1.0000
  C   C29       1.0  0.579921956376053  0.19263102381527014  0.03652952480175631  1.0000
  C   C30       1.0  0.6166580476128891  0.15749372912179907  0.035882196217394746  1.0000
  H   H17       1.0  0.559209811476807  0.08022960282308689  0.12665982298539707  1.0000
  H   H18       1.0  0.49309593369129573  0.14191672810094474  0.1258848594452165  1.0000
  H   H19       1.0  0.5861564740036564  0.22402481171994565  0.011886907998008178  1.0000
  H   H20       1.0  0.6513791695471707  0.16221854792247764  0.011316276103096268  1.0000
  C   C31       1.0  0.1259189371383489  0.794197640550332  0.08873498036389593  1.0000
  C   C32       1.0  0.09555668855900468  0.7818115976095437  0.03785534017239667  1.0000
  C   C33       1.0  0.11876416641740595  0.7671381247734632  0.9851015840051308  1.0000
  C   C34       1.0  0.17225834285004513  0.7631279866357286  0.9841680480967228  1.0000
  C   C35       1.0  0.20257704578964378  0.77579108695085  0.0349149914107163  1.0000
  C   C36       1.0  0.17945695561924846  0.7919990958001754  0.08684581683503656  1.0000
  H   H21       1.0  0.05416041931352056  0.7837149678469055  0.03913963795589548  1.0000
  H   H22       1.0  0.095170239012075  0.757658658596738  0.9458654009417048  1.0000
  H   H23       1.0  0.24394767477546178  0.7730072484907824  0.03434396289794828  1.0000
  H   H24       1.0  0.2030120316323747  0.8014620251966642  0.12610081735736695  1.0000
  C   C37       1.0  0.9841653419665494  0.634149297159716  0.9966227956635325  1.0000
  C   C38       1.0  0.996811746960214  0.6794146658483647  0.9827616426088147  1.0000
  C   C39       1.0  0.9713072773710031  0.7023390178208923  0.934489370041235  1.0000
  C   C40       1.0  0.9332659645577949  0.6798557112044755  0.8999819432380148  1.0000
  C   C41       1.0  0.9212552476144994  0.6342989425247505  0.9130728294635445  1.0000
  C   C42       1.0  0.9469208382513654  0.6113166257235073  0.9612600779109385  1.0000
  H   H25       1.0  0.026646411571917383  0.6966711860884581  0.009046596459564071  1.0000
  H   H26       1.0  0.981238616403971  0.7373533612786698  0.9237905857118336  1.0000
  H   H27       1.0  0.8913893087025735  0.6170398915317515  0.8867712690048641  1.0000
  H   H28       1.0  0.936999951432794  0.5763579081841528  0.9721382461829393  1.0000
  C   C43       1.0  0.0023996545653757195  0.6624428787508008  0.40810303124703523  1.0000
  C   C44       1.0  0.9543506715585636  0.6775825216673552  0.38502809912015123  1.0000
  C   C45       1.0  0.914238201075282  0.6855919336429398  0.4241513210671099  1.0000
  C   C46       1.0  0.9220366137406149  0.6779668304797569  0.48633840927806266  1.0000
  C   C47       1.0  0.969965467153078  0.6628521463161711  0.5093673166839053  1.0000
  C   C48       1.0  0.010070489575370711  0.6552220386546754  0.4703404096729701  1.0000
  H   H29       1.0  0.9478021454631647  0.6829340686159038  0.33700936660964886  1.0000
  H   H30       1.0  0.8771522175434228  0.6971082333710074  0.4060841362880946  1.0000
  H   H31       1.0  0.9764439202569066  0.6573882819164553  0.5574139610711096  1.0000
  H   H32       1.0  0.04697098210696149  0.6442116864205413  0.48872249570896065  1.0000
  C   C49       1.0  0.8371022103188385  0.7926126197211858  0.20687639407434633  1.0000
  C   C50       1.0  0.8759973484478142  0.8231697645838761  0.22426958807559094  1.0000
  C   C51       1.0  0.8638624823059279  0.8689331832486065  0.23650637732975044  1.0000
  C   C52       1.0  0.8130205467862487  0.8843505963370513  0.22988941488141257  1.0000
  C   C53       1.0  0.7744432790922743  0.8540879447339367  0.21052715893264023  1.0000
  C   C54       1.0  0.7863364345807478  0.808112648920962  0.19992511432716895  1.0000
  H   H33       1.0  0.915349063598547  0.811608365084588  0.22885294731749628  1.0000
  H   H34       1.0  0.8939072708894649  0.8924238759024732  0.2507402678950199  1.0000
  H   H35       1.0  0.7353110042194071  0.8658496690958877  0.2042188719565691  1.0000
  H   H36       1.0  0.7561294854250609  0.7845977626822593  0.18636736741849846  1.0000
  C   C55       1.0  0.1804750848849674  0.6866164544881891  0.612494853104026  1.0000
  C   C56       1.0  0.19851416088777732  0.6447297513912457  0.6363371041898495  1.0000
  C   C57       1.0  0.16429310992389468  0.6141754223901663  0.6625260486480372  1.0000
  C   C58       1.0  0.11186150073023637  0.6249267144455828  0.6635481831508001  1.0000
  C   C59       1.0  0.09399222219321723  0.6665439255832127  0.6390634074377285  1.0000
  C   C60       1.0  0.1283118859326835  0.6976343880874035  0.6144334211930103  1.0000
  H   H37       1.0  0.23877499309705624  0.6359219213041037  0.6351669738686899  1.0000
  H   H38       1.0  0.17835141171899505  0.581985144633134  0.6814968887316106  1.0000
  H   H39       1.0  0.053721835186959055  0.6748432116544437  0.6384937418561403  1.0000
  H   H40       1.0  0.11410991351440436  0.7298510176855677  0.5956461506658374  1.0000
  C   C61       1.0  0.4227708469576034  0.6057667075217861  0.7033146654256508  1.0000
  C   C62       1.0  0.45203758438939223  0.6455514950347762  0.6986360250284229  1.0000
  C   C63       1.0  0.46011557440155537  0.6736400559793454  0.7491377868044719  1.0000
  C   C64       1.0  0.43827754540418995  0.6621158858645014  0.8039144856352213  1.0000
  C   C65       1.0  0.4103666081695941  0.6217018386530055  0.8088465906981106  1.0000
  C   C66       1.0  0.4025560519444085  0.5934259075260518  0.7586039364136843  1.0000
  H   H41       1.0  0.4678597813379671  0.655020317132811  0.6557763362695398  1.0000
  H   H42       1.0  0.4821090587509032  0.7047277597060924  0.7450885761839238  1.0000
  H   H43       1.0  0.3943977370172545  0.612472376860254  0.8512578503384112  1.0000
  H   H44       1.0  0.37944340818010075  0.5628988050423754  0.7621733589215661  1.0000
  C   C67       1.0  0.3402716419183547  0.635122383662671  0.29996575900666606  1.0000
  C   C68       1.0  0.3288645596780667  0.6232382413841022  0.2399003699235576  1.0000
  C   C69       1.0  0.3460125119734015  0.6508804167944977  0.19289476509201195  1.0000
  C   C70       1.0  0.37314008469240373  0.6910774233219478  0.2059512798112926  1.0000
  C   C71       1.0  0.38653290471598584  0.7017917753674332  0.2659792345349235  1.0000
  C   C72       1.0  0.37083597903038806  0.6733610692472829  0.3129378792084946  1.0000
  H   H45       1.0  0.3058576300115958  0.5933124621254405  0.22966587873036773  1.0000
  H   H46       1.0  0.33736452234412584  0.6413857928699171  0.1466742789104448  1.0000
  H   H47       1.0  0.40798282083137216  0.7325079686422389  0.276352530425457  1.0000
  H   H48       1.0  0.38107620626001426  0.6820239230904351  0.3592049674976959  1.0000
  C   C73       1.0  0.6860044519086979  0.1024097904665946  0.7200298691215844  1.0000
  C   C74       1.0  0.6843878108450283  0.15018078750436906  0.7135322023115496  1.0000
  C   C75       1.0  0.7079502806986235  0.17131369641079872  0.6647061690347941  1.0000
  C   C76       1.0  0.7345387972339684  0.14488215947051616  0.6235914346544374  1.0000
  C   C77       1.0  0.7374816198394427  0.09741834826199207  0.6311287826449437  1.0000
  C   C78       1.0  0.712432364764624  0.076211174608664  0.6785046198178398  1.0000
  H   H49       1.0  0.664131503990065  0.1709016557272812  0.7450141227241829  1.0000
  H   H50       1.0  0.7054710365818679  0.20799198366223617  0.6585603380873202  1.0000
  H   H51       1.0  0.7579886048989646  0.07679664190401025  0.5993852171072246  1.0000
  H   H52       1.0  0.7136871351378229  0.03948296521399919  0.6823883785979592  1.0000
  C   C79       1.0  0.6707492558273174  0.9432396950445815  0.5017948765931044  1.0000
  C   C80       1.0  0.6920990652913519  0.9528366627636943  0.4460248911481787  1.0000
  C   C81       1.0  0.6603882301931429  0.966137367865002  0.39614814086382233  1.0000
  C   C82       1.0  0.6072184935744774  0.9700567450081429  0.40195371269834734  1.0000
  C   C83       1.0  0.5858193740096335  0.9599153926205501  0.45747934208698265  1.0000
  C   C84       1.0  0.6175462349493988  0.9463470228853467  0.5072022985213376  1.0000
  H   H53       1.0  0.7332700062284044  0.950971531780441  0.4417142081871092  1.0000
  H   H54       1.0  0.6773950800602185  0.9743453630653657  0.3536687205225524  1.0000
  H   H55       1.0  0.5446843535084658  0.9623535241941721  0.46210589872459906  1.0000
  H   H56       1.0  0.6007073229485448  0.9379264254080629  0.5495644908952776  1.0000
  C   C85       1.0  0.6645932014344872  0.8529576881451809  0.9214735062356657  1.0000
  C   C86       1.0  0.6606992750672471  0.8123398849712705  0.9548776951950373  1.0000
  C   C87       1.0  0.6371238715859802  0.8125033371450505  0.010822408961829844  1.0000
  C   C88       1.0  0.6185353755714882  0.8535385466525048  0.03403155344009723  1.0000
  C   C89       1.0  0.622013529551891  0.8941287107077673  0.0003878068818616853  1.0000
  C   C90       1.0  0.644275436567234  0.8936519921520983  0.9436616832139948  1.0000
  H   H57       1.0  0.6754385273466499  0.7806266764003973  0.9371818792767787  1.0000
  H   H58       1.0  0.6342733289487192  0.7810855499277987  0.036731274590373175  1.0000
  H   H59       1.0  0.6073776833955093  0.9258739286587296  0.018163412281424263  1.0000
  H   H60       1.0  0.6468051295516883  0.9249561244600514  0.917900399115197  1.0000
  C   C91       1.0  0.4757804060192586  0.8717549896933697  0.6377221203063378  1.0000
  C   C92       1.0  0.5143875882219506  0.866231010145567  0.5961888526131301  1.0000
  C   C93       1.0  0.50791878349421  0.8354140323609335  0.5481573529193845  1.0000
  C   C94       1.0  0.463078668547788  0.8094171096244206  0.5420052993039668  1.0000
  C   C95       1.0  0.42403714217277877  0.815348007574721  0.5831136732115083  1.0000
  C   C96       1.0  0.4303038034432767  0.8466471593105259  0.6308041629968327  1.0000
  H   H61       1.0  0.5491758080913974  0.8859298892930374  0.6007526968700014  1.0000
  H   H62       1.0  0.5380614169037394  0.8312772225342393  0.5163033318032006  1.0000
  H   H63       1.0  0.3886677854719075  0.7965092563407806  0.5774098965088039  1.0000
  H   H64       1.0  0.4000147488436988  0.8514359217758352  0.6622207605079211  1.0000
  N   N1        1.0  0.5095503350435339  0.8248339983543961  0.847178387021401  1.0000
  C   C97       1.0  0.4610797276976235  0.8120483661826211  0.8148235240144474  1.0000
  C   C98       1.0  0.5521254226644507  0.8217474828922208  0.8051814956901682  1.0000
  C   C99       1.0  0.5198959516647933  0.7933652631656148  0.8989577153759291  1.0000
  C   C100      1.0  0.5051792632382774  0.8722292223527507  0.8695480718911638  1.0000
  H   H65       1.0  0.45111559867781736  0.8365535993211269  0.7773092547847765  1.0000
  H   H66       1.0  0.42854839005579776  0.8113123003242674  0.8458904175040289  1.0000
  H   H67       1.0  0.4641883327671949  0.7775965475897858  0.7942252718348825  1.0000
  H   H68       1.0  0.5448676994565023  0.844053356544178  0.7648506149933381  1.0000
  H   H69       1.0  0.5891752597404819  0.83226007819969  0.827293300604258  1.0000
  H   H70       1.0  0.5571880684220003  0.786210167475686  0.7883937053677714  1.0000
  H   H71       1.0  0.4869930838947838  0.7920512326500206  0.9295659001222916  1.0000
  H   H72       1.0  0.5542972209744418  0.804039041601843  0.9264382387061532  1.0000
  H   H73       1.0  0.5271564887069905  0.7577987228360812  0.8835360407654558  1.0000
  H   H74       1.0  0.5412802105181104  0.8832123567686687  0.893646455961138  1.0000
  H   H75       1.0  0.4735738452939632  0.8755125621447877  0.90168869751145  1.0000
  H   H76       1.0  0.4972054536845987  0.8968913630718617  0.8315935211798546  1.0000
  N   N2        1.0  0.29055704340723365  0.750476455362975  0.7519685522023667  1.0000
  C   C101      1.0  0.312875986200445  0.7617250607031862  0.8124646844626792  1.0000
  C   C102      1.0  0.30089268664996965  0.7017984447982348  0.7387792911055093  1.0000
  C   C103      1.0  0.3140432832725403  0.7796433791644922  0.7057262187823677  1.0000
  C   C104      1.0  0.23444833157212144  0.7586520780067363  0.7510130946063224  1.0000
  H   H77       1.0  0.30675284167544375  0.7984227535624094  0.8235717063617783  1.0000
  H   H78       1.0  0.3548537570439127  0.7544097398910973  0.8156502080908332  1.0000
  H   H79       1.0  0.2947309140926051  0.7412651850824686  0.8483572415812014  1.0000
  H   H80       1.0  0.3428673749012336  0.6942193534756417  0.7399442027031159  1.0000
  H   H81       1.0  0.28316608468535287  0.6786475657433422  0.7721550624988013  1.0000
  H   H82       1.0  0.2853252378722486  0.6925137462128621  0.6930030292366941  1.0000
  H   H83       1.0  0.3074078947970026  0.8166674236404567  0.7143465820336697  1.0000
  H   H84       1.0  0.297536590428182  0.7723180027294761  0.6595511837016765  1.0000
  H   H85       1.0  0.35628450551543805  0.7737539664816405  0.7046472677628751  1.0000
  H   H86       1.0  0.21621850257783165  0.7508733111226477  0.7059064494582329  1.0000
  H   H87       1.0  0.225225560408112  0.794944561311573  0.7614431188988343  1.0000
  H   H88       1.0  0.21548963700164525  0.7369345675769305  0.7851386700369476  1.0000
  N   N3        1.0  0.19934798845213075  0.7249211698164445  0.3079106143201592  1.0000
  C   C105      1.0  0.19240553836844243  0.6766698608419506  0.28959984091063373  1.0000
  C   C106      1.0  0.1652842268253647  0.7547581562646979  0.2697072046807088  1.0000
  C   C107      1.0  0.2533151638395956  0.73825719738196  0.30006581865836834  1.0000
  C   C108      1.0  0.18641277837801162  0.7299475465596514  0.3720791538443639  1.0000
  H   H89       1.0  0.20082980828897834  0.6717974331420814  0.24102098891837132  1.0000
  H   H90       1.0  0.1523129498516993  0.6651244725630417  0.2960055610662211  1.0000
  H   H91       1.0  0.21858168177771997  0.6533804854812542  0.31651316858287043  1.0000
  H   H92       1.0  0.170789700584022  0.7916519497921255  0.28035720902004924  1.0000
  H   H93       1.0  0.17257158196057776  0.7505102267038488  0.2207251903951687  1.0000
  H   H94       1.0  0.12406096478453454  0.7470557140440991  0.27606692623577367  1.0000
  H   H95       1.0  0.2646201083696902  0.7338390090366653  0.25230329917038674  1.0000
  H   H96       1.0  0.27988594177983184  0.7169289158882807  0.32904575231742805  1.0000
  H   H97       1.0  0.25998419079565105  0.7746768704306928  0.31243816953032144  1.0000
  H   H98       1.0  0.19162835427133862  0.7658748384080009  0.3876207631743312  1.0000
  H   H99       1.0  0.2111258955002222  0.7076239758644028  0.4022154919749058  1.0000
  H   H100      1.0  0.1456562066449334  0.720500190759818  0.3791947216161339  1.0000
  N   N4        1.0  0.5175294247849641  0.4809744978113374  0.718438463461778  1.0000
  C   C109      1.0  0.522594828685264  0.4399840775365717  0.6801861332893583  1.0000
  C   C110      1.0  0.46486251770820536  0.48333848506743615  0.7407949496186298  1.0000
  C   C111      1.0  0.5278986164917128  0.5224301869909904  0.6822402734582298  1.0000
  C   C112      1.0  0.5547276014566856  0.4782383021743608  0.7705809185978038  1.0000
  H   H101      1.0  0.5621600888722039  0.43647084457215873  0.6633651018381018  1.0000
  H   H102      1.0  0.49557995542440764  0.4414477532622072  0.6399249385441238  1.0000
  H   H103      1.0  0.5141144412474911  0.4080181582349992  0.7055400998094811  1.0000
  H   H104      1.0  0.4356845750717917  0.4869007118207818  0.7028490506724575  1.0000
  H   H105      1.0  0.4554705729534124  0.4521745087581188  0.7674755961802248  1.0000
  H   H106      1.0  0.46019013256354047  0.5131267181150635  0.7711362434267618  1.0000
  H   H107      1.0  0.5220427963739772  0.5542112155247889  0.7087492359530314  1.0000
  H   H108      1.0  0.5017256990117844  0.5247380783029837  0.6412763022754149  1.0000
  H   H109      1.0  0.5679390172891121  0.5225083785645861  0.6665169988234455  1.0000
  H   H110      1.0  0.552277809485251  0.5090644711030383  0.7997330254391227  1.0000
  H   H111      1.0  0.5948740635359672  0.4750355857475747  0.7556577375317362  1.0000
  H   H112      1.0  0.5469977638757575  0.44817358700032206  0.7998969738700314  1.0000
  N   N5        1.0  0.6265115966644473  0.10732207752078071  0.4755709693969942  1.0000
  C   C113      1.0  0.6686320997796453  0.07333479302394053  0.4828958340917682  1.0000
  C   C114      1.0  0.5821783364943123  0.08635376213022394  0.44277901259234653  1.0000
  C   C115      1.0  0.6443833051134491  0.14719666149990532  0.44074860113615005  1.0000
  C   C116      1.0  0.610858313826858  0.12241539349988007  0.5358235466323369  1.0000
  H   H113      1.0  0.7034074990484926  0.08861272828371636  0.5053744704106209  1.0000
  H   H114      1.0  0.6801338187042753  0.059802477385963344  0.43846554293435336  1.0000
  H   H115      1.0  0.6572883461587824  0.04352903139404152  0.5110167348038733  1.0000
  H   H116      1.0  0.5678963320226913  0.05592001292795423  0.467493159761922  1.0000
  H   H117      1.0  0.5496128032376894  0.11097144466113013  0.43646106766535897  1.0000
  H   H118      1.0  0.5925934503405977  0.07463240389633108  0.3970329177868893  1.0000
  H   H119      1.0  0.6137207847373201  0.17379993250663192  0.4346392353570925  1.0000
  H   H120      1.0  0.6563533125771327  0.1368913310005825  0.39508516675333455  1.0000
  H   H121      1.0  0.6780419621119169  0.1637246144253866  0.46412394812918073  1.0000
  H   H122      1.0  0.5785960872407163  0.14754636154024722  0.5320842112534965  1.0000
  H   H123      1.0  0.6431199353700371  0.13933416187025924  0.5610706635314163  1.0000
  H   H124      1.0  0.5985370751549113  0.09295344421188735  0.5639575340712188  1.0000
  N   N6        1.0  0.4514758480199098  0.5112683181781615  0.14287313954901976  1.0000
  C   C117      1.0  0.44585995705018283  0.5574537899542636  0.16899524599426338  1.0000
  C   C118      1.0  0.4012947417936682  0.48786193603719336  0.14209218932747444  1.0000
  C   C119      1.0  0.4894313766251006  0.48424909549218015  0.179875743438805  1.0000
  C   C120      1.0  0.46916921075411805  0.5154656974704744  0.08034800564356573  1.0000
  H   H125      1.0  0.4829613501861832  0.5761919848122504  0.17045184770129657  1.0000
  H   H126      1.0  0.4320644091441485  0.5557175777153741  0.21602351552190785  1.0000
  H   H127      1.0  0.4175339096788566  0.5786477730082937  0.14180374348257732  1.0000
  H   H128      1.0  0.38704538645856124  0.4835579949785647  0.18857970658883536  1.0000
  H   H129      1.0  0.37154502316259974  0.5076926632764729  0.11528241660763504  1.0000
  H   H130      1.0  0.40376431044951094  0.4532462744445734  0.12149498513812927  1.0000
  H   H131      1.0  0.49421046001892727  0.4490734234284655  0.16157167490203825  1.0000
  H   H132      1.0  0.47776448270409905  0.48059121693064255  0.22754567447389681  1.0000
  H   H133      1.0  0.5281124170594702  0.5003540479470299  0.18077279873504037  1.0000
  H   H134      1.0  0.472868763234504  0.48130890582792313  0.05873353546852722  1.0000
  H   H135      1.0  0.5073602465550918  0.5322518972090551  0.07922326544133429  1.0000
  H   H136      1.0  0.44179563023441853  0.5362109482864377  0.05139957663805217  1.0000
  N   N7        1.0  0.6706879661232353  0.21377052214056969  0.2138028902520719  1.0000
  C   C121      1.0  0.6903645068507711  0.2008450398629525  0.15447806236764453  1.0000
  C   C122      1.0  0.6140945144811857  0.2096346336581989  0.21194098473140377  1.0000
  C   C123      1.0  0.6853609287845964  0.26153313442993215  0.22764197628014418  1.0000
  C   C124      1.0  0.6929706084192943  0.18291974326187965  0.2613452345102468  1.0000
  H   H137      1.0  0.7327975128768748  0.2045465135693743  0.15362963541691307  1.0000
  H   H138      1.0  0.6730524879241844  0.22263096261040943  0.11739427324851258  1.0000
  H   H139      1.0  0.6813391197199101  0.16452830923663034  0.143602608299502  1.0000
  H   H140      1.0  0.5980685192294938  0.21799229039793125  0.2565011856275331  1.0000
  H   H141      1.0  0.5955588077138343  0.2332396210861624  0.17766564980468097  1.0000
  H   H142      1.0  0.6017012881066833  0.17428531454496873  0.20010795020641858  1.0000
  H   H143      1.0  0.6748895136951697  0.27105344624231326  0.2741490623074927  1.0000
  H   H144      1.0  0.6657717382452742  0.2863781531306565  0.19586283033601024  1.0000
  H   H145      1.0  0.7274834440555917  0.2667215060587389  0.22515610895972088  1.0000
  H   H146      1.0  0.6788638395970428  0.19208645763347737  0.30668606733684356  1.0000
  H   H147      1.0  0.7356455166745958  0.18508608213251657  0.26407039753873807  1.0000
  H   H148      1.0  0.6825395620394429  0.14655336174141861  0.25243142093185544  1.0000
  N   N8        1.0  0.8036011839365781  0.3881127231336451  0.8130741492979904  1.0000
  C   C125      1.0  0.8000469629390915  0.3450964203784944  0.8482552428311232  1.0000
  C   C126      1.0  0.8375864126035074  0.3808908082675863  0.7619249805904188  1.0000
  C   C127      1.0  0.8248993086550658  0.424580257961631  0.8526156089365223  1.0000
  C   C128      1.0  0.7518706234067614  0.4019254088336761  0.7895216114180288  1.0000
  H   H149      1.0  0.7851111162389895  0.3167091677752021  0.8194155372508518  1.0000
  H   H150      1.0  0.7736977254636286  0.34889629744857115  0.886432380366579  1.0000
  H   H151      1.0  0.8381789495754756  0.33415348567947295  0.8678383400998633  1.0000
  H   H152      1.0  0.8425589578684071  0.41306221133824234  0.7357058235174859  1.0000
  H   H153      1.0  0.8765566791001891  0.3692037056661762  0.7778204086695164  1.0000
  H   H154      1.0  0.8216439002307051  0.35491079850867974  0.7297448144974343  1.0000
  H   H155      1.0  0.8640713980263409  0.41557797971715243  0.8709460828960084  1.0000
  H   H156      1.0  0.8001109792611792  0.4309046780766789  0.8916278125303047  1.0000
  H   H157      1.0  0.8280154525397405  0.45760816900908646  0.827411787457443  1.0000
  H   H158      1.0  0.7530024324636129  0.4355576912214538  0.7656087551635451  1.0000
  H   H159      1.0  0.7244347214280513  0.40528998429795  0.8266269879893037  1.0000
  H   H160      1.0  0.7356127241341872  0.3764622643072544  0.7568550235173523  1.0000
  N   N9        1.0  0.5570219479459854  0.18791727580950615  0.8446971897612726  1.0000
  C   C129      1.0  0.5174642552918969  0.18736829155621287  0.8909104300447307  1.0000
  C   C130      1.0  0.6085790837419603  0.1855722591482231  0.8750194551456326  1.0000
  C   C131      1.0  0.5524092421630207  0.23053256135169647  0.8082521091393217  1.0000
  C   C132      1.0  0.549651474982465  0.1480107939229399  0.8045585532943403  1.0000
  H   H161      1.0  0.5215635103833187  0.21685394375192463  0.922198761529453  1.0000
  H   H162      1.0  0.5202649031459154  0.155763593931421  0.9194351884693612  1.0000
  H   H163      1.0  0.47797195914065976  0.1891167660744181  0.8699355854100553  1.0000
  H   H164      1.0  0.6394753484855427  0.18633637880989526  0.8418143675098793  1.0000
  H   H165      1.0  0.6152392632118592  0.21511571465365747  0.9059113400200204  1.0000
  H   H166      1.0  0.6137387254550148  0.15352826534644595  0.9021822102813528  1.0000
  H   H167      1.0  0.5136631801714179  0.23410343786993512  0.7856642204336006  1.0000
  H   H168      1.0  0.5812497095086635  0.2315571029751484  0.7723549010541388  1.0000
  H   H169      1.0  0.5590453121801909  0.2613558285120608  0.8366492131188723  1.0000
  H   H170      1.0  0.577711397557528  0.14796370230309525  0.7679149841028109  1.0000
  H   H171      1.0  0.5105525257721338  0.14788120692906861  0.7824476845835613  1.0000
  H   H172      1.0  0.5550078069617356  0.11512592745862586  0.8299572754360416  1.0000
  N   N10       1.0  0.1552536203598065  0.5686659708739673  0.47433100415607105  1.0000
  C   C133      1.0  0.17334278839164763  0.5444983620567646  0.530253995249795  1.0000
  C   C134      1.0  0.1538494032106934  0.6184974994452537  0.48543744313981113  1.0000
  C   C135      1.0  0.10306843835159585  0.5527032079573984  0.45664598563984227  1.0000
  C   C136      1.0  0.19051077802216887  0.559038193379231  0.42510917865690484  1.0000
  H   H173      1.0  0.14649238500212758  0.5499757983322549  0.5676183458985233  1.0000
  H   H174      1.0  0.21178418318945424  0.5568326352308903  0.5464052678767923  1.0000
  H   H175      1.0  0.17644934721231653  0.5069174325219571  0.5230790151478054  1.0000
  H   H176      1.0  0.13827568344800323  0.6377422008326946  0.4451004086636342  1.0000
  H   H177      1.0  0.12926387417831764  0.6267310412685622  0.5238971237184494  1.0000
  H   H178      1.0  0.19268114397875458  0.6322267229828086  0.4969280469637853  1.0000
  H   H179      1.0  0.10242199488721582  0.5150795069230213  0.44904334950685226  1.0000
  H   H180      1.0  0.08843668992348963  0.5695667849803474  0.4140121161021915  1.0000
  H   H181      1.0  0.07521858536509507  0.5605731684344936  0.49218842531085205  1.0000
  H   H182      1.0  0.1921786275092885  0.5218243346958255  0.414807183752889  1.0000
  H   H183      1.0  0.2304175546834808  0.5701296245317664  0.43720128526404567  1.0000
  H   H184      1.0  0.17825556670678067  0.5773741124327862  0.38255060916582434  1.0000
  N   N11       1.0  0.8109834283196152  0.8366187021550386  0.4221168272546251  1.0000
  C   C137      1.0  0.8256411276188719  0.8823643838558887  0.39964191644756936  1.0000
  C   C138      1.0  0.8549708618357922  0.8154555378904609  0.4564860314571267  1.0000
  C   C139      1.0  0.7961830554055477  0.8072678933366502  0.3701487370812448  1.0000
  C   C140      1.0  0.7671183854970266  0.8414211560802126  0.46213452747467226  1.0000
  H   H185      1.0  0.8366432312880332  0.9056807296398205  0.4375594115036648  1.0000
  H   H186      1.0  0.7933870418394005  0.8990976414827752  0.37304219420049783  1.0000
  H   H187      1.0  0.8586426948291758  0.8802170056431312  0.36924998874119724  1.0000
  H   H188      1.0  0.8887912455185767  0.8111905936375431  0.4277004279616934  1.0000
  H   H189      1.0  0.8671764596816998  0.8366568297314045  0.4961228477705756  1.0000
  H   H190      1.0  0.84520740485702  0.7808345379732946  0.47419815440658164  1.0000
  H   H191      1.0  0.7842103940918236  0.7726496718880368  0.38530573600919826  1.0000
  H   H192      1.0  0.8287549778430224  0.8024692567776109  0.339601627036607  1.0000
  H   H193      1.0  0.7638342496246332  0.8226708812654023  0.34237083025397064  1.0000
  H   H194      1.0  0.7331272244602172  0.8572133531067669  0.4378353369856401  1.0000
  H   H195      1.0  0.776908137840484  0.8637174764507618  0.5016170710363199  1.0000
  H   H196      1.0  0.7551546627948075  0.8077106024176364  0.4805257346699596  1.0000
  N   N12       1.0  0.7386425341014328  0.016193071646146025  0.9299621463571554  1.0000
  C   C141      1.0  0.7618168061203423  0.03506090026865661  0.9865238553522451  1.0000
  C   C142      1.0  0.758914243900649  0.04077770672253678  0.8773627090762224  1.0000
  C   C143      1.0  0.6822487328232139  0.022079692618806053  0.9299540311095341  1.0000
  C   C144      1.0  0.7515220284523921  0.966925458838163  0.9260890818814738  1.0000
  H   H197      1.0  0.7524557358704292  0.07211446568494018  0.9911630482060562  1.0000
  H   H198      1.0  0.8043605235923483  0.031247400239478255  0.9884097808212892  1.0000
  H   H199      1.0  0.7470122337713394  0.01741810538087818  0.027107087689696607  1.0000
  H   H200      1.0  0.7484347604460725  0.07781466361204092  0.87774144284818  1.0000
  H   H201      1.0  0.8014822310551305  0.038034067633234914  0.8764708975534471  1.0000
  H   H202      1.0  0.7429513886340787  0.02675178408210943  0.8339070079528192  1.0000
  H   H203      1.0  0.6634820913463167  0.008998757966485416  0.8875152881015085  1.0000
  H   H204      1.0  0.6712649081721238  0.05885129073344487  0.9335980803585925  1.0000
  H   H205      1.0  0.6655336780693909  0.0038202712206409925  0.9689280681358783  1.0000
  H   H206      1.0  0.7341684868222873  0.9513426873149976  0.8842482396086311  1.0000
  H   H207      1.0  0.737220807101599  0.9474038050243069  0.9654421905310636  1.0000
  H   H208      1.0  0.7937579594752439  0.9612563418134623  0.9253025094817587  1.0000
  N   N13       1.0  0.5077460499611333  0.8293969852830213  0.27308758097997965  1.0000
  C   C145      1.0  0.4823364601918274  0.8061169660080386  0.22085265498025816  1.0000
  C   C146      1.0  0.5048118557700217  0.8795582408369835  0.2636478577653835  1.0000
  C   C147      1.0  0.5622430589241305  0.8150584557709659  0.2784088515308426  1.0000
  C   C148      1.0  0.4818788679392995  0.8169541822280554  0.32927622878653695  1.0000
  H   H209      1.0  0.48432700213040186  0.7681647552409833  0.22582154326894957  1.0000
  H   H210      1.0  0.5006692356890832  0.8151126365447463  0.1776297224382912  1.0000
  H   H211      1.0  0.4409356157244703  0.8156080583124552  0.2155243611000442  1.0000
  H   H212      1.0  0.5237496791328535  0.8983065076731885  0.30213413064547695  1.0000
  H   H213      1.0  0.5241546610775115  0.8900507268373476  0.22168858200586536  1.0000
  H   H214      1.0  0.46428761207246466  0.8917554697700248  0.2593324016876532  1.0000
  H   H215      1.0  0.582824721287393  0.8326626454108322  0.3166776790841811  1.0000
  H   H216      1.0  0.582627809533372  0.823380359486489  0.23632183101939003  1.0000
  H   H217      1.0  0.5659859061897703  0.7774817931537032  0.28631212187380284  1.0000
  H   H218      1.0  0.49997753226280434  0.8339916394570288  0.36968065712919423  1.0000
  H   H219      1.0  0.48356477068922366  0.7793605219175238  0.33822190110593636  1.0000
  H   H220      1.0  0.44061908588181603  0.827122533064372  0.3269219308468578  1.0000
  N   N14       1.0  0.11797671089147845  0.6167008007253988  0.8898067342091168  1.0000
  C   C149      1.0  0.12281076758966925  0.6387065996187657  0.9497814087875234  1.0000
  C   C150      1.0  0.0631643964207036  0.6086225543389874  0.8738093072307743  1.0000
  C   C151      1.0  0.1459906935978248  0.5725158199740119  0.8918713031891814  1.0000
  C   C152      1.0  0.13991887920686774  0.6469372988099984  0.843680437083389  1.0000
  H   H221      1.0  0.1636922104237917  0.6451479516916506  0.9635190610331658  1.0000
  H   H222      1.0  0.10589654434956654  0.61721049685642  0.9856780750455213  1.0000
  H   H223      1.0  0.10269178821481639  0.6723688849743145  0.9496330247282105  1.0000
  H   H224      1.0  0.05811247688075705  0.5916544299224672  0.8290244658466948  1.0000
  H   H225      1.0  0.0450707517873119  0.5864328082633442  0.9080492112866997  1.0000
  H   H226      1.0  0.04099572586794542  0.6413312412237178  0.8710582263723385  1.0000
  H   H227      1.0  0.1301416924367309  0.5489100051584931  0.9261706367827709  1.0000
  H   H228      1.0  0.18748091782589232  0.5773138437858872  0.9043024669369935  1.0000
  H   H229      1.0  0.14328683950825938  0.5550744918970796  0.8472082473323773  1.0000
  H   H230      1.0  0.13566782745208483  0.6318659375621327  0.7976248794605062  1.0000
  H   H231      1.0  0.18147422208796748  0.653088528734658  0.8537174950659475  1.0000
  H   H232      1.0  0.12039581287161383  0.6810127591662707  0.8421755480377854  1.0000
  N   N15       1.0  0.8258987510286516  0.5561572305161423  0.44055841003444524  1.0000
  C   C153      1.0  0.8540725098263503  0.5613208117839926  0.38415520009473975  1.0000
  C   C154      1.0  0.7905033427279726  0.5954485064295562  0.4468028044870854  1.0000
  C   C155      1.0  0.8628850872934909  0.5549195346988479  0.49288401245479446  1.0000
  C   C156      1.0  0.7963155333703685  0.5130629363458814  0.43874136133230396  1.0000
  H   H233      1.0  0.8810494096263788  0.5321478384957307  0.37804614555744087  1.0000
  H   H234      1.0  0.877203112259172  0.5933438141561803  0.38445358506465654  1.0000
  H   H235      1.0  0.8273379541138653  0.5627758239730378  0.3436440004866627  1.0000
  H   H236      1.0  0.8117510644274708  0.6284706494718864  0.44805251456967204  1.0000
  H   H237      1.0  0.7615869458301294  0.5973565920559314  0.40847169514761594  1.0000
  H   H238      1.0  0.7694484008647674  0.5930868458691901  0.489605403957897  1.0000
  H   H239      1.0  0.8428343541603047  0.5519013153543968  0.5363163124585951  1.0000
  H   H240      1.0  0.8862389418255903  0.5866844933902268  0.4953134923956325  1.0000
  H   H241      1.0  0.8899092869132222  0.5254169610826057  0.49043302516681875  1.0000
  H   H242      1.0  0.7752422416965349  0.5077402508243136  0.4811088525952003  1.0000
  H   H243      1.0  0.8218797606263584  0.48267219472518996  0.43388543389121037  1.0000
  H   H244      1.0  0.7676067885137904  0.5126935702892086  0.4001456135241207  1.0000
  N   N16       1.0  0.8158297967886718  0.7552443365817668  0.9984719735911238  1.0000
  C   C157      1.0  0.8115746480938377  0.78766839613786  0.9467827785842375  1.0000
  C   C158      1.0  0.8682803863412369  0.7569179081476592  0.026200975670500393  1.0000
  C   C159      1.0  0.805189536402684  0.7083338767798827  0.976794902624374  1.0000
  C   C160      1.0  0.7785568856592164  0.7678266376331004  0.044342912726169637  1.0000
  H   H245      1.0  0.8392577597217235  0.7787802639937565  0.9113563729587071  1.0000
  H   H246      1.0  0.8195678996966208  0.8234022522176894  0.961281188002819  1.0000
  H   H247      1.0  0.7724729027696221  0.7873072661569984  0.9245759268516512  1.0000
  H   H248      1.0  0.873215511940119  0.7315133830514462  0.06382452656890236  1.0000
  H   H249      1.0  0.8976521407983526  0.749078890970829  0.9926120697938065  1.0000
  H   H250      1.0  0.8771424161802408  0.7912430312998452  0.04542009272962244  1.0000
  H   H251      1.0  0.7658352164364132  0.7057010275798387  0.9557458896331875  1.0000
  H   H252      1.0  0.8088657080580527  0.6828166715831305  0.014422232072659691  1.0000
  H   H253      1.0  0.8325852675312055  0.6979505970717788  0.9419283207424881  1.0000
  H   H254      1.0  0.7384283392820522  0.7660602693777595  0.025750043228613517  1.0000
  H   H255      1.0  0.785113468981235  0.8032438675165173  0.06123812171286236  1.0000
  H   H256      1.0  0.7817938403949977  0.7444084905530952  0.08435759869770587  1.0000
