data_image0
_chemical_formula_structural       FeS2FeS2FeSFeS3FeS2FeS2FeSFeS3FeS2FeS2FeSFeS3FeS2FeS2FeSFeS3FeS2FeS2FeSFeS3FeS2FeS2FeSFeS3FeS2FeS2FeSFeS3FeS2FeS2FeSFeS3FeS2FeS2FeSFeS3FeS2FeS2FeSFeS3FeS2FeS2FeSFeS3FeS2FeS2FeSFeS3C6H4C6H4C6H4C6H4C6H4C6H4C6H4C6H4C6H4C6H4C6H4C6H4C6H4C6H4C6H4C6H4C6H4C6H4C6H4C6H4C6H4C6H4C6H4C6H4NC4H12NC4H12NC4H12NC4H12NC4H12NC4H12NC4H12NC4H12NC4H12NC4H12NC4H12NC4H12NC4H12NC4H12NC4H12NC4H12NC4H12NC4H12NC4H12NC4H12NC4H12NC4H12NC4H12NC4H12
_chemical_formula_sum              "Fe48 S96 C240 H384 N24"
_cell_length_a       33.911594010053534
_cell_length_b       34.14900132157854
_cell_length_c       44.1240598478287
_cell_angle_alpha    90.06539174108694
_cell_angle_beta     89.94545062550479
_cell_angle_gamma    119.67350119304271

_space_group_name_H-M_alt    "P 1"
_space_group_IT_number       1

loop_
  _space_group_symop_operation_xyz
  'x, y, z'

loop_
  _atom_site_type_symbol
  _atom_site_label
  _atom_site_symmetry_multiplicity
  _atom_site_fract_x
  _atom_site_fract_y
  _atom_site_fract_z
  _atom_site_occupancy
  Fe  Fe1       1.0  0.20100963045248912  0.4177422621391358  0.1626258746282654  1.0000
  S   S1        1.0  0.15217305919226032  0.34339268541787327  0.1595357523281732  1.0000
  S   S2        1.0  0.26548784567554484  0.4479362302851731  0.19005986754877888  1.0000
  Fe  Fe2       1.0  0.1576343554078194  0.4423287956822372  0.11107238565506217  1.0000
  S   S3        1.0  0.10582649155372979  0.3695582508657657  0.1029388705009021  1.0000
  S   S4        1.0  0.16916699726413134  0.5004449053474956  0.07983032994433142  1.0000
  Fe  Fe3       1.0  0.09880203661324888  0.3637249899629631  0.15377872628084452  1.0000
  S   S5        1.0  0.026909385508078865  0.33138763274456623  0.17285968856145167  1.0000
  Fe  Fe4       1.0  0.1625666217487401  0.3538978589689737  0.10906604005396414  1.0000
  S   S6        1.0  0.1671688962395894  0.3004154541100962  0.0806875071701699  1.0000
  S   S7        1.0  0.14723979114328817  0.43800288740615373  0.16151742625498336  1.0000
  S   S8        1.0  0.21477319791812163  0.42669864455619283  0.11271214593965313  1.0000
  Fe  Fe5       1.0  0.2851104313719679  0.43061739699727775  0.358168845655936  1.0000
  S   S9        1.0  0.25715669347079195  0.356023898947085  0.35412796813676917  1.0000
  S   S10       1.0  0.25795968736782826  0.4684327180533783  0.33189745447715424  1.0000
  Fe  Fe6       1.0  0.35051397787321603  0.4419074930814245  0.408631263612398  1.0000
  S   S11       1.0  0.3260421237517969  0.3674521610051985  0.41006436081897624  1.0000
  S   S12       1.0  0.4057626042899022  0.4889659670051096  0.44115315622330453  1.0000
  Fe  Fe7       1.0  0.3296756312186805  0.37179881108667334  0.3591952458536722  1.0000
  S   S13       1.0  0.3747797402774295  0.35274185745855474  0.3319762835553065  1.0000
  Fe  Fe8       1.0  0.2554593454431511  0.35776812068574343  0.4053350488368659  1.0000
  S   S14       1.0  0.19267281056571817  0.30435599550439113  0.4298017930937605  1.0000
  S   S15       1.0  0.35765301644079495  0.4470019886157746  0.3582146739396097  1.0000
  S   S16       1.0  0.27968024793315827  0.4315775457754438  0.4087733947729172  1.0000
  Fe  Fe9       1.0  0.27870710569107277  0.8547077653142681  0.8293299056838992  1.0000
  S   S17       1.0  0.25090951487425084  0.9020243237328215  0.8290452473606197  1.0000
  S   S18       1.0  0.2389306001876513  0.7925721630955678  0.8577187737115364  1.0000
  Fe  Fe10      1.0  0.346994217807311  0.9049636484407704  0.7791119452292342  1.0000
  S   S19       1.0  0.3221600691475135  0.9551559461670763  0.7740484871137244  1.0000
  S   S20       1.0  0.40204703585583706  0.9093091052968594  0.7469782722573338  1.0000
  Fe  Fe11      1.0  0.32329161760727476  0.9575206655272904  0.8251283321527385  1.0000
  S   S21       1.0  0.3601377787054748  0.0207327532209712  0.854746612598915  1.0000
  Fe  Fe12      1.0  0.25137777478782686  0.8950177019386106  0.7782738212824833  1.0000
  S   S22       1.0  0.18471319563681618  0.8802293546773081  0.7556330297176594  1.0000
  S   S23       1.0  0.35146044881889527  0.9100217511207807  0.829926860781578  1.0000
  S   S24       1.0  0.2760506593449615  0.8451690325124115  0.7789449841066953  1.0000
  Fe  Fe13      1.0  0.15759274743056964  0.728912028698653  0.07310286952513075  1.0000
  S   S25       1.0  0.11206152473719953  0.759728295146288  0.07328525973028324  1.0000
  S   S26       1.0  0.1364875388965952  0.6670157715873842  0.10314130193418512  1.0000
  Fe  Fe14      1.0  0.21970391498565345  0.7961787853328705  0.025731426873944897  1.0000
  S   S27       1.0  0.17820827134024073  0.8304364165071472  0.021464109840145927  1.0000
  S   S28       1.0  0.28298224633072977  0.8208885268288106  0.9976092657618449  1.0000
  Fe  Fe15      1.0  0.17684693036323815  0.8272399578612221  0.0725968174848489  1.0000
  S   S29       1.0  0.1860305746277286  0.8878595250613432  0.10034785768893559  1.0000
  Fe  Fe16      1.0  0.117403429437344  0.7604725062980611  0.022408930530600685  1.0000
  S   S30       1.0  0.06120576294494695  0.72663362290561  0.9868715903826857  1.0000
  S   S31       1.0  0.2217212753177552  0.7963863553535437  0.07669672999127813  1.0000
  S   S32       1.0  0.1600575548267631  0.726581616245499  0.022547843608831653  1.0000
  Fe  Fe17      1.0  0.7157953567546724  0.8920427524204032  0.7452607394070107  1.0000
  S   S33       1.0  0.6414210938342418  0.8429611733375196  0.7435500382492747  1.0000
  S   S34       1.0  0.7625242115902611  0.8819273403534885  0.7776985247495691  1.0000
  Fe  Fe18      1.0  0.7079848365313111  0.9565524026618009  0.69999621191095  1.0000
  S   S35       1.0  0.6320324122841258  0.9112673064424038  0.695760674634277  1.0000
  S   S36       1.0  0.7333192104577024  0.02114332756974111  0.6723601760454865  1.0000
  Fe  Fe19      1.0  0.6312969566207519  0.9030991059646968  0.7461382533144935  1.0000
  S   S37       1.0  0.5787051656691634  0.8968753196724034  0.7808402134304323  1.0000
  Fe  Fe20      1.0  0.6482946366177998  0.8553160754831789  0.6935411703940522  1.0000
  S   S38       1.0  0.6105131836272295  0.7953342884037785  0.662870118745968  1.0000
  S   S39       1.0  0.7058703792893164  0.9523753739325508  0.7510366180088237  1.0000
  S   S40       1.0  0.7240286642671852  0.9002082013321019  0.6943659453282693  1.0000
  Fe  Fe21      1.0  0.6675231545810363  0.8011355671117747  0.49423294800590784  1.0000
  S   S41       1.0  0.7402458825173801  0.8199010382980543  0.48680461398977526  1.0000
  S   S42       1.0  0.6580072051828016  0.8481320938205604  0.5252497790831325  1.0000
  Fe  Fe22      1.0  0.6317600652697765  0.7271064329698516  0.4454262952787794  1.0000
  S   S43       1.0  0.7026438105984701  0.7414195917496508  0.4350249991831107  1.0000
  S   S44       1.0  0.5765476943176906  0.6814671138858255  0.4118281276352544  1.0000
  Fe  Fe23      1.0  0.7133918169357751  0.7450655256112333  0.4856133452001113  1.0000
  S   S45       1.0  0.7368929085612402  0.7027166654866374  0.512082661910836  1.0000
  Fe  Fe24      1.0  0.7223406703424735  0.8149755244863637  0.43731170408641484  1.0000
  S   S46       1.0  0.7665468725826323  0.8667965700039619  0.4017409468569211  1.0000
  S   S47       1.0  0.6408168009268297  0.7263857673702285  0.4960544437766873  1.0000
  S   S48       1.0  0.6512923673862858  0.8004307005139356  0.4449795573782363  1.0000
  Fe  Fe25      1.0  0.9327370909361105  0.2221470692937966  0.5837711861336011  1.0000
  S   S49       1.0  0.8756941141478698  0.23412962467834417  0.571180173218598  1.0000
  S   S50       1.0  0.924133601188246  0.16632863055096597  0.6162097152186314  1.0000
  Fe  Fe26      1.0  0.9993516960029122  0.2955949689674321  0.5385735672631168  1.0000
  S   S51       1.0  0.9451568011754735  0.3106769077509448  0.5224835651157428  1.0000
  S   S52       1.0  0.071770343885645  0.34400650565909335  0.5227729583590393  1.0000
  Fe  Fe27      1.0  0.9272968456192169  0.3084976384752377  0.5719226822075592  1.0000
  S   S53       1.0  0.9219632630453979  0.36099335136486943  0.6013288098455469  1.0000
  Fe  Fe28      1.0  0.8994349743274479  0.23526892172493408  0.5233862876122485  1.0000
  S   S54       1.0  0.8511407597932811  0.18433702979097577  0.4897185374244785  1.0000
  S   S55       1.0  0.9831059344637626  0.2960878205371916  0.5880256957296169  1.0000
  S   S56       1.0  0.9548453198117747  0.22047617206085535  0.5358789919779797  1.0000
  Fe  Fe29      1.0  0.832889846868635  0.1368418301783329  0.27049646654932746  1.0000
  S   S57       1.0  0.80858554773331  0.1870513450495718  0.27224937833296775  1.0000
  S   S58       1.0  0.8997638363560666  0.15230581470666563  0.24775451532768775  1.0000
  Fe  Fe30      1.0  0.7576739475531933  0.07114540798854735  0.3142613799779017  1.0000
  S   S59       1.0  0.7293377294750565  0.11835138437272302  0.3190315300973362  1.0000
  S   S60       1.0  0.7171942275799198  0.00836706980731794  0.3435246108587183  1.0000
  Fe  Fe31      1.0  0.7379436407663651  0.12744062768444453  0.268756664135548  1.0000
  S   S61       1.0  0.6856223243028948  0.12700655177327244  0.23598250296503337  1.0000
  Fe  Fe32      1.0  0.8019122499910071  0.17300874263471808  0.3222229322337562  1.0000
  S   S62       1.0  0.8279211268312082  0.23092492143325657  0.3552863460239802  1.0000
  S   S63       1.0  0.7624624321685656  0.07715905944015657  0.2632640622494529  1.0000
  S   S64       1.0  0.829821471380205  0.1258760688336203  0.32106341174443886  1.0000
  Fe  Fe33      1.0  0.4242681392782001  0.24352238996792766  0.9957443642342618  1.0000
  S   S65       1.0  0.34977524224141593  0.2203828609847436  0.9934910413313293  1.0000
  S   S66       1.0  0.44742003853567947  0.20447914926441965  0.024546751388417463  1.0000
  Fe  Fe34      1.0  0.4495002307543017  0.31174071487935  0.9442622298169268  1.0000
  S   S67       1.0  0.3762764850761957  0.29266955069608164  0.9379600900904397  1.0000
  S   S68       1.0  0.4974353360395821  0.36194316510221985  0.9091114330643038  1.0000
  Fe  Fe35      1.0  0.37232525651772275  0.2942928862101027  0.9888745863168646  1.0000
  S   S69       1.0  0.3505187543318809  0.3398152447307971  0.01305224957247586  1.0000
  Fe  Fe36      1.0  0.3603835643555339  0.22056568730085277  0.9430117929030315  1.0000
  S   S70       1.0  0.31215294182442915  0.1643207481095565  0.9113170886574047  1.0000
  S   S71       1.0  0.44695062355563797  0.3175215968095592  0.9948919545666058  1.0000
  S   S72       1.0  0.43352815732855815  0.23963319792785379  0.9457376945868691  1.0000
  Fe  Fe37      1.0  0.3870204074076175  0.09184339697293742  0.19535292679792574  1.0000
  S   S73       1.0  0.4627821239175363  0.13813403370608293  0.1929309206243848  1.0000
  S   S74       1.0  0.36815414576918065  0.027575853493199576  0.16874175888317072  1.0000
  Fe  Fe38      1.0  0.37573386625923466  0.15460454059670622  0.2407743650276152  1.0000
  S   S75       1.0  0.450419216647863  0.20321266468168644  0.2425262969434166  1.0000
  S   S76       1.0  0.32483959654064376  0.16599703856010353  0.2677979043283958  1.0000
  Fe  Fe39      1.0  0.44674958848355323  0.19412777694736252  0.19212419213023552  1.0000
  S   S77       1.0  0.48364898031853604  0.25557297077449126  0.16304371358666736  1.0000
  Fe  Fe40      1.0  0.4598722455342437  0.14253148702528612  0.2432852177142094  1.0000
  S   S78       1.0  0.5097501717256924  0.1369518940093195  0.27483127113472666  1.0000
  S   S79       1.0  0.37139193270513304  0.14840216697842162  0.18968419492087804  1.0000
  S   S80       1.0  0.38494476835987834  0.09372574977691944  0.24633164964545803  1.0000
  Fe  Fe41      1.0  0.7449785847825259  0.591077517161895  0.9048047453705755  1.0000
  S   S81       1.0  0.7513395358057835  0.6564697592294865  0.9212256745590213  1.0000
  S   S82       1.0  0.6984191957574825  0.525737097479793  0.9304508305525978  1.0000
  Fe  Fe42      1.0  0.8237525575614378  0.6411289800544464  0.8598531349788766  1.0000
  S   S83       1.0  0.8345520744430589  0.7092059587256772  0.8731511273074243  1.0000
  S   S84       1.0  0.8771533364926973  0.6457939182776015  0.8271225460164532  1.0000
  Fe  Fe43      1.0  0.8272522705284158  0.6833227167028889  0.9208742230331974  1.0000
  S   S85       1.0  0.8755206650831909  0.7257426466205024  0.9587798055423601  1.0000
  Fe  Fe44      1.0  0.7584718922322417  0.6761516432297645  0.8718068464573909  1.0000
  S   S86       1.0  0.7144503427568965  0.6991120754331096  0.8464757380229816  1.0000
  S   S87       1.0  0.8205248057898782  0.6170991052634361  0.9075948812448115  1.0000
  S   S88       1.0  0.7479819171633225  0.60895269705661  0.8553323897168205  1.0000
  Fe  Fe45      1.0  0.9946142016420363  0.6809997175238526  0.6494051662456817  1.0000
  S   S89       1.0  0.9497385186466419  0.6060726831260872  0.6559784818445604  1.0000
  S   S90       1.0  0.0679073137297256  0.7156437151701827  0.6662592205306732  1.0000
  Fe  Fe46      1.0  0.9261384902498867  0.687998931131985  0.6071020611578981  1.0000
  S   S91       1.0  0.8767191142280218  0.6139815974097592  0.6099335568845118  1.0000
  S   S92       1.0  0.9190965511774849  0.7416774072027805  0.580586213595799  1.0000
  Fe  Fe47      1.0  0.8931286862223412  0.6221809393001686  0.659561392347489  1.0000
  S   S93       1.0  0.8325301039467965  0.5856025387885886  0.6902183019376723  1.0000
  Fe  Fe48      1.0  0.9365124475957886  0.602619910067458  0.6059607376998755  1.0000
  S   S94       1.0  0.9315162409406905  0.5487115468749967  0.5729672641031216  1.0000
  S   S95       1.0  0.9387163595907969  0.6973242382408039  0.6574956269560536  1.0000
  S   S96       1.0  0.9851810086464368  0.6764998071572377  0.5987252035900871  1.0000
  C   C1        1.0  0.8635662542326026  0.6271466033687513  0.7895226022485159  1.0000
  C   C2        1.0  0.8987844515477214  0.6423354791447271  0.7682175932344788  1.0000
  C   C3        1.0  0.8893778964056187  0.6296147434595168  0.7377107277117859  1.0000
  C   C4        1.0  0.8446862235695276  0.6011004468914238  0.7284526984926769  1.0000
  C   C5        1.0  0.8093787003786156  0.5854712255117634  0.7497669645053202  1.0000
  C   C6        1.0  0.8187677113629843  0.5987081213632625  0.7803015864680516  1.0000
  H   H1        1.0  0.9334818578589466  0.6641969767401152  0.7753330065717933  1.0000
  H   H2        1.0  0.9167817417046922  0.6415891349290853  0.721425086221383  1.0000
  H   H3        1.0  0.7747496593400173  0.5632944601758848  0.7426625478783025  1.0000
  H   H4        1.0  0.7915196159915384  0.5865748146396358  0.7967241024211397  1.0000
  C   C7        1.0  0.5536168382030356  0.40694380599382407  0.9151607033121592  1.0000
  C   C8        1.0  0.5788183112357683  0.4086604770135807  0.9406830949194056  1.0000
  C   C9        1.0  0.6229739624408379  0.44531514037827125  0.9448719947451404  1.0000
  C   C10       1.0  0.6425941657598429  0.48064348907894633  0.9236495100221525  1.0000
  C   C11       1.0  0.6173913065363951  0.47889363421635406  0.8980753713432267  1.0000
  C   C12       1.0  0.5732317460423373  0.4420871679851075  0.8938051800323412  1.0000
  H   H5        1.0  0.5645091256186425  0.38165799106896886  0.957135244347485  1.0000
  H   H6        1.0  0.6423142437471631  0.44622404923925163  0.9646241901793774  1.0000
  H   H7        1.0  0.6321190026957173  0.5057398666752043  0.8815198223773305  1.0000
  H   H8        1.0  0.5541789178244156  0.44102656577983534  0.8738754650010486  1.0000
  C   C13       1.0  0.45875549901062945  0.2202372070111942  0.0626914977296345  1.0000
  C   C14       1.0  0.46057318659632923  0.2595984216144711  0.07348521490753764  1.0000
  C   C15       1.0  0.46896619702253617  0.2708072568212904  0.1043365011249345  1.0000
  C   C16       1.0  0.47385157353681956  0.2418378598357401  0.12449817732208111  1.0000
  C   C17       1.0  0.47132228893700345  0.20214655976475276  0.113744813903018  1.0000
  C   C18       1.0  0.46478602648838957  0.19190175216829392  0.08276692764872293  1.0000
  H   H9        1.0  0.45589629980971375  0.28155662607876375  0.05806612539348645  1.0000
  H   H10       1.0  0.4708602774535605  0.30152155292903393  0.11264614733455346  1.0000
  H   H11       1.0  0.4752399200827969  0.17974865480862012  0.12915988472158174  1.0000
  H   H12       1.0  0.46385294496741175  0.1616813934187738  0.07434644072581897  1.0000
  C   C19       1.0  0.6368734989787139  0.12970768044000533  0.24725843259689606  1.0000
  C   C20       1.0  0.6065553612386084  0.12831475169880718  0.2249610298546344  1.0000
  C   C21       1.0  0.5675570605385032  0.13067449991332256  0.23301845254354367  1.0000
  C   C22       1.0  0.5584976886978643  0.13435292645652192  0.2634924460074242  1.0000
  C   C23       1.0  0.588607507017347  0.13545645526488156  0.2857602684313619  1.0000
  C   C24       1.0  0.6276696291601134  0.13324871832239146  0.2777178320490102  1.0000
  H   H13       1.0  0.6133905848878743  0.12536651841504448  0.20135447326264183  1.0000
  H   H14       1.0  0.5443222423333105  0.12915731824296597  0.2157362016246226  1.0000
  H   H15       1.0  0.5818232654684679  0.13825258506240456  0.30940186174880363  1.0000
  H   H16       1.0  0.6507237237372493  0.13442325184145523  0.29507447145865173  1.0000
  C   C25       1.0  0.9255959523179215  0.41335717557924195  0.59253924032022  1.0000
  C   C26       1.0  0.9342503285176365  0.4443062431749318  0.6161479943760719  1.0000
  C   C27       1.0  0.9378703293446916  0.4865373717799205  0.6103935093857628  1.0000
  C   C28       1.0  0.9312973156936772  0.4976916049586972  0.5810658690192442  1.0000
  C   C29       1.0  0.9229212626362211  0.4668631791020679  0.5574153094562462  1.0000
  C   C30       1.0  0.9203360576088088  0.42500615444095163  0.5630443734338145  1.0000
  H   H17       1.0  0.9388317353676506  0.4357670662934338  0.6390033144147624  1.0000
  H   H18       1.0  0.9458098547214033  0.5104292961876522  0.6286547354997245  1.0000
  H   H19       1.0  0.9178662641173448  0.4752102883749175  0.5346190115621993  1.0000
  H   H20       1.0  0.9133638335824429  0.40143666578041876  0.5446778948457947  1.0000
  C   C31       1.0  0.8531799631328404  0.20169013974746366  0.4520787969278662  1.0000
  C   C32       1.0  0.8468568583733241  0.17128249340466092  0.4287794002811485  1.0000
  C   C33       1.0  0.8403466899078236  0.18059886379774406  0.39885751623223387  1.0000
  C   C34       1.0  0.8404471476093048  0.2206038560363918  0.3920721233057851  1.0000
  C   C35       1.0  0.8491689582038378  0.2521640699436937  0.41513079085772886  1.0000
  C   C36       1.0  0.8555014681555357  0.24271925888273924  0.4451710888024762  1.0000
  H   H21       1.0  0.8463675463175603  0.1401235733172716  0.4340253610799975  1.0000
  H   H22       1.0  0.8342869136627958  0.15634786357019392  0.38127065753665695  1.0000
  H   H23       1.0  0.8495092824580662  0.28330378552640445  0.4099639087478305  1.0000
  H   H24       1.0  0.8602029583159211  0.26626507960610907  0.4631250331943452  1.0000
  C   C37       1.0  0.7544774025129501  0.9083971947144586  0.38729024788565697  1.0000
  C   C38       1.0  0.783250014029894  0.939131247839419  0.3653009105216443  1.0000
  C   C39       1.0  0.773126945008088  0.9707902761058742  0.3520778495731186  1.0000
  C   C40       1.0  0.7336586176339833  0.9714799293769183  0.3604259245096319  1.0000
  C   C41       1.0  0.7051261733395102  0.9409849972281704  0.38254555746972113  1.0000
  C   C42       1.0  0.7156872531975937  0.910030807610613  0.396139810611324  1.0000
  H   H25       1.0  0.8134305380596564  0.9383085235295279  0.35830838251399855  1.0000
  H   H26       1.0  0.7953938692938253  0.9940098929213602  0.3350473507693686  1.0000
  H   H27       1.0  0.6745152494328991  0.9411832443967585  0.38918916468872955  1.0000
  H   H28       1.0  0.6934900859705345  0.8871716438884717  0.4132685654814134  1.0000
  C   C43       1.0  0.7886440225652934  0.7147164251430055  0.530043420739031  1.0000
  C   C44       1.0  0.8272534717286536  0.7576056573970309  0.529711770172163  1.0000
  C   C45       1.0  0.8669011551187352  0.7653963462988919  0.545285727199173  1.0000
  C   C46       1.0  0.8684589406796641  0.730503485005646  0.5612853219463343  1.0000
  C   C47       1.0  0.8297421869400599  0.6877908447057891  0.5617272835589479  1.0000
  C   C48       1.0  0.7901815316814678  0.6800174223934111  0.5462116032918855  1.0000
  H   H29       1.0  0.8267399442309221  0.7846316989349377  0.5172838952431921  1.0000
  H   H30       1.0  0.8966808581163503  0.798541955235635  0.5446917274581944  1.0000
  H   H31       1.0  0.830313259654212  0.6606035840097579  0.5738852525315098  1.0000
  H   H32       1.0  0.7605380877953206  0.6467492010855133  0.5466873440542074  1.0000
  C   C49       1.0  0.7296260416294214  0.7500983433214233  0.8269996480931081  1.0000
  C   C50       1.0  0.6992554544074712  0.7505948054942831  0.8055250662463639  1.0000
  C   C51       1.0  0.709228687990576  0.790361158335794  0.7898234174710475  1.0000
  C   C52       1.0  0.7495105240705424  0.8304132132124953  0.7957668257817816  1.0000
  C   C53       1.0  0.7799503390067777  0.829975584033098  0.817246218754197  1.0000
  C   C54       1.0  0.7701522506147497  0.7900214771457905  0.832765147092488  1.0000
  H   H33       1.0  0.667745117318369  0.7199006926458328  0.8009847660574462  1.0000
  H   H34       1.0  0.6855829539730702  0.7899821675374957  0.7732421831304302  1.0000
  H   H35       1.0  0.8111454690248688  0.8608236859285895  0.8221216316241937  1.0000
  H   H36       1.0  0.7935904524120461  0.7902675827371587  0.849503706471402  1.0000
  C   C55       1.0  0.6221287930960132  0.8097989765520445  0.6245168302954109  1.0000
  C   C56       1.0  0.6468431125344664  0.8550261730415369  0.615894217471386  1.0000
  C   C57       1.0  0.6571758666398587  0.866335456103015  0.585262725171378  1.0000
  C   C58       1.0  0.6437127558686475  0.8325256910565799  0.5632402100174785  1.0000
  C   C59       1.0  0.6189423719017749  0.7872320470958936  0.5718138224001675  1.0000
  C   C60       1.0  0.6078020874297252  0.7758717119614295  0.6024531680501529  1.0000
  H   H37       1.0  0.6580193428125005  0.8814022368157787  0.6327854663377326  1.0000
  H   H38       1.0  0.6760680795036642  0.9014239833442573  0.5786623913364192  1.0000
  H   H39       1.0  0.6078027084968459  0.7610762365766768  0.5547759225700211  1.0000
  H   H40       1.0  0.5885334637101804  0.7408352977301822  0.6090907296111536  1.0000
  C   C61       1.0  0.7876669346988683  0.06203270537056337  0.6587663273461785  1.0000
  C   C62       1.0  0.7917962377752708  0.10028047623243527  0.6438796951242564  1.0000
  C   C63       1.0  0.8336236151938692  0.13315670171995675  0.6317100796682813  1.0000
  C   C64       1.0  0.871897893686021  0.1279622466482454  0.6339229241174593  1.0000
  C   C65       1.0  0.8680379824417992  0.09003343894119101  0.6492084563054579  1.0000
  C   C66       1.0  0.8261271294618692  0.057147345052190525  0.6615407135479221  1.0000
  H   H41       1.0  0.76236580409765  0.10458014497197274  0.6418368250782729  1.0000
  H   H42       1.0  0.8361011319746635  0.16240265339671967  0.6204817403788015  1.0000
  H   H43       1.0  0.8975144674563371  0.08582256342749871  0.6512488797280919  1.0000
  H   H44       1.0  0.8235350233641029  0.02801962536080963  0.673057291734288  1.0000
  C   C67       1.0  0.23674375088100022  0.9261474092706803  0.11954275144201396  1.0000
  C   C68       1.0  0.2376518692631974  0.9611848241840539  0.1369468486209698  1.0000
  C   C69       1.0  0.2773731445719954  0.9923954937684759  0.1523885823358523  1.0000
  C   C70       1.0  0.31667413881435014  0.9888526274102609  0.15050892534527024  1.0000
  C   C71       1.0  0.31583900049265035  0.954012130798508  0.13300410389060452  1.0000
  C   C72       1.0  0.27616629680022303  0.9228501054135156  0.11759901685506803  1.0000
  H   H45       1.0  0.20724159792093227  0.9638683143034841  0.13869150028848093  1.0000
  H   H46       1.0  0.2773714974324606  0.01883215186736975  0.16591544203161504  1.0000
  H   H47       1.0  0.3460728029157125  0.9510637412232504  0.13120818733225437  1.0000
  H   H48       1.0  0.27604411855631  0.8962260951964013  0.10421186593710927  1.0000
  C   C73       1.0  0.9269550732784027  0.7255493476796082  0.9666526488971714  1.0000
  C   C74       1.0  0.9545244824196641  0.7512462894649434  0.9909978947170737  1.0000
  C   C75       1.0  0.9957004983628528  0.7520733956270731  0.9976787156092849  1.0000
  C   C76       1.0  0.009792474875522261  0.727232681419469  0.979953469226014  1.0000
  C   C77       1.0  0.9821481316073475  0.7014299685244891  0.9557289359539705  1.0000
  C   C78       1.0  0.9410565662798366  0.7005727361666327  0.9490936605699766  1.0000
  H   H49       1.0  0.9439919220917729  0.7707297857015142  0.004707040953299175  1.0000
  H   H50       1.0  0.016548515945370657  0.772117736313785  0.016377198598917952  1.0000
  H   H51       1.0  0.9926380101756763  0.682093221933433  0.9418332349881462  1.0000
  H   H52       1.0  0.9203787345333496  0.680750424172645  0.9302672152248961  1.0000
  C   C79       1.0  0.15195592193424903  0.8332675571357144  0.7317163517531431  1.0000
  C   C80       1.0  0.10701504286967814  0.8217859867675753  0.7246229889287008  1.0000
  C   C81       1.0  0.08000520221500508  0.7847840431635065  0.7056126904097548  1.0000
  C   C82       1.0  0.09812621595274273  0.7594925854853318  0.692936261723292  1.0000
  C   C83       1.0  0.14297305672535007  0.7709637858790666  0.7001139932511588  1.0000
  C   C84       1.0  0.16963798874385722  0.807369394720701  0.7195578825333776  1.0000
  H   H53       1.0  0.09302988614876095  0.8416262864500568  0.7339584766134315  1.0000
  H   H54       1.0  0.04547833269148408  0.7762394686677699  0.7005310340486112  1.0000
  H   H55       1.0  0.15741533493549686  0.7517753732012182  0.6903475017719132  1.0000
  H   H56       1.0  0.20418642171058476  0.8158845006842692  0.7246686584852735  1.0000
  C   C85       1.0  0.45193882806345814  0.9080229478727465  0.757590406097934  1.0000
  C   C86       1.0  0.4571250741745947  0.8938793798333408  0.7863319067134354  1.0000
  C   C87       1.0  0.496310159255992  0.8911150480792955  0.7932309351253144  1.0000
  C   C88       1.0  0.5307706333043857  0.9025749282359321  0.771565635149621  1.0000
  C   C89       1.0  0.5259334838923515  0.9173903379225632  0.742985661802581  1.0000
  C   C90       1.0  0.4866486556727664  0.9198910528425238  0.7360291031338433  1.0000
  H   H57       1.0  0.43071113777478026  0.884617588065485  0.8031333450666138  1.0000
  H   H58       1.0  0.4997411533809806  0.8798071341908154  0.8154546672553621  1.0000
  H   H59       1.0  0.5526162239644123  0.9273245731282943  0.7263391001710718  1.0000
  H   H60       1.0  0.4831585214745245  0.9313128177610458  0.7138494088894544  1.0000
  C   C91       1.0  0.34561024247840144  0.06027742814259317  0.8695599259184108  1.0000
  C   C92       1.0  0.37568177996155205  0.09287080639059682  0.8901104285007032  1.0000
  C   C93       1.0  0.36556759348362133  0.12443039453170326  0.9032780132651352  1.0000
  C   C94       1.0  0.32539546133746367  0.12418947148038555  0.8957723887981868  1.0000
  C   C95       1.0  0.2953102143339792  0.09168386961200571  0.8751266599031615  1.0000
  C   C96       1.0  0.30525590334378416  0.059753767408195  0.862112773443626  1.0000
  H   H61       1.0  0.40688320855852533  0.09341456523667531  0.8961387523127564  1.0000
  H   H62       1.0  0.3887496319336069  0.14868571179794707  0.9194107431767613  1.0000
  H   H63       1.0  0.26414376499459274  0.09123381885171379  0.8691399725018462  1.0000
  H   H64       1.0  0.28184802393645053  0.03497192519980039  0.8462484336335363  1.0000
  C   C97       1.0  0.25174609819991495  0.7985154417487832  0.8965177087734926  1.0000
  C   C98       1.0  0.21630218317675673  0.782259148429893  0.9176487699024857  1.0000
  C   C99       1.0  0.22576873369428047  0.7886029442773472  0.9487478879897318  1.0000
  C   C100      1.0  0.2707195963750363  0.8103333753859018  0.9588611887888643  1.0000
  C   C101      1.0  0.3061965311031653  0.8255427171897433  0.9377707354388005  1.0000
  C   C102      1.0  0.29675038334768766  0.8199321723981559  0.9065692643870829  1.0000
  H   H65       1.0  0.1814312801319855  0.7653164915882925  0.9100581383768649  1.0000
  H   H66       1.0  0.1982063361740674  0.7768764991247173  0.9648587138994644  1.0000
  H   H67       1.0  0.3410072176344247  0.8421934162651193  0.9455603762000577  1.0000
  H   H68       1.0  0.32421557415262503  0.8321286564546158  0.8903038661407099  1.0000
  C   C103      1.0  0.15868093970350258  0.31621090535799734  0.45480786914093896  1.0000
  C   C104      1.0  0.17281543817473813  0.359883989355414  0.46529193626151416  1.0000
  C   C105      1.0  0.1456669796513137  0.36772944740938207  0.485922293839019  1.0000
  C   C106      1.0  0.10385381817712609  0.3321922217873463  0.4960772619305685  1.0000
  C   C107      1.0  0.08936082981584288  0.2886100444437307  0.4852805039105282  1.0000
  C   C108      1.0  0.11679564415295701  0.28068317933970477  0.46490825811905  1.0000
  H   H69       1.0  0.20502212153646085  0.387464660287125  0.45794043327441125  1.0000
  H   H70       1.0  0.15729982973284715  0.4015028726822183  0.4942071540809509  1.0000
  H   H71       1.0  0.057408395051535326  0.2609002121920814  0.49298313223246876  1.0000
  H   H72       1.0  0.10561556786882428  0.24676211552327462  0.45705044554267  1.0000
  C   C109      1.0  0.35960471096195834  0.30036977542534293  0.31438080575110083  1.0000
  C   C110      1.0  0.316577617121807  0.26244872988927853  0.31773928175306193  1.0000
  C   C111      1.0  0.30635444427563036  0.22157640875951412  0.30328374562114424  1.0000
  C   C112      1.0  0.33896556183466753  0.21817238002326808  0.28542027876536746  1.0000
  C   C113      1.0  0.38175417415438045  0.2563396945356244  0.2818518133423683  1.0000
  C   C114      1.0  0.39197153739509605  0.2971214314825145  0.29626677800480006  1.0000
  H   H73       1.0  0.29135747597252426  0.26434002708331483  0.3317357019919167  1.0000
  H   H74       1.0  0.27317926228139394  0.1922123355789538  0.3062468239388078  1.0000
  H   H75       1.0  0.40706139413041453  0.25443030848501713  0.26802376253467747  1.0000
  H   H76       1.0  0.425289668885593  0.3262746356440941  0.2933786366493548  1.0000
  C   C115      1.0  0.5297455915072018  0.6276250830890882  0.4203748661545166  1.0000
  C   C116      1.0  0.521262244810847  0.6101552471591598  0.4497949438641187  1.0000
  C   C117      1.0  0.483272163222303  0.5675736030495477  0.4557031476624762  1.0000
  C   C118      1.0  0.4534833128560838  0.5419451816232692  0.4323187918541645  1.0000
  C   C119      1.0  0.4621551430281983  0.5591400107093835  0.4028116626256628  1.0000
  C   C120      1.0  0.49998078637530025  0.601875000813438  0.396930537866939  1.0000
  H   H77       1.0  0.5438432541121485  0.6295608857345196  0.4680456491271609  1.0000
  H   H78       1.0  0.4768859850791232  0.5545555880870082  0.47861248482863356  1.0000
  H   H79       1.0  0.43988098734161013  0.5395191239528991  0.38454418682654296  1.0000
  H   H80       1.0  0.5064263831589422  0.615011366721918  0.37407029937051767  1.0000
  C   C121      1.0  0.21855445740497115  0.3112907208677019  0.06241923738074666  1.0000
  C   C122      1.0  0.2570230310685851  0.3542163731518943  0.06265818768061575  1.0000
  C   C123      1.0  0.29694111694486564  0.36203994148177815  0.047552840531384755  1.0000
  C   C124      1.0  0.2992235045143196  0.32710095108234155  0.03216731362854952  1.0000
  C   C125      1.0  0.2609119158163408  0.28398956998307395  0.03212420294256732  1.0000
  C   C126      1.0  0.22077243664597562  0.2762190870837369  0.04709221328168467  1.0000
  H   H81       1.0  0.2559575464877239  0.3815709598933139  0.07422740021497545  1.0000
  H   H82       1.0  0.32625814905137257  0.39549787319645313  0.04773199288134  1.0000
  H   H83       1.0  0.2620322144272553  0.2567942664802927  0.020301151691288054  1.0000
  H   H84       1.0  0.1912725665324948  0.2428874114607721  0.04667060984283576  1.0000
  C   C127      1.0  0.1582472717423342  0.5455779126673658  0.08649510444118126  1.0000
  C   C128      1.0  0.17142557896751626  0.5795342257382339  0.06442482482236137  1.0000
  C   C129      1.0  0.1653121227485  0.6170419776985396  0.06919069217892972  1.0000
  C   C130      1.0  0.145648049201201  0.6208793330054452  0.09609556397374529  1.0000
  C   C131      1.0  0.1322587827822516  0.5868110112246083  0.11811251301770734  1.0000
  C   C132      1.0  0.13865177166156442  0.549438486204005  0.11343626771730415  1.0000
  H   H85       1.0  0.1867587634268159  0.5769778917022141  0.043533368446517035  1.0000
  H   H86       1.0  0.17588972228498698  0.642983784207562  0.05205924353302296  1.0000
  H   H87       1.0  0.11685979814423446  0.5893920833028047  0.138960813085557  1.0000
  H   H88       1.0  0.12816144710936903  0.5235602287623122  0.1305919425979383  1.0000
  C   C133      1.0  0.9927672213793374  0.2813443650296202  0.1937287433059017  1.0000
  C   C134      1.0  0.948669317744327  0.2713030686150243  0.20192456196872322  1.0000
  C   C135      1.0  0.919763941602258  0.23182435946770968  0.21814096922395723  1.0000
  C   C136      1.0  0.9346125226050463  0.20174987337611378  0.22639657854036643  1.0000
  C   C137      1.0  0.9787043027635475  0.2116181297794737  0.2180767104085353  1.0000
  C   C138      1.0  0.007773094171450889  0.25131967658875404  0.2019282073648094  1.0000
  H   H89       1.0  0.9366426049511756  0.2941745148283595  0.1955374100895216  1.0000
  H   H90       1.0  0.8858234563963071  0.22453161353572235  0.2240127625525596  1.0000
  H   H91       1.0  0.9905260406861657  0.1885713947418697  0.22440085615207558  1.0000
  H   H92       1.0  0.04171204887819635  0.2587515974707206  0.19595061639171069  1.0000
  C   C139      1.0  0.26185098192682255  0.45225440365722674  0.22945591217262476  1.0000
  C   C140      1.0  0.22311987308447048  0.4490012590039096  0.24309893336392208  1.0000
  C   C141      1.0  0.22203749750005553  0.45412873497681133  0.27465247249876285  1.0000
  C   C142      1.0  0.2589748897525783  0.4608804645143793  0.2926219302239001  1.0000
  C   C143      1.0  0.29722885837623  0.4630740292655115  0.27900115211489795  1.0000
  C   C144      1.0  0.29898863609382786  0.4596479669331873  0.24741316533776103  1.0000
  H   H93       1.0  0.19439996623082811  0.44342628391888983  0.22933285560842043  1.0000
  H   H94       1.0  0.19242752545345726  0.4525237854901166  0.285168224279382  1.0000
  H   H95       1.0  0.32601533201756655  0.4688117158667939  0.29273768132682537  1.0000
  H   H96       1.0  0.32920717605765437  0.4627184922017728  0.23685563014931946  1.0000
  N   N1        1.0  0.28570834109187193  0.9416006993190029  0.9292958999837082  1.0000
  C   C145      1.0  0.3061116216015653  0.9215080166932293  0.9095081043143382  1.0000
  C   C146      1.0  0.32206934928381137  0.984265949812755  0.9421205240112436  1.0000
  C   C147      1.0  0.2604291355197742  0.9098854105082449  0.9541132432648216  1.0000
  C   C148      1.0  0.2543861806640847  0.9506727904420178  0.9112675462989397  1.0000
  H   H97       1.0  0.3292716602300618  0.9133475293105758  0.9224108541528083  1.0000
  H   H98       1.0  0.32647028876513895  0.9447781245819227  0.8909954272541212  1.0000
  H   H99       1.0  0.27959929619332946  0.8900979049848247  0.8986118974078123  1.0000
  H   H100      1.0  0.3460912081141043  0.978464632874165  0.9560124270673926  1.0000
  H   H101      1.0  0.34222368181012264  0.008472410738331604  0.923847769694966  1.0000
  H   H102      1.0  0.30797640108022845  0.0009475984454216935  0.9567461585735803  1.0000
  H   H103      1.0  0.24428652425861716  0.9236715612626268  0.9695284424964914  1.0000
  H   H104      1.0  0.283075013985488  0.9021828278175865  0.9681448874065122  1.0000
  H   H105      1.0  0.23308757276875447  0.8771048875643135  0.945169725258413  1.0000
  H   H106      1.0  0.239158467125888  0.9669819393257494  0.9252056018255073  1.0000
  H   H107      1.0  0.22618544823089065  0.9190395229491527  0.9016349448546348  1.0000
  H   H108      1.0  0.2723350247844078  0.9735100829672259  0.8918893371790528  1.0000
  N   N2        1.0  0.2813355487788537  0.5744932947177146  0.13632078085583854  1.0000
  C   C149      1.0  0.2898148069903977  0.5442944627685885  0.11671989251480046  1.0000
  C   C150      1.0  0.23879833471128484  0.5476117584546086  0.15343652031905344  1.0000
  C   C151      1.0  0.2772425856808508  0.6079630100335077  0.11731904574683043  1.0000
  C   C152      1.0  0.3193445366572389  0.597821361136398  0.15785981739603955  1.0000
  H   H109      1.0  0.3216899650350135  0.5632828703601951  0.10346743803166875  1.0000
  H   H110      1.0  0.2617387942907339  0.5262801658399723  0.10009235359198036  1.0000
  H   H111      1.0  0.2925805674334317  0.5182347690232396  0.13029753177554113  1.0000
  H   H112      1.0  0.23098971845674085  0.5691519383760999  0.16838756918620132  1.0000
  H   H113      1.0  0.20946240719539538  0.5295890028532523  0.13785928080477636  1.0000
  H   H114      1.0  0.24061444211437155  0.5217913716651466  0.16789429657975413  1.0000
  H   H115      1.0  0.26869399000964966  0.6300882265319897  0.13109324493428443  1.0000
  H   H116      1.0  0.24988020624174398  0.591123366189872  0.10011742092250203  1.0000
  H   H117      1.0  0.30915755215154184  0.6297949655696176  0.10471668139401913  1.0000
  H   H118      1.0  0.3139968975156858  0.6209242135690822  0.17295518370815513  1.0000
  H   H119      1.0  0.35212975190027124  0.6181826907010837  0.14576770665896807  1.0000
  H   H120      1.0  0.32288587953090164  0.5731777767680784  0.1725650601180261  1.0000
  N   N3        1.0  0.44928589195230034  0.2459437053066423  0.8512545984979571  1.0000
  C   C153      1.0  0.4293507765988118  0.20462656263843146  0.8324740870281157  1.0000
  C   C154      1.0  0.47465947632987077  0.286079238390689  0.8318619770642095  1.0000
  C   C155      1.0  0.4805033916998103  0.24398167980203692  0.8737877510989451  1.0000
  C   C156      1.0  0.41257050825063313  0.24914994450192796  0.8670654168014026  1.0000
  H   H121      1.0  0.4560127319734574  0.20064269052913228  0.8204399513355888  1.0000
  H   H122      1.0  0.40566366771003226  0.20494960337551987  0.8151603502627197  1.0000
  H   H123      1.0  0.4095219200629041  0.17385625763151408  0.8465781978097762  1.0000
  H   H124      1.0  0.4520793878655604  0.28896642901031616  0.8148058441787583  1.0000
  H   H125      1.0  0.4901866899646378  0.3176466222794915  0.845661163655085  1.0000
  H   H126      1.0  0.5026446268803146  0.2848700296980896  0.8194834028675432  1.0000
  H   H127      1.0  0.49545608708847644  0.27429555600644506  0.8887675982219756  1.0000
  H   H128      1.0  0.5091144743343731  0.24235321737108795  0.8626639099379917  1.0000
  H   H129      1.0  0.4626336746606846  0.2137077678944536  0.888551170037986  1.0000
  H   H130      1.0  0.39355056088236945  0.22003533010441362  0.8824432499583738  1.0000
  H   H131      1.0  0.3875514033129495  0.249462639674479  0.850918471948851  1.0000
  H   H132      1.0  0.42611586667609175  0.2802686312143757  0.8810754459594644  1.0000
  N   N4        1.0  0.6706629461021962  0.8819449273762496  0.8451215413961487  1.0000
  C   C157      1.0  0.6468927739602844  0.8447372327720184  0.8232449405661815  1.0000
  C   C158      1.0  0.7049799737645442  0.8755873096326077  0.8616802006482243  1.0000
  C   C159      1.0  0.637336418371581  0.8821513407155083  0.8666362081400051  1.0000
  C   C160      1.0  0.6933997025760357  0.9252881878552395  0.8286637586888773  1.0000
  H   H133      1.0  0.6202765729816858  0.8480765348243648  0.8106133007911819  1.0000
  H   H134      1.0  0.6302249689880982  0.8113146545048604  0.8346627626956221  1.0000
  H   H135      1.0  0.6709893024857451  0.8444330082484303  0.8063006285216396  1.0000
  H   H136      1.0  0.7235275302658918  0.9029160289324664  0.8785326747144244  1.0000
  H   H137      1.0  0.6892367652682588  0.842792115704724  0.8739218137751896  1.0000
  H   H138      1.0  0.7307426373829523  0.8757694735556357  0.8458523311043097  1.0000
  H   H139      1.0  0.6540158705456383  0.909884961309489  0.8834860043272941  1.0000
  H   H140      1.0  0.6192749269916455  0.8497971001924058  0.8793003152240606  1.0000
  H   H141      1.0  0.6111818288438785  0.8870331449127181  0.854534784944679  1.0000
  H   H142      1.0  0.719255853335978  0.9264611648417291  0.8125133474751991  1.0000
  H   H143      1.0  0.7112129418328808  0.9543170679248573  0.8444137670098979  1.0000
  H   H144      1.0  0.6685647813504139  0.9307472758893923  0.8153800684079757  1.0000
  N   N5        1.0  0.8311295828563946  0.7303569653182336  0.7739799066699913  1.0000
  C   C161      1.0  0.822423763454304  0.7679875737357713  0.7679515069188672  1.0000
  C   C162      1.0  0.8764148400595936  0.74808324203985  0.7879878360600321  1.0000
  C   C163      1.0  0.8294590529415845  0.7073234686624409  0.7452392147111361  1.0000
  C   C164      1.0  0.7962052026460208  0.6979878911870881  0.7949183037001749  1.0000
  H   H145      1.0  0.7872916782408347  0.7556066343468572  0.7594300380507154  1.0000
  H   H146      1.0  0.8465714443665728  0.7919101913810322  0.75097394922594  1.0000
  H   H147      1.0  0.826215691412642  0.7876206298499735  0.78892837026575  1.0000
  H   H148      1.0  0.9037059954082769  0.7732463993779171  0.7731567592850879  1.0000
  H   H149      1.0  0.8783605063989438  0.7644660137115485  0.8102165866060409  1.0000
  H   H150      1.0  0.8843131943764292  0.7206195391351711  0.7924680309172534  1.0000
  H   H151      1.0  0.8553984216900828  0.7306174062428409  0.7288451597879777  1.0000
  H   H152      1.0  0.7955442694767139  0.6929523787918659  0.7342962519686548  1.0000
  H   H153      1.0  0.8361754947732872  0.6789974777650444  0.7490930636950918  1.0000
  H   H154      1.0  0.8026197921297461  0.6699720172245914  0.8009178278416335  1.0000
  H   H155      1.0  0.7614785162058966  0.6828754495841571  0.7851118550504339  1.0000
  H   H156      1.0  0.7956676727564759  0.7147053950698634  0.8163966349414902  1.0000
  N   N6        1.0  0.9582242838477667  0.2628002452801286  0.3161276988639515  1.0000
  C   C165      1.0  0.9397718571855035  0.22159208138903153  0.3348593715534722  1.0000
  C   C166      1.0  0.9224619796912825  0.25990304924723473  0.2956315534413746  1.0000
  C   C167      1.0  0.9967086391039842  0.2668909392502603  0.2979114405959644  1.0000
  C   C168      1.0  0.9736468565437922  0.30255865466305865  0.3360461696002486  1.0000
  H   H157      1.0  0.96543596364998  0.22301758166207555  0.351194443580498  1.0000
  H   H158      1.0  0.9287978682876279  0.1910427790509525  0.32049910922628655  1.0000
  H   H159      1.0  0.9097579635361919  0.21673348966992928  0.3481847982164253  1.0000
  H   H160      1.0  0.9356742181944927  0.28901347937800687  0.27977175163296364  1.0000
  H   H161      1.0  0.9081118397680861  0.22873647839821226  0.28172074560330473  1.0000
  H   H162      1.0  0.893840125983525  0.25912586329761544  0.30846945697273703  1.0000
  H   H163      1.0  0.01095708244058713  0.29711499143172054  0.28296795900938426  1.0000
  H   H164      1.0  0.9858543969023128  0.23696283064009752  0.2829297401675804  1.0000
  H   H165      1.0  0.024587438741145773  0.2695278821072719  0.31259628010509255  1.0000
  H   H166      1.0  0.9873198578498399  0.33420920541069177  0.3226181898143078  1.0000
  H   H167      1.0  0.0007793071429915699  0.30593991542520277  0.35181616743235505  1.0000
  H   H168      1.0  0.945109494306523  0.2999667177599273  0.3501604103404213  1.0000
  N   N7        1.0  0.4933685899174431  0.8017882053068304  0.6919017931339614  1.0000
  C   C169      1.0  0.47983146286117867  0.7592757189367115  0.6754248971897157  1.0000
  C   C170      1.0  0.452603229291945  0.8015613824952602  0.7040865176834399  1.0000
  C   C171      1.0  0.5174509488745488  0.840227842156888  0.6709288814121539  1.0000
  C   C172      1.0  0.5238338687500896  0.8061065772063999  0.7171670653415562  1.0000
  H   H169      1.0  0.5100225545231298  0.7586900877757438  0.6658735581016747  1.0000
  H   H170      1.0  0.4567459762054063  0.754802353344025  0.6562052861718106  1.0000
  H   H171      1.0  0.46207375359562375  0.729550500300121  0.6906265755315895  1.0000
  H   H172      1.0  0.4617999419728407  0.8328198102361039  0.7171668228398451  1.0000
  H   H173      1.0  0.4291771650965746  0.7993493907067016  0.6856773145956562  1.0000
  H   H174      1.0  0.43334671521078  0.7727410223121566  0.7197751631685299  1.0000
  H   H175      1.0  0.528394832354168  0.8729416031095599  0.6826237986333933  1.0000
  H   H176      1.0  0.4955351693889077  0.838196198015701  0.6515646286690056  1.0000
  H   H177      1.0  0.5484224035836104  0.8412840115829694  0.6613441510999084  1.0000
  H   H178      1.0  0.5358886872719882  0.8384406234813297  0.7295314252164957  1.0000
  H   H179      1.0  0.5543485995423886  0.8052282691320903  0.7088316713659425  1.0000
  H   H180      1.0  0.5065756526910729  0.7784470175117694  0.7339584196782264  1.0000
  N   N8        1.0  0.44672791249727856  0.9927070398745802  0.22486092273333155  1.0000
  C   C173      1.0  0.49681629066467  0.014818268768571619  0.2238572573169946  1.0000
  C   C174      1.0  0.4289195600006558  0.9557532473959822  0.24728079567823133  1.0000
  C   C175      1.0  0.4278830482256612  0.9743945537083754  0.19458159882804027  1.0000
  C   C176      1.0  0.4331586187577361  0.026048350011888433  0.23376160757949865  1.0000
  H   H181      1.0  0.5111534302616811  0.04220521503086494  0.20663525657251103  1.0000
  H   H182      1.0  0.5085126253659332  0.9905323213485104  0.2179534347031705  1.0000
  H   H183      1.0  0.5122421087061152  0.03040801162910478  0.246097031033235  1.0000
  H   H184      1.0  0.39118446442639476  0.938656501341601  0.2486273192322599  1.0000
  H   H185      1.0  0.43837183304390664  0.929807787052179  0.2412779358559316  1.0000
  H   H186      1.0  0.4424645911918444  0.9686340828754674  0.27036145705803494  1.0000
  H   H187      1.0  0.43732908030119355  0.9490791207076911  0.1869504497984892  1.0000
  H   H188      1.0  0.44025610847208846  0.0015880990827392694  0.17718992065683348  1.0000
  H   H189      1.0  0.39010402000485134  0.9579276798142725  0.19445949010965854  1.0000
  H   H190      1.0  0.39552843537339544  0.01079704751766375  0.23426719020221165  1.0000
  H   H191      1.0  0.44621181512999414  0.05439596284852111  0.2174036029726372  1.0000
  H   H192      1.0  0.44652831871638554  0.0407287298606378  0.2565479310896034  1.0000
  N   N9        1.0  0.8111918155148803  0.46755505487150606  0.6374850197917163  1.0000
  C   C177      1.0  0.8568691030605453  0.49903598919464626  0.6492584320484813  1.0000
  C   C178      1.0  0.8145320725513802  0.437345008017222  0.6148408364552868  1.0000
  C   C179      1.0  0.7920513480761863  0.4935280234516901  0.6230419391026714  1.0000
  C   C180      1.0  0.7817032483463947  0.44074253827456267  0.6628453374910535  1.0000
  H   H193      1.0  0.8556703108097926  0.5216796000797647  0.666952416897496  1.0000
  H   H194      1.0  0.8794198714450421  0.5207180894621606  0.6307978606331713  1.0000
  H   H195      1.0  0.8730957205388117  0.4808249141467347  0.659621423343174  1.0000
  H   H196      1.0  0.7806453463378562  0.4126320880195897  0.6056596451761697  1.0000
  H   H197      1.0  0.8362809723952501  0.4568111565665255  0.595302761099007  1.0000
  H   H198      1.0  0.8299882977099075  0.4180507228856248  0.6247397871020337  1.0000
  H   H199      1.0  0.7571132176619042  0.47105138629923193  0.6144508260388785  1.0000
  H   H200      1.0  0.8132226412451373  0.513526249167925  0.6034663006436879  1.0000
  H   H201      1.0  0.7905099324661495  0.5177772962753945  0.6393096845193754  1.0000
  H   H202      1.0  0.7468243914161699  0.41653484656173484  0.6548862670323263  1.0000
  H   H203      1.0  0.7788295154697695  0.4629370142696382  0.6802573222183332  1.0000
  H   H204      1.0  0.7954804780227452  0.42105259448574206  0.6743583257366027  1.0000
  N   N10       1.0  0.024844241233829972  0.22610181048537895  0.10063570600641508  1.0000
  C   C181      1.0  0.04421225249527966  0.24415887913417905  0.07041457129622515  1.0000
  C   C182      1.0  0.9952128866448408  0.17670488659991204  0.09870871472130281  1.0000
  C   C183      1.0  0.9980443117254938  0.24688843686763115  0.1113154138546046  1.0000
  C   C184      1.0  0.06209022720924408  0.2366648330946072  0.12219703170438917  1.0000
  H   H205      1.0  0.0669369453900355  0.28136924524184626  0.07108375326797815  1.0000
  H   H206      1.0  0.01727463180684863  0.23679515912563673  0.053368878159151964  1.0000
  H   H207      1.0  0.06538527442253125  0.22978774539303415  0.06196829092213124  1.0000
  H   H208      1.0  0.9801750534622451  0.16208439312648054  0.12119820732931502  1.0000
  H   H209      1.0  0.9666934971746111  0.16749065296146584  0.08259671354657226  1.0000
  H   H210      1.0  0.014471199038117449  0.16000944114639815  0.09080140731197653  1.0000
  H   H211      1.0  0.9831147337013721  0.23417980238119554  0.1341441324832998  1.0000
  H   H212      1.0  0.9697236328446188  0.2399354957950753  0.09556194970711059  1.0000
  H   H213      1.0  0.019387059040764095  0.28415417317886865  0.11335813728722217  1.0000
  H   H214      1.0  0.0490286350919761  0.22392866971955824  0.14534891407669978  1.0000
  H   H215      1.0  0.08505178062588574  0.27360588084794285  0.12386743724191841  1.0000
  H   H216      1.0  0.08344698140400564  0.2219887873281518  0.11475346417522798  1.0000
  N   N11       1.0  0.6011619536173871  0.2569706148472079  0.1938770009800551  1.0000
  C   C185      1.0  0.5799697537855727  0.22337869921356507  0.16935143873788505  1.0000
  C   C186      1.0  0.6142039027804777  0.30224824234933434  0.18196089495047493  1.0000
  C   C187      1.0  0.6418596342134045  0.2563079682467955  0.20520539501289672  1.0000
  C   C188      1.0  0.568394519651863  0.24596897412309338  0.21894305845969417  1.0000
  H   H217      1.0  0.5697700107999683  0.18880706596020133  0.177403039452388  1.0000
  H   H218      1.0  0.6035485238680898  0.23092667595525698  0.14988520765038962  1.0000
  H   H219      1.0  0.5489799077352947  0.22289269558861252  0.16047880775125825  1.0000
  H   H220      1.0  0.629852569635881  0.3285033431175576  0.19987306759558315  1.0000
  H   H221      1.0  0.6389236952760421  0.3117959593180639  0.16298404357351362  1.0000
  H   H222      1.0  0.5840520461226233  0.3035703026501348  0.1731052791700004  1.0000
  H   H223      1.0  0.6589023441226738  0.2815232000537185  0.2235781310667633  1.0000
  H   H224      1.0  0.667140598816004  0.2638644216966642  0.18682659948806632  1.0000
  H   H225      1.0  0.6329896669755998  0.22273321464553777  0.2147396892698912  1.0000
  H   H226      1.0  0.5833617028356863  0.2701182554220799  0.23811030085283727  1.0000
  H   H227      1.0  0.5568308455610607  0.2116398452456743  0.2281587944887676  1.0000
  H   H228      1.0  0.5377959094226874  0.24719085691119075  0.21124655115006036  1.0000
  N   N12       1.0  0.06122865695717743  0.44584173253097686  0.5674716982152159  1.0000
  C   C189      1.0  0.025484820818764874  0.4227838054265011  0.5443794674174597  1.0000
  C   C190      1.0  0.05446736442801923  0.48050636195991936  0.5829294298409545  1.0000
  C   C191      1.0  0.10616609439792074  0.46719704296205733  0.5525842698069869  1.0000
  C   C192      1.0  0.05864560525459004  0.41260968016986965  0.5899648673652569  1.0000
  H   H229      1.0  0.030856406210752356  0.3979802172559199  0.5312677744991503  1.0000
  H   H230      1.0  0.024608233326429526  0.446973028663147  0.5279182705094975  1.0000
  H   H231      1.0  0.9913647581731462  0.4039058800594545  0.5549757120757797  1.0000
  H   H232      1.0  0.021188921901727376  0.46499379360754656  0.5948465693710963  1.0000
  H   H233      1.0  0.08120440109479621  0.49910734850700045  0.6002182483101542  1.0000
  H   H234      1.0  0.05482484378595836  0.5055119375661995  0.5666043613900519  1.0000
  H   H235      1.0  0.1340438665184399  0.48478343724846945  0.5693142484584517  1.0000
  H   H236      1.0  0.10913515412437627  0.49217870569823907  0.5352759120754641  1.0000
  H   H237      1.0  0.11201611462246693  0.44153373585315575  0.5408327950335983  1.0000
  H   H238      1.0  0.06390066594033002  0.38609295844769453  0.5790592976955855  1.0000
  H   H239      1.0  0.02486739734360672  0.3953717425559085  0.6013808797305538  1.0000
  H   H240      1.0  0.0848618713127911  0.4287228870506403  0.60790880946036  1.0000
  N   N13       1.0  0.4876890458025044  0.4605344338394042  0.9686849478736903  1.0000
  C   C193      1.0  0.43911788020378106  0.4298860758319542  0.9753017380468997  1.0000
  C   C194      1.0  0.4943291591649274  0.4670267199427784  0.9355643753172312  1.0000
  C   C195      1.0  0.5146243510865405  0.4406078845068976  0.9804038803776762  1.0000
  C   C196      1.0  0.5027950041297652  0.5045251014364903  0.983509721153167  1.0000
  H   H241      1.0  0.4173776446015356  0.44333569836951797  0.966627530488009  1.0000
  H   H242      1.0  0.43278862980578003  0.42424268971050666  0.0001190180962005183  1.0000
  H   H243      1.0  0.4267313796452302  0.39609505043696197  0.9647864659070017  1.0000
  H   H244      1.0  0.48170964975380276  0.43425172895778474  0.9236131032608954  1.0000
  H   H245      1.0  0.4757801380485539  0.48343924594049387  0.9260319556617748  1.0000
  H   H246      1.0  0.5309346433750328  0.4882357852909715  0.9296517814206895  1.0000
  H   H247      1.0  0.5043567808491907  0.40766997400364163  0.9693560004591689  1.0000
  H   H248      1.0  0.5099192428299919  0.434437005756251  0.005252415931223892  1.0000
  H   H249      1.0  0.5515713511079565  0.4628424511139583  0.975978722304427  1.0000
  H   H250      1.0  0.4829821993931998  0.5204361419158595  0.9753395420416076  1.0000
  H   H251      1.0  0.5393395822174633  0.5283817091875884  0.9788070691112124  1.0000
  H   H252      1.0  0.49851534385541907  0.5007791392715425  0.008554063914713425  1.0000
  N   N14       1.0  0.7068257350889766  0.08046012562937789  0.4160093487211997  1.0000
  C   C197      1.0  0.6893476810641973  0.06823904402700082  0.44728668007896233  1.0000
  C   C198      1.0  0.669535300151603  0.0552042503418324  0.39424952713176586  1.0000
  C   C199      1.0  0.7429511274534008  0.06886534269969204  0.41105196075131295  1.0000
  C   C200      1.0  0.7254808687092776  0.12942601143015126  0.41150097919034834  1.0000
  H   H253      1.0  0.7166711479131112  0.08709829293512052  0.46425382842068  1.0000
  H   H254      1.0  0.6754840069137926  0.03158154583367903  0.4515335437591637  1.0000
  H   H255      1.0  0.6617624437504538  0.0761956231928968  0.4517678517837293  1.0000
  H   H256      1.0  0.6816893068495823  0.06356371029373437  0.37046728756995845  1.0000
  H   H257      1.0  0.6551834880708858  0.018136725322213977  0.39666336924196166  1.0000
  H   H258      1.0  0.6415107340928179  0.06290823737545685  0.3972254067750121  1.0000
  H   H259      1.0  0.7294760070224722  0.03180815578119173  0.41220703866743247  1.0000
  H   H260      1.0  0.770189882110613  0.08484374194328667  0.4282929087578017  1.0000
  H   H261      1.0  0.7588796453413746  0.08009292200629903  0.38830050307554614  1.0000
  H   H262      1.0  0.7401865609048139  0.14018792430239027  0.38838374694371314  1.0000
  H   H263      1.0  0.7530136755962079  0.14952199191455137  0.4280420119390679  1.0000
  H   H264      1.0  0.6989498703540312  0.13927601856476832  0.4142906404152888  1.0000
  N   N15       1.0  0.0192715224383333  0.6110025714105447  0.039349082250366416  1.0000
  C   C201      1.0  0.061444680799848994  0.6220062308371522  0.022851043190978703  1.0000
  C   C202      1.0  0.007022606404523346  0.5719951450827766  0.05941206147165157  1.0000
  C   C203      1.0  0.9824089465330831  0.6002159023075352  0.017333069537051084  1.0000
  C   C204      1.0  0.026523344385267045  0.650085797691372  0.0578648830188742  1.0000
  H   H265      1.0  0.07115873277173979  0.6506992228246958  0.006983016941260241  1.0000
  H   H266      1.0  0.05762491854693308  0.5929796885722444  0.00914687638198324  1.0000
  H   H267      1.0  0.09029981569054257  0.631566667813601  0.038784175235560346  1.0000
  H   H268      1.0  0.9755032674991176  0.5628507868950421  0.07241332686548344  1.0000
  H   H269      1.0  0.0014151724527011744  0.5418406734527373  0.04625579564669919  1.0000
  H   H270      1.0  0.03458586285066234  0.5795798275887939  0.0761521094478031  1.0000
  H   H271      1.0  0.9500476373803715  0.5919616419692044  0.028926362688555054  1.0000
  H   H272      1.0  0.9761190123021223  0.571109100570616  0.0027342085355868133  1.0000
  H   H273      1.0  0.9909880975404474  0.6294067919150148  0.0020398715653797694  1.0000
  H   H274      1.0  0.03579871382062372  0.6801428333915273  0.04344690478980786  1.0000
  H   H275      1.0  0.05434065071196037  0.6594178198809751  0.0746172530888413  1.0000
  H   H276      1.0  0.9954572719320609  0.6430974357230708  0.07067324396018998  1.0000
  N   N16       1.0  0.3379150434714389  0.5720965446607369  0.397044171915306  1.0000
  C   C205      1.0  0.35363500489830346  0.5615543801945554  0.4255606284101883  1.0000
  C   C206      1.0  0.3544325054774521  0.5570886622187203  0.37096016269934035  1.0000
  C   C207      1.0  0.3559639741063299  0.6212621027486555  0.39503242450997417  1.0000
  C   C208      1.0  0.2877269698713349  0.548553687347693  0.39650431305764694  1.0000
  H   H277      1.0  0.341292388775257  0.5717427338930383  0.44581105689102474  1.0000
  H   H278      1.0  0.39137831371322346  0.5790504331707628  0.42681244084379677  1.0000
  H   H279      1.0  0.3414484198344352  0.5248465414142699  0.42769519230326924  1.0000
  H   H280      1.0  0.34238246261258215  0.5635298858952345  0.3490333567220834  1.0000
  H   H281      1.0  0.3921496106803029  0.5743343132239885  0.37035453861453754  1.0000
  H   H282      1.0  0.34156631503874896  0.520233272566098  0.371982932838121  1.0000
  H   H283      1.0  0.34410963614411905  0.6337389838290923  0.414374931143972  1.0000
  H   H284      1.0  0.3448972195973204  0.6304056549334854  0.3737172085250426  1.0000
  H   H285      1.0  0.3937884132835765  0.6399722657372532  0.39539817255248066  1.0000
  H   H286      1.0  0.27476508669602856  0.5552874219983102  0.37506928334671386  1.0000
  H   H287      1.0  0.27378311032429803  0.5588462388247045  0.41582702235230845  1.0000
  H   H288      1.0  0.2729446055997866  0.5113484838360804  0.3977569768353168  1.0000
  N   N17       1.0  0.4666630902398216  0.41135056322380403  0.40918812195006776  1.0000
  C   C209      1.0  0.4405929659771616  0.3639308082534239  0.3989526351582293  1.0000
  C   C210      1.0  0.5157004310535012  0.4264188657864991  0.408493616797434  1.0000
  C   C211      1.0  0.4530636825896186  0.4151610226907706  0.4404363590816508  1.0000
  C   C212      1.0  0.4573074825850658  0.440063386386351  0.388800847601306  1.0000
  H   H289      1.0  0.4034254664808265  0.3515212352131759  0.39898073330921047  1.0000
  H   H290      1.0  0.44665071071899204  0.34109710502130375  0.4137648587102483  1.0000
  H   H291      1.0  0.44960043116102705  0.3599152319231482  0.37529028833198064  1.0000
  H   H292      1.0  0.5240106106170216  0.40542293904378185  0.4236026515231631  1.0000
  H   H293      1.0  0.5270418419482302  0.4241616453918559  0.38517888695770663  1.0000
  H   H294      1.0  0.5362782796727681  0.4620949718935339  0.4161125915669528  1.0000
  H   H295      1.0  0.4714278071525371  0.4507169214214653  0.4486188617443515  1.0000
  H   H296      1.0  0.4598746610923401  0.39426338963403423  0.45661711229946  1.0000
  H   H297      1.0  0.4161853676705389  0.4039846957348766  0.44181023735304736  1.0000
  H   H298      1.0  0.4208271143317882  0.4300117933216076  0.3893890382754607  1.0000
  H   H299      1.0  0.46581311880855797  0.437142145242389  0.3648166306980029  1.0000
  H   H300      1.0  0.47666051119997704  0.4761934924512025  0.3956058125704197  1.0000
  N   N18       1.0  0.7350604744641575  0.7749236174811908  0.5924978132636094  1.0000
  C   C213      1.0  0.7694094377806785  0.7635643721336504  0.6033646290293472  1.0000
  C   C214      1.0  0.7515448201121867  0.8022597304515374  0.5646009218251918  1.0000
  C   C215      1.0  0.7269290795592082  0.8009563301432221  0.6160533145704752  1.0000
  C   C216      1.0  0.6923199594535024  0.7329147342259555  0.5858313617137701  1.0000
  H   H301      1.0  0.8026406166683254  0.7943696894196092  0.6076508271381171  1.0000
  H   H302      1.0  0.7754709734452989  0.7429714983199803  0.5864005752382953  1.0000
  H   H303      1.0  0.7583917708464601  0.7437054166344789  0.6247246676548301  1.0000
  H   H304      1.0  0.7263101742651658  0.8113933988722135  0.5558316062446831  1.0000
  H   H305      1.0  0.7838930669407556  0.8341463437731973  0.5685603959139729  1.0000
  H   H306      1.0  0.7577676451650944  0.7835453240869624  0.5462849824887819  1.0000
  H   H307      1.0  0.7117984426137308  0.7806506462926776  0.6369177395859236  1.0000
  H   H308      1.0  0.7031542922109421  0.8121777105262734  0.6078645537819559  1.0000
  H   H309      1.0  0.7588733761580388  0.831848501115998  0.6226056126502644  1.0000
  H   H310      1.0  0.6659859011337812  0.7401604617007269  0.576873508112945  1.0000
  H   H311      1.0  0.6782497643076454  0.7116859437559909  0.6064269820239689  1.0000
  H   H312      1.0  0.6975398966912928  0.71228520553951  0.5683715134978665  1.0000
  N   N19       1.0  0.2756965610410653  0.327201747428167  0.24807418379750956  1.0000
  C   C217      1.0  0.31067392978753333  0.3550652445658541  0.2705989664601159  1.0000
  C   C218      1.0  0.2678212980671631  0.2805655174229687  0.24921263255349582  1.0000
  C   C219      1.0  0.29130009493730563  0.3460550405397612  0.21741803249971597  1.0000
  C   C220      1.0  0.23304917999614522  0.3271635335704536  0.2551937171735842  1.0000
  H   H313      1.0  0.34319997736918906  0.3553412165448996  0.26633959328410645  1.0000
  H   H314      1.0  0.2996681668076394  0.3419740799170024  0.2939843717754266  1.0000
  H   H315      1.0  0.31801244238803356  0.3905829895109569  0.27032415404922455  1.0000
  H   H316      1.0  0.24225693797721362  0.2585518844385886  0.23214555367529996  1.0000
  H   H317      1.0  0.299652918658434  0.2794772939678909  0.24476677352940202  1.0000
  H   H318      1.0  0.2553207451482258  0.26510127164625735  0.27191441752498885  1.0000
  H   H319      1.0  0.265767796331141  0.32572358928552336  0.19980685265592146  1.0000
  H   H320      1.0  0.32365014637742895  0.3469939727275944  0.21139101870911894  1.0000
  H   H321      1.0  0.2971219976034683  0.38108632787303565  0.2156655324483643  1.0000
  H   H322      1.0  0.22038417902761082  0.31334374538739573  0.278242930593586  1.0000
  H   H323      1.0  0.20584890910048  0.30653904841963153  0.23861165110722046  1.0000
  H   H324      1.0  0.23790720452578437  0.36190130107098545  0.25460490056521395  1.0000
  N   N20       1.0  0.07372473209629506  0.8222467663791403  0.6118899261979219  1.0000
  C   C221      1.0  0.03310355529081334  0.7987998121229458  0.6313260755993786  1.0000
  C   C222      1.0  0.07604170426995993  0.7893099253434953  0.5912541575045305  1.0000
  C   C223      1.0  0.11488559510313673  0.8434762710805023  0.63105852068641  1.0000
  C   C224      1.0  0.0705935483887264  0.8571090115897824  0.5939204733356922  1.0000
  H   H325      1.0  0.030397976767771263  0.8223024181164803  0.6475609489526277  1.0000
  H   H326      1.0  0.03402110263958264  0.7718141296048824  0.6448021627301316  1.0000
  H   H327      1.0  0.0013893306118972536  0.7826196635208476  0.6175887324036838  1.0000
  H   H328      1.0  0.07816763304649599  0.7623596833923918  0.6042040227871668  1.0000
  H   H329      1.0  0.0453842079663007  0.7725195115249962  0.576510899247788  1.0000
  H   H330      1.0  0.1063380472767682  0.8056662652399964  0.5762537927983825  1.0000
  H   H331      1.0  0.1461576988267183  0.8626875324464472  0.617240919026471  1.0000
  H   H332      1.0  0.11893090628758991  0.8176999469633903  0.6440066530496945  1.0000
  H   H333      1.0  0.11354123320779633  0.8670661943718909  0.647928952053442  1.0000
  H   H334      1.0  0.10039813620356425  0.8752260528515877  0.5786533214811049  1.0000
  H   H335      1.0  0.06899014402577258  0.8825964145769538  0.6088457543228681  1.0000
  H   H336      1.0  0.03947655560908191  0.8419217379940588  0.5795058057598227  1.0000
  N   N21       1.0  0.11504569088922768  0.7703822815878352  0.822479942886689  1.0000
  C   C225      1.0  0.1280340735188725  0.7747408256865485  0.8548014288023095  1.0000
  C   C226      1.0  0.07305274802995076  0.7269120133194154  0.8175290729176946  1.0000
  C   C227      1.0  0.15196393726104185  0.7721143439404272  0.803664153024337  1.0000
  C   C228      1.0  0.10726712169462947  0.8078413838968472  0.8138879193026242  1.0000
  H   H337      1.0  0.1349861330826557  0.747425313871733  0.8618794982302895  1.0000
  H   H338      1.0  0.10086346027560666  0.7731121533632447  0.8698216390178259  1.0000
  H   H339      1.0  0.15959651232291244  0.8072497979103708  0.8592861755776651  1.0000
  H   H340      1.0  0.06235271004093131  0.7225454414364195  0.7933229335405536  1.0000
  H   H341      1.0  0.07789730237880725  0.697983459279895  0.8237803486149777  1.0000
  H   H342      1.0  0.044410993763349456  0.7243876316745121  0.8314077725657  1.0000
  H   H343      1.0  0.18369695395178243  0.8050347671363891  0.8061875864208444  1.0000
  H   H344      1.0  0.14298514728958814  0.7677861054616834  0.77917952788132  1.0000
  H   H345      1.0  0.16021638746628603  0.7455202843145522  0.8102795583738862  1.0000
  H   H346      1.0  0.09731552828142033  0.8054965869936046  0.7896462751980915  1.0000
  H   H347      1.0  0.13862434533719598  0.8411322753025654  0.8167983228396425  1.0000
  H   H348      1.0  0.07998881442167803  0.808013176953485  0.8278189263985238  1.0000
  N   N22       1.0  0.32813855181567514  0.09700815790668427  0.08584421489519797  1.0000
  C   C229      1.0  0.2796767023107981  0.06253956638166024  0.08878246793387617  1.0000
  C   C230      1.0  0.34344395112492077  0.09710059058962367  0.054446296891499886  1.0000
  C   C231      1.0  0.3552267220210845  0.08633871467702708  0.10700959652981659  1.0000
  C   C232      1.0  0.33427322196103343  0.14196184538793893  0.09319889673694345  1.0000
  H   H349      1.0  0.27398696709697273  0.028079698733390147  0.08382865441489983  1.0000
  H   H350      1.0  0.2581071402085162  0.06913356363296679  0.07293769240328823  1.0000
  H   H351      1.0  0.26698116105985104  0.06166895987885119  0.11220200610671659  1.0000
  H   H352      1.0  0.38014227491259245  0.12196882887269862  0.051658244594028936  1.0000
  H   H353      1.0  0.33854394874002997  0.06349013740720356  0.0479239376170642  1.0000
  H   H354      1.0  0.3247074678347138  0.10638023280211438  0.03786213195855839  1.0000
  H   H355      1.0  0.391912856455503  0.11161454999890526  0.10570800854469294  1.0000
  H   H356      1.0  0.35167523323257854  0.05276014210550199  0.10204883667689293  1.0000
  H   H357      1.0  0.34441430989513827  0.08571848221347982  0.13090610608252048  1.0000
  H   H358      1.0  0.3704777748539738  0.16872652398750243  0.0910766014505081  1.0000
  H   H359      1.0  0.32347689884527503  0.14328796326077847  0.11684022179449348  1.0000
  H   H360      1.0  0.3143497543455683  0.15121972069958614  0.07765079119326901  1.0000
  N   N23       1.0  0.8350036281295696  0.07219575385302511  0.5469311525900481  1.0000
  C   C233      1.0  0.7934710437377761  0.03516599324135121  0.5332358937039766  1.0000
  C   C234      1.0  0.8491572120053638  0.0547038042527138  0.5728917249863983  1.0000
  C   C235      1.0  0.8256334788786155  0.10783190882463618  0.5575381306545013  1.0000
  C   C236      1.0  0.8717954235467937  0.0912686741293786  0.5241464223024491  1.0000
  H   H361      1.0  0.7818621224450581  0.04739243280985657  0.5136701473524979  1.0000
  H   H362      1.0  0.7651940478398507  0.02011469767994146  0.5500049875769334  1.0000
  H   H363      1.0  0.7992469018053324  0.007622617942454335  0.524895805772778  1.0000
  H   H364      1.0  0.8813697599706085  0.0815089574238483  0.5830270448577834  1.0000
  H   H365      1.0  0.823134651876783  0.042070739877844675  0.5912455570829384  1.0000
  H   H366      1.0  0.8550113479980089  0.026664688069199652  0.5660141756714185  1.0000
  H   H367      1.0  0.8564908366072019  0.13655314151294534  0.5676068245359533  1.0000
  H   H368      1.0  0.7985320044146316  0.09497416036161747  0.5751113163638423  1.0000
  H   H369      1.0  0.8145331909916997  0.12169494271353082  0.5386811631391774  1.0000
  H   H370      1.0  0.8795085114210459  0.06531097605942396  0.5152472667870281  1.0000
  H   H371      1.0  0.9036979483465418  0.11891861612643086  0.5340638616771426  1.0000
  H   H372      1.0  0.8627975761965087  0.10592849265018998  0.5045845195646941  1.0000
  N   N24       1.0  0.6688004068491574  0.7790342488863218  0.34152397802297935  1.0000
  C   C237      1.0  0.6484175595202969  0.7952662473796857  0.3644082144738979  1.0000
  C   C238      1.0  0.7039698924552577  0.8178538764671334  0.32436379350602307  1.0000
  C   C239      1.0  0.6330269137458866  0.7475793684178387  0.3206607211451315  1.0000
  C   C240      1.0  0.6897165157891435  0.7553712336347338  0.356875295536804  1.0000
  H   H373      1.0  0.621439862106841  0.7668832533693315  0.3776758809595648  1.0000
  H   H374      1.0  0.6332378770992665  0.8143241567198646  0.35388423382833273  1.0000
  H   H375      1.0  0.6743693816167322  0.8182073252753694  0.38082785060959684  1.0000
  H   H376      1.0  0.7317355433587526  0.8417614741950981  0.33957958667903204  1.0000
  H   H377      1.0  0.7198858775693784  0.8069192687553621  0.306683716406702  1.0000
  H   H378      1.0  0.6897524991528761  0.8372993496496176  0.3130887812489763  1.0000
  H   H379      1.0  0.6471425448729021  0.7345074112974472  0.3031007799485345  1.0000
  H   H380      1.0  0.61640499007394  0.7643276801823676  0.30881018782861525  1.0000
  H   H381      1.0  0.6061530102723993  0.7180123307200056  0.3331923089893108  1.0000
  H   H382      1.0  0.71745852589507  0.7784731255287612  0.3723990980071991  1.0000
  H   H383      1.0  0.7048605699783349  0.7419399165732745  0.3403660896716258  1.0000
  H   H384      1.0  0.6643320076727999  0.726571711258817  0.3707294777811669  1.0000
