data_image0
_chemical_formula_structural       FeS2FeS2FeSFeS3FeS2FeS2FeSFeS3FeS2FeS2FeSFeS3FeS2FeS2FeSFeS3FeS2FeS2FeSFeS3FeS2FeS2FeSFeS3FeS2FeS2FeSFeS3FeS2FeS2FeSFeS3FeS2FeS2FeSFeS3FeS2FeS2FeSFeS3FeS2FeS2FeSFeS3FeS2FeS2FeSFeS3FeS2FeS2FeSFeS3FeS2FeS2FeSFeS3FeS2FeS2FeSFeS3FeS2FeS2FeSFeS3C6H4C6H4C6H4C6H4C6H4C6H4C6H4C6H4C6H4C6H4C6H4C6H4C6H4C6H4C6H4C6H4C6H4C6H4C6H4C6H4C6H4C6H4C6H4C6H4C6H4C6H4C6H4C6H4C6H4C6H4C6H4C6H4FeS2FeS2FeSFeS3FeS2FeS2FeSFeS3FeS2FeS2FeSFeS3FeS2FeS2FeSFeS3FeS2FeS2FeSFeS3FeS2FeS2FeSFeS3FeS2FeS2FeSFeS3FeS2FeS2FeSFeS3FeS2FeS2FeSFeS3FeS2FeS2FeSFeS3FeS2FeS2FeSFeS3FeS2FeS2FeSFeS3FeS2FeS2FeSFeS3FeS2FeS2FeSFeS3FeS2FeS2FeSFeS3FeS2FeS2FeSFeS3C6H4C6H4C6H4C6H4C6H4C6H4C6H4C6H4C6H4C6H4C6H4C6H4C6H4C6H4C6H4C6H4C6H4C6H4C6H4C6H4C6H4C6H4C6H4C6H4C6H4C6H4C6H4C6H4C6H4C6H4C6H4C6H4NC4H12NC4H12NC4H12NC4H12NC4H12NC4H12NC4H12NC4H12NC4H12NC4H12NC4H12NC4H12NC4H12NC4H12NC4H12NC4H12NC4H12NC4H12NC4H12NC4H12NC4H12NC4H12NC4H12NC4H12NC4H12NC4H12NC4H12NC4H12NC4H12NC4H12NC4H12NC4H12NC4H12NC4H12NC4H12NC4H12NC4H12NC4H12NC4H12NC4H12NC4H12NC4H12NC4H12NC4H12NC4H12NC4H12NC4H12NC4H12NC4H12NC4H12NC4H12NC4H12NC4H12NC4H12NC4H12NC4H12NC4H12NC4H12NC4H12NC4H12NC4H12NC4H12NC4H12NC4H12
_chemical_formula_sum              "Fe128 S256 C640 H1024 N64"
_cell_length_a       45.410352692909065
_cell_length_b       43.57053513375359
_cell_length_c       32.38015983282741
_cell_angle_alpha    90.37916893937661
_cell_angle_beta     90.29358710397017
_cell_angle_gamma    88.78270924900451

_space_group_name_H-M_alt    "P 1"
_space_group_IT_number       1

loop_
  _space_group_symop_operation_xyz
  'x, y, z'

loop_
  _atom_site_type_symbol
  _atom_site_label
  _atom_site_symmetry_multiplicity
  _atom_site_fract_x
  _atom_site_fract_y
  _atom_site_fract_z
  _atom_site_occupancy
  Fe  Fe1       1.0  0.565362561854115  0.21605364040468394  0.4550180608764462  1.0000
  S   S1        1.0  0.6041813425635165  0.24572129261316322  0.445059118403516  1.0000
  S   S2        1.0  0.5338690174208108  0.20407851682517497  0.4044297009802896  1.0000
  Fe  Fe2       1.0  0.5845668908136745  0.1987788432363208  0.5411074598520528  1.0000
  S   S3        1.0  0.6251828072595341  0.22732476007533234  0.5394375718135375  1.0000
  S   S4        1.0  0.6784210693325007  0.18953992522347549  0.27278340575693666  1.0000
  Fe  Fe3       1.0  0.5954279584624155  0.26260819001184893  0.5096004659709581  1.0000
  S   S5        1.0  0.5975818188753086  0.3138019922336977  0.5187440557534337  1.0000
  Fe  Fe4       1.0  0.6303055607713051  0.2081932350695632  0.4757101923302973  1.0000
  S   S6        1.0  0.674507097220771  0.19401496141212396  0.45117550668617534  1.0000
  S   S7        1.0  0.5539957126730721  0.23579782588886034  0.51717265594653  1.0000
  S   S8        1.0  0.5922599196055931  0.17672674674068758  0.47959626445677556  1.0000
  Fe  Fe5       1.0  0.7685259657184382  0.05227722848123074  0.311592854809453  1.0000
  S   S9        1.0  0.7245475986337757  0.030724845299328285  0.3165574356850009  1.0000
  S   S10       1.0  0.7769776645370178  0.08621518556745067  0.2616913893927982  1.0000
  Fe  Fe6       1.0  0.7931170851438444  0.01983906984347672  0.38591605110897703  1.0000
  S   S11       1.0  0.751468049613114  0.9944773617865863  0.3979178962131115  1.0000
  S   S12       1.0  0.832145939192306  0.020582533659984747  0.42866925764193303  1.0000
  Fe  Fe7       1.0  0.7501672289953562  0.9874427695222608  0.3292768676559542  1.0000
  S   S13       1.0  0.7295007915752078  0.9461784254206901  0.3001234006692858  1.0000
  Fe  Fe8       1.0  0.7286371819372512  0.03928262851072972  0.3843221107225759  1.0000
  S   S14       1.0  0.6876179920307083  0.05159363688456353  0.41985878580480984  1.0000
  S   S15       1.0  0.7943809295378451  0.008221828963346  0.31817930543577416  1.0000
  S   S16       1.0  0.7703718769447974  0.06549529432354428  0.37848377995742694  1.0000
  Fe  Fe9       1.0  0.6176398846815023  0.9968627411040392  0.02529968400581195  1.0000
  S   S17       1.0  0.5876542105886929  0.9567239344012456  0.02656352277661167  1.0000
  S   S18       1.0  0.580112517758341  0.9856572986275811  0.6068558340252719  1.0000
  Fe  Fe10      1.0  0.6601492657287155  0.9692125015083558  0.08762222518575169  1.0000
  S   S19       1.0  0.6342607089723431  0.9263878865451842  0.0954939386089353  1.0000
  S   S20       1.0  0.703063020353614  0.9830897846342939  0.1152636534335344  1.0000
  Fe  Fe11      1.0  0.6291902738787011  0.9281234928547993  0.026467303270496068  1.0000
  S   S21       1.0  0.6379945887028183  0.8886286278288974  0.9832133367662649  1.0000
  Fe  Fe12      1.0  0.5950125039560161  0.9587742131379342  0.09520758479522806  1.0000
  S   S22       1.0  0.555773455549908  0.9554431972676058  0.13641840673623357  1.0000
  S   S23       1.0  0.5841762058498663  0.9478115033021935  0.7146841408668364  1.0000
  S   S24       1.0  0.6214411917170086  0.001425620283855178  0.09371132879691958  1.0000
  Fe  Fe13      1.0  0.48869298955754636  0.040386856323813225  0.4195274796388198  1.0000
  S   S25       1.0  0.4610494696504534  0.9985824786053153  0.42424053427238395  1.0000
  S   S26       1.0  0.482477940507523  0.07906654729181817  0.4654234621730112  1.0000
  Fe  Fe14      1.0  0.5237704251159413  0.014662766058062715  0.34735259202046714  1.0000
  S   S27       1.0  0.49907689051350607  0.9704731803405686  0.34531747096570353  1.0000
  S   S28       1.0  0.561674385666213  0.026902172196692442  0.30647445565624215  1.0000
  Fe  Fe15      1.0  0.4588831182417334  0.0006661064740884903  0.35510627032445413  1.0000
  S   S29       1.0  0.41687106989977746  0.9990057267155928  0.31779723078314454  1.0000
  Fe  Fe16      1.0  0.5033717411637018  0.9720720754221115  0.4144024178223672  1.0000
  S   S30       1.0  0.5135407775235307  0.9303314336061899  0.4532318406949506  1.0000
  S   S31       1.0  0.48330470440367435  0.04469142390578296  0.35102058685701143  1.0000
  S   S32       1.0  0.5313455106492293  0.01391105882759125  0.4158251335509579  1.0000
  Fe  Fe17      1.0  0.08384825371710278  0.009237315710088234  0.6925873318425889  1.0000
  S   S33       1.0  0.12037228277233428  0.9780972717348992  0.7148587324298752  1.0000
  S   S34       1.0  0.10530837645903673  0.962012779022797  0.16451324317918692  1.0000
  Fe  Fe18      1.0  0.06749016216684445  0.9669110846733676  0.6224456780812685  1.0000
  S   S35       1.0  0.10154955526351521  0.9315481829234954  0.6392866596587268  1.0000
  S   S36       1.0  0.042691168091098186  0.9632708169094476  0.563050005589764  1.0000
  Fe  Fe19      1.0  0.08767276355356314  0.9411579839002384  0.7043653669787999  1.0000
  S   S37       1.0  0.08435681552058566  0.9022714493363696  0.7485158366314445  1.0000
  Fe  Fe20      1.0  0.13089636489399703  0.9715466011218549  0.6478377934222359  1.0000
  S   S38       1.0  0.17608725208534237  0.9700382401430816  0.6203565003040418  1.0000
  S   S39       1.0  0.05005957529613614  0.9726710191726402  0.686929598321308  1.0000
  S   S40       1.0  0.09779222975300224  0.006641466321629652  0.6264559630291403  1.0000
  Fe  Fe21      1.0  0.2585777061973088  0.00900160079851009  0.39077060411517917  1.0000
  S   S41       1.0  0.2178498189088687  0.025748366869465134  0.4236997912327948  1.0000
  S   S42       1.0  0.3015111641968681  0.005280011658609585  0.4255147267287092  1.0000
  Fe  Fe22      1.0  0.2260091839654667  0.9968040381395631  0.31087974970056487  1.0000
  S   S43       1.0  0.18247117172134683  0.011891424261698536  0.3367429323464072  1.0000
  S   S44       1.0  0.23065226200255085  0.9837472361868257  0.24389054880972197  1.0000
  Fe  Fe23      1.0  0.20736207513800609  0.05035464322764582  0.36489537574784137  1.0000
  S   S45       1.0  0.18415926186910844  0.09610771586234601  0.36381682729350284  1.0000
  Fe  Fe24      1.0  0.19645127519885458  0.985788018637603  0.3930840290412393  1.0000
  S   S46       1.0  0.16184768810231306  0.9599301352209645  0.42653530847292714  1.0000
  S   S47       1.0  0.25028216921134794  0.03772668244240074  0.3345545081484282  1.0000
  S   S48       1.0  0.23791289584483058  0.9665991550872686  0.36463331481230205  1.0000
  Fe  Fe25      1.0  0.9456566653279681  0.1411148260643973  0.4323247425235302  1.0000
  S   S49       1.0  0.9745388418404194  0.09935684657104771  0.44156807508997237  1.0000
  S   S50       1.0  0.907887624462242  0.13652248563077451  0.3878258371096547  1.0000
  Fe  Fe26      1.0  0.9801491686164201  0.17949750818335528  0.4946044074636862  1.0000
  S   S51       1.0  0.011863724960452071  0.14082102430386678  0.5081300142405588  1.0000
  S   S52       1.0  0.9802617270261103  0.22454005904806668  0.5293717559151171  1.0000
  Fe  Fe27      1.0  0.011455558651584541  0.1327571223987413  0.4396545931051355  1.0000
  S   S53       1.0  0.053931785383549924  0.12449999321442295  0.40546352110357936  1.0000
  Fe  Fe28      1.0  0.971668133027418  0.11213927244883304  0.5085620254884117  1.0000
  S   S54       1.0  0.9617992173415427  0.08187726582822186  0.5617820168932652  1.0000
  S   S55       1.0  0.9827942330000494  0.17402615852305728  0.4255998112702974  1.0000
  S   S56       1.0  0.9397809988576721  0.15117940329208968  0.49965262928691023  1.0000
  Fe  Fe29      1.0  0.13610933691159532  0.17078394625785198  0.16788889097773668  1.0000
  S   S57       1.0  0.1084066287054795  0.19730234431180046  0.21354767224028534  1.0000
  S   S58       1.0  0.17534288414535718  0.13979776391831128  0.17866596237374807  1.0000
  Fe  Fe30      1.0  0.09506171409050501  0.18433104705007847  0.09628109809107244  1.0000
  S   S59       1.0  0.06281854383829133  0.2112197123634271  0.1351499731752086  1.0000
  S   S60       1.0  0.07351900967394243  0.24351831518462747  0.6728455851472555  1.0000
  Fe  Fe31      1.0  0.10347214660629103  0.2319218690061907  0.16263459886407486  1.0000
  S   S61       1.0  0.10747488757250646  0.28265554544492183  0.17366538972779524  1.0000
  Fe  Fe32      1.0  0.07051765937465992  0.17436575002449423  0.18251112902624084  1.0000
  S   S62       1.0  0.033703472830612924  0.1511823276272833  0.2152999173286992  1.0000
  S   S63       1.0  0.10820414727660226  0.3094901717845225  0.7336141903494154  1.0000
  S   S64       1.0  0.09843649197715143  0.14538332687215064  0.14060831358346476  1.0000
  Fe  Fe33      1.0  0.14761833583820103  0.6284486289915395  0.3342032177818896  1.0000
  S   S65       1.0  0.16853289783089084  0.6480521208556829  0.39114531247229584  1.0000
  S   S66       1.0  0.11081877610464376  0.6515794603279427  0.29899301210824164  1.0000
  Fe  Fe34      1.0  0.1882156688106288  0.5730806937293843  0.3323153006720459  1.0000
  S   S67       1.0  0.21333935010011235  0.5870879617624225  0.3887718736879776  1.0000
  S   S68       1.0  0.1989185923348965  0.5315597130594218  0.29379147173471115  1.0000
  Fe  Fe35      1.0  0.1687704833556192  0.5996023370423529  0.4137353535561461  1.0000
  S   S69       1.0  0.16187292615432555  0.5910493553374792  0.48078913090951436  1.0000
  Fe  Fe36      1.0  0.21136202072350269  0.6342169831925782  0.3619754409888132  1.0000
  S   S70       1.0  0.24962760142585766  0.6657256961558207  0.36709040258448705  1.0000
  S   S71       1.0  0.14341193951263126  0.5811945164812695  0.3596928701911606  1.0000
  S   S72       1.0  0.1907204659513045  0.6192346787170542  0.3027022312068877  1.0000
  Fe  Fe37      1.0  0.11258521636796882  0.7360337156544531  0.018648282858166665  1.0000
  S   S73       1.0  0.12301833583096466  0.7508436747883676  0.6743346471545453  1.0000
  S   S74       1.0  0.13525888017445648  0.7781385541008825  0.9962971277529428  1.0000
  Fe  Fe38      1.0  0.12404446185283974  0.6816891829639022  0.07481683254718163  1.0000
  S   S75       1.0  0.08133158265343822  0.6600422087187244  0.05885974770422675  1.0000
  S   S76       1.0  0.15509005299693124  0.6553519902750643  0.11590956928882612  1.0000
  Fe  Fe39      1.0  0.09145050138387029  0.6731518710743736  0.9938135316542854  1.0000
  S   S77       1.0  0.1127772081244997  0.7131890828755926  0.5624327371551773  1.0000
  Fe  Fe40      1.0  0.06240229194413027  0.707751780851006  0.06434907409645563  1.0000
  S   S78       1.0  0.020850637222970647  0.7163257453063364  0.10003660758215971  1.0000
  S   S79       1.0  0.1361471516990721  0.6907410641177028  0.009428588475483002  1.0000
  S   S80       1.0  0.10455853442027213  0.7286421173207952  0.08604761416430362  1.0000
  Fe  Fe41      1.0  0.8791819326246957  0.5868592655489138  0.21130215857067855  1.0000
  S   S81       1.0  0.9209805919570362  0.6126724846628092  0.20415668727431108  1.0000
  S   S82       1.0  0.8368677431928246  0.6081777606202609  0.23313124986221914  1.0000
  Fe  Fe42      1.0  0.9067104149112177  0.5263306381130523  0.1854635601282797  1.0000
  S   S83       1.0  0.9510926378967112  0.5464473030325335  0.17573535403329762  1.0000
  S   S84       1.0  0.9006720307467847  0.47663412712447106  0.17233549926163705  1.0000
  Fe  Fe43      1.0  0.9419782936784197  0.5716804236142757  0.2348744711853582  1.0000
  S   S85       1.0  0.9769916889206389  0.5768867504335617  0.28351391919108293  1.0000
  Fe  Fe44      1.0  0.9258852144406805  0.5850314342765588  0.14578107513207594  1.0000
  S   S86       1.0  0.9395015713852407  0.6015235347550324  0.0835091069716909  1.0000
  S   S87       1.0  0.8994581936742025  0.5481164999275696  0.24717378138013746  1.0000
  S   S88       1.0  0.8822089017899998  0.5626174154750282  0.15025026505870592  1.0000
  Fe  Fe45      1.0  0.06238618730749579  0.40522517700372  0.46559472383094513  1.0000
  S   S89       1.0  0.10208913302311327  0.4335038901884295  0.45420456888089755  1.0000
  S   S90       1.0  0.06618878920001792  0.36224031949651486  0.5027216571642497  1.0000
  Fe  Fe46      1.0  0.021629770205945142  0.44858649571247666  0.4180905741019757  1.0000
  S   S91       1.0  0.058005612459423705  0.4801227182030886  0.40185399401449684  1.0000
  S   S92       1.0  0.9757891691135085  0.4593937882726973  0.39621265987089116  1.0000
  Fe  Fe47      1.0  0.08406565285163782  0.4367337861550893  0.38968333034777103  1.0000
  S   S93       1.0  0.10933605041449317  0.42710353203999046  0.331473672251388  1.0000
  Fe  Fe48      1.0  0.07157005360819091  0.4735465627745273  0.46797970846185133  1.0000
  S   S94       1.0  0.036537395229916836  0.4488109668776833  0.16250468174606802  1.0000
  S   S95       1.0  0.04633793909518013  0.40554647817417655  0.40013178922805287  1.0000
  S   S96       1.0  0.0332886685671161  0.4445726761523207  0.48493685419478066  1.0000
  Fe  Fe49      1.0  0.6218686224042936  0.508858551960916  0.25088472466330447  1.0000
  S   S97       1.0  0.6392019445997569  0.4790392088648563  0.3021676203985526  1.0000
  S   S98       1.0  0.5967053769940972  0.5535446998084179  0.2517587824041374  1.0000
  Fe  Fe50      1.0  0.6581265766989272  0.47637816316969  0.18489211142104764  1.0000
  S   S99       1.0  0.6794411776519783  0.44343168645272835  0.22954189362394606  1.0000
  S   S100      1.0  0.6488167281145454  0.5024146098589908  0.5998668276418305  1.0000
  Fe  Fe51      1.0  0.6339462977398099  0.44055530773204404  0.256260320921185  1.0000
  S   S101      1.0  0.617637965377585  0.3947783533047811  0.27690643392129144  1.0000
  Fe  Fe52      1.0  0.6830686019186134  0.48410569775274026  0.27180307439064805  1.0000
  S   S102      1.0  0.7237083725774124  0.49698295112851176  0.3068285056495801  1.0000
  S   S103      1.0  0.6182179198137936  0.4439115839604761  0.6825130066458209  1.0000
  S   S104      1.0  0.6663167404992054  0.5171823238507018  0.2247674218900855  1.0000
  Fe  Fe53      1.0  0.8010957829075638  0.6197240282205007  0.45768402623444143  1.0000
  S   S105      1.0  0.7718992443884893  0.6557140013560496  0.4287098335854699  1.0000
  S   S106      1.0  0.8429698381921108  0.6022752238872384  0.4278603577600151  1.0000
  Fe  Fe54      1.0  0.7617312069676774  0.6140130845033727  0.5323635170133041  1.0000
  S   S107      1.0  0.7286204831965543  0.6490041377643327  0.5096896500455239  1.0000
  S   S108      1.0  0.7586041521266286  0.5883695604929696  0.5918931767957194  1.0000
  Fe  Fe55      1.0  0.7349901415005997  0.6260299402541383  0.4482372929550217  1.0000
  S   S109      1.0  0.6963495243223787  0.6184620437755646  0.40600579342158055  1.0000
  Fe  Fe56      1.0  0.7683139920192193  0.6757739372667629  0.4924067482394502  1.0000
  S   S110      1.0  0.7723134205188629  0.7269015722085826  0.4983775370714056  1.0000
  S   S111      1.0  0.764378997085068  0.5881125503290262  0.4725574935642831  1.0000
  S   S112      1.0  0.8011958738661765  0.6425615182890358  0.5199247318525585  1.0000
  Fe  Fe57      1.0  0.39497573982894835  0.6446708420400956  0.2584066226776019  1.0000
  S   S113      1.0  0.412339985753438  0.6360930557222587  0.32220626086911314  1.0000
  S   S114      1.0  0.3497858914665175  0.6286761148827783  0.24118897484175786  1.0000
  Fe  Fe58      1.0  0.45423939819021447  0.664739282485059  0.22666875650967613  1.0000
  S   S115      1.0  0.4769057663737956  0.6562763651046666  0.287313490810538  1.0000
  S   S116      1.0  0.4768529938371714  0.683678901617275  0.17113462992269915  1.0000
  Fe  Fe59      1.0  0.450341628247115  0.6135689616405804  0.28949974304263665  1.0000
  S   S117      1.0  0.46608960381322745  0.5671391159333962  0.3110119927497004  1.0000
  Fe  Fe60      1.0  0.43696618789288194  0.6797835017756287  0.31410805129500907  1.0000
  S   S118      1.0  0.441062283421181  0.7140449703648568  0.36614602108032857  1.0000
  S   S119      1.0  0.4317772587692322  0.6195746264448299  0.22592437006350963  1.0000
  S   S120      1.0  0.41550689740367897  0.690908002706487  0.2531986703905662  1.0000
  Fe  Fe61      1.0  0.5858082764898627  0.7169360228962263  0.579162292075507  1.0000
  S   S121      1.0  0.545534727792216  0.7273052993327255  0.5409824264430052  1.0000
  S   S122      1.0  0.6153958682959341  0.6710598469168596  0.16916524299496183  1.0000
  Fe  Fe62      1.0  0.6184046680177535  0.7716706880570963  0.5479655494635273  1.0000
  S   S123      1.0  0.58110975439173  0.7869828045999926  0.5074551128107441  1.0000
  S   S124      1.0  0.6574953692499881  0.80194649389213  0.5477946260115596  1.0000
  Fe  Fe63      1.0  0.5525599528751545  0.7758290331392542  0.5610135003048874  1.0000
  S   S125      1.0  0.5151679706899541  0.8087313140046831  0.5744044165852634  1.0000
  Fe  Fe64      1.0  0.5775123314487609  0.7375292511304227  0.4905407883558026  1.0000
  S   S126      1.0  0.5736214142312395  0.7264851217854099  0.42283473699424784  1.0000
  S   S127      1.0  0.5903613474566163  0.7649891985135246  0.6035469676002022  1.0000
  S   S128      1.0  0.6173578999036683  0.7227008764489196  0.5268696864846024  1.0000
  C   C1        1.0  0.47781153131571086  0.7204083068022132  0.3805320935248512  1.0000
  C   C2        1.0  0.4843468645994514  0.7286383832718066  0.4213588893184361  1.0000
  C   C3        1.0  0.5137191077928932  0.7314813568149627  0.43416958888599805  1.0000
  C   C4        1.0  0.5366843298395834  0.7261562715805758  0.4062420443092668  1.0000
  C   C5        1.0  0.5301028875968194  0.7198710355920905  0.3648240689045089  1.0000
  C   C6        1.0  0.5007092253933668  0.7169724695553173  0.35198234982693627  1.0000
  H   H1        1.0  0.46669476409360916  0.731740016286786  0.44341778277534116  1.0000
  H   H2        1.0  0.5184607917266534  0.7372057663204258  0.46582033571731435  1.0000
  H   H3        1.0  0.547678080454877  0.7171508635572513  0.3426523783651676  1.0000
  H   H4        1.0  0.49574136748457825  0.7124841688141963  0.31989745469496017  1.0000
  C   C7        1.0  0.5154139236699397  0.681410228076692  0.17369746345885873  1.0000
  C   C8        1.0  0.5299289194282232  0.6599292458556778  0.19898016848154385  1.0000
  C   C9        1.0  0.5608183729601495  0.6574248939595959  0.19866414595211515  1.0000
  C   C10       1.0  0.577112354891022  0.6762234689204187  0.17286634323602107  1.0000
  C   C11       1.0  0.5626052787101695  0.6981711308550798  0.14840139350654202  1.0000
  C   C12       1.0  0.5318294539539222  0.7007495608710469  0.14883034429921485  1.0000
  H   H5        1.0  0.5173025649146917  0.6446820961916105  0.21773326052054143  1.0000
  H   H6        1.0  0.5720116717040028  0.6403773300314123  0.217356922564875  1.0000
  H   H7        1.0  0.5750772660060305  0.7134649579700522  0.12940537204125713  1.0000
  H   H8        1.0  0.5207445357517373  0.7180216817103827  0.13022627079478336  1.0000
  C   C13       1.0  0.7412051962271715  0.7475589807541496  0.5159826201385145  1.0000
  C   C14       1.0  0.7178220974271312  0.73284909418945  0.5350063282713  1.0000
  C   C15       1.0  0.6922852478555358  0.7496274419758295  0.5460235644524417  1.0000
  C   C16       1.0  0.6902005540523903  0.781146142989586  0.538119290685294  1.0000
  C   C17       1.0  0.7139658820295404  0.7960194492640831  0.5204369493480396  1.0000
  C   C18       1.0  0.7393892256769373  0.779232132158423  0.509303850266455  1.0000
  H   H9        1.0  0.7195331355570017  0.7086792897658257  0.5417088143831289  1.0000
  H   H10       1.0  0.6744090187468791  0.7382224797279325  0.5610283709539162  1.0000
  H   H11       1.0  0.7125168205965352  0.8204084505417919  0.5144530478598717  1.0000
  H   H12       1.0  0.7575225162899613  0.7907251224548582  0.4948683645560907  1.0000
  C   C19       1.0  0.5591279584340816  0.5526054485343921  0.26268706203396425  1.0000
  C   C20       1.0  0.5479815195292652  0.5318342206821591  0.29109343707521446  1.0000
  C   C21       1.0  0.518835542273031  0.5355012837189195  0.3050258920972914  1.0000
  C   C22       1.0  0.5010369268081909  0.5597499165403718  0.2902409502127761  1.0000
  C   C23       1.0  0.5118284821259891  0.579349157419022  0.2602334253702797  1.0000
  C   C24       1.0  0.5408633318771552  0.5758661311941876  0.2466350927637781  1.0000
  H   H13       1.0  0.5621602019944941  0.5139217889494248  0.303724280092058  1.0000
  H   H14       1.0  0.5104351303049846  0.5202231178287645  0.3281656813844065  1.0000
  H   H15       1.0  0.4979163592432657  0.5975535643384665  0.24795405480759228  1.0000
  H   H16       1.0  0.5493256188427269  0.5916097983815622  0.22418888253662209  1.0000
  C   C25       1.0  0.6786625607525684  0.5272330331990825  0.598496369336418  1.0000
  C   C26       1.0  0.678422343089325  0.5520620008349545  0.5712544308404472  1.0000
  C   C27       1.0  0.7029242018103776  0.5711414919200463  0.5690503191527849  1.0000
  C   C28       1.0  0.727317062977742  0.5657291005281708  0.5948190369277684  1.0000
  C   C29       1.0  0.7270524704607999  0.5415333073379184  0.6229368731887817  1.0000
  C   C30       1.0  0.7028866135435292  0.5221849788876683  0.6245459580953616  1.0000
  H   H17       1.0  0.6593888200502583  0.5564295841837328  0.5517724983639523  1.0000
  H   H18       1.0  0.7029194595619911  0.5901114209054855  0.5476836473766699  1.0000
  H   H19       1.0  0.745865451204869  0.5373179871640205  0.6429271097439615  1.0000
  H   H20       1.0  0.7033613027083319  0.5030628011164261  0.6455791127049391  1.0000
  C   C31       1.0  0.7168154377208713  0.5328509436484801  0.32984978527521686  1.0000
  C   C32       1.0  0.6882888062305916  0.5457013821208097  0.32983633039461513  1.0000
  C   C33       1.0  0.6822264146509194  0.5729701677885649  0.3516040119600703  1.0000
  C   C34       1.0  0.7047532569514786  0.5874749896358421  0.3732284472234564  1.0000
  C   C35       1.0  0.7335021303899381  0.5754231682541037  0.37161048892376314  1.0000
  C   C36       1.0  0.7395442447235169  0.5480174074494862  0.3501812462265491  1.0000
  H   H21       1.0  0.6706513084817215  0.5343485266642399  0.3139238540238697  1.0000
  H   H22       1.0  0.6599438799130238  0.5821895051569996  0.3527446934112281  1.0000
  H   H23       1.0  0.7509910963118942  0.5868782584268201  0.3876380616000477  1.0000
  H   H24       1.0  0.7616806872861699  0.5383481397390911  0.35009276731939143  1.0000
  C   C37       1.0  0.8384390084777078  0.6085245021346569  0.2872815829977564  1.0000
  C   C38       1.0  0.8125592520587178  0.6107929917920786  0.3104259123551875  1.0000
  C   C39       1.0  0.8138970019395606  0.6090711135855358  0.3536703101857198  1.0000
  C   C40       1.0  0.8410248581532087  0.6050427315077117  0.373822981320774  1.0000
  C   C41       1.0  0.8668814553847465  0.6029900331847863  0.35060033029872323  1.0000
  C   C42       1.0  0.8656078773403527  0.6049849482551038  0.30745884708255783  1.0000
  H   H25       1.0  0.7914720419260589  0.6135097016857124  0.29502026922655095  1.0000
  H   H26       1.0  0.7939218113758405  0.6105625516061387  0.3713658239676198  1.0000
  H   H27       1.0  0.8879628985340292  0.6003929421522556  0.36592245996889505  1.0000
  H   H28       1.0  0.8857824224183106  0.6042159623672244  0.28995456770889055  1.0000
  C   C43       1.0  0.9761010890087221  0.5449077307795122  0.31599329538884474  1.0000
  C   C44       1.0  0.9608102242810576  0.5189658021255931  0.30351789605926754  1.0000
  C   C45       1.0  0.9601812317426148  0.4930461386018379  0.3287362343032884  1.0000
  C   C46       1.0  0.9758106889642121  0.4925586308029501  0.36596305862330947  1.0000
  C   C47       1.0  0.991566608743118  0.5183757929921431  0.3783945610589814  1.0000
  C   C48       1.0  0.9914812389857478  0.5446939748140303  0.3535674313398052  1.0000
  H   H29       1.0  0.9500369078789037  0.5185607509246024  0.2738742145347394  1.0000
  H   H30       1.0  0.9482799458120769  0.4730146075966974  0.3187827062236722  1.0000
  H   H31       1.0  0.003565990989265133  0.5181882956702323  0.4073362122448253  1.0000
  H   H32       1.0  0.003586577597828766  0.5646554596177411  0.3632242643833782  1.0000
  C   C49       1.0  0.998087583449608  0.45233248946261856  0.16688381945041228  1.0000
  C   C50       1.0  0.9853140681036092  0.4608263642010909  0.20461338321409173  1.0000
  C   C51       1.0  0.9548066827012451  0.4662399865655672  0.206981134104693  1.0000
  C   C52       1.0  0.9369826463346326  0.46237574897663186  0.1720466033686927  1.0000
  C   C53       1.0  0.9495309592205016  0.45219680533683276  0.13501333135279858  1.0000
  C   C54       1.0  0.9800904542413992  0.4477719480095378  0.13225542285547492  1.0000
  H   H33       1.0  0.9989143159236865  0.4642412372896115  0.2316499862213694  1.0000
  H   H34       1.0  0.9450071539193039  0.4738936279062584  0.23565865579493375  1.0000
  H   H35       1.0  0.9358577454847912  0.4491900022484741  0.10789943711026508  1.0000
  H   H36       1.0  0.9896186274697593  0.44153825863654295  0.10296370469397642  1.0000
  C   C55       1.0  0.9962970526288831  0.6862838433750018  0.09243528722087359  1.0000
  C   C56       1.0  0.97321439669846  0.6824807151646053  0.12029420840018713  1.0000
  C   C57       1.0  0.9555407882169129  0.6565392444715445  0.11753536033908948  1.0000
  C   C58       1.0  0.9604711834973457  0.6347760998212991  0.08625011437109742  1.0000
  C   C59       1.0  0.982730098440497  0.6392526278755359  0.057318496361834066  1.0000
  C   C60       1.0  0.0008347267870474351  0.6648375005757416  0.060651150797832454  1.0000
  H   H37       1.0  0.9694711462304647  0.6992935069649661  0.14455539827665104  1.0000
  H   H38       1.0  0.9379740244051735  0.6536162434667163  0.13934292237154294  1.0000
  H   H39       1.0  0.9864137237416964  0.622625998666233  0.032831980145760394  1.0000
  H   H40       1.0  0.018251764470447407  0.6679878995752735  0.03854862213640575  1.0000
  C   C61       1.0  0.2784061160685797  0.6540302414354187  0.3343465083508477  1.0000
  C   C62       1.0  0.3046984638628  0.670254896557796  0.334132941195658  1.0000
  C   C63       1.0  0.32706685763786775  0.662219989881077  0.3060583945560631  1.0000
  C   C64       1.0  0.3227341572308474  0.6385288693797977  0.277484589439001  1.0000
  C   C65       1.0  0.2965003679281832  0.6222403850653403  0.2778507715881318  1.0000
  C   C66       1.0  0.27462881727528626  0.6295390558506119  0.3068356385275729  1.0000
  H   H41       1.0  0.30772862174357823  0.6891843266687118  0.3554282108448232  1.0000
  H   H42       1.0  0.34737409265619973  0.674803555224636  0.30590546810409797  1.0000
  H   H43       1.0  0.29318810786272076  0.60376103629194  0.25592257344611996  1.0000
  H   H44       1.0  0.2546249585591058  0.6165787626794431  0.3072546449777826  1.0000
  C   C67       1.0  0.17602878100105845  0.5011805828107179  0.30648387168478414  1.0000
  C   C68       1.0  0.16052189542633594  0.5013944685726125  0.3437530154112068  1.0000
  C   C69       1.0  0.14045750104725882  0.4782108410031618  0.35209154152054767  1.0000
  C   C70       1.0  0.13611781867539977  0.4546766956584549  0.3232709862022333  1.0000
  C   C71       1.0  0.15223038466903427  0.45396295022261174  0.28654748202357455  1.0000
  C   C72       1.0  0.17218403079286662  0.47718917507811603  0.2781794684191282  1.0000
  H   H45       1.0  0.16415382463192196  0.5192616968064961  0.36636577910375084  1.0000
  H   H46       1.0  0.12831293271515168  0.47865634052601613  0.38075894183857584  1.0000
  H   H47       1.0  0.14913126100090052  0.43564285234283545  0.2643628642189722  1.0000
  H   H48       1.0  0.18431191849914277  0.47685083652391713  0.24949262636835665  1.0000
  C   C73       1.0  0.14763937559219892  0.624745936757254  0.5030197162575103  1.0000
  C   C74       1.0  0.12480246692529204  0.6414513241078205  0.4838350002344913  1.0000
  C   C75       1.0  0.11419408080951321  0.6689450965927081  0.5017423956581056  1.0000
  C   C76       1.0  0.12725994262645648  0.680247749238334  0.5378379264782288  1.0000
  C   C77       1.0  0.15113605903576358  0.6642516947521835  0.5554451176811765  1.0000
  C   C78       1.0  0.1604915077168016  0.6359268219265181  0.5391528063604306  1.0000
  H   H49       1.0  0.11498211275631645  0.6328864820706884  0.4556011432466087  1.0000
  H   H50       1.0  0.09593438020134239  0.6813998176622728  0.4876194301912919  1.0000
  H   H51       1.0  0.16263219606706908  0.6736915893287861  0.581483353896446  1.0000
  H   H52       1.0  0.17844016044379646  0.6232427672327139  0.5537027212797098  1.0000
  C   C79       1.0  0.11987800855794978  0.6505545335055073  0.2466365734753891  1.0000
  C   C80       1.0  0.13726330800752645  0.6264187272126603  0.23077090958799093  1.0000
  C   C81       1.0  0.14753277635546055  0.627528642973551  0.1901255415334249  1.0000
  C   C82       1.0  0.13946944237631073  0.6522298816830409  0.16487505124750765  1.0000
  C   C83       1.0  0.12052959897713104  0.6753981014991536  0.17993254087080413  1.0000
  C   C84       1.0  0.11100951706908434  0.6747390308479697  0.22100130923960012  1.0000
  H   H53       1.0  0.1430624959743325  0.6069839367939619  0.2499655352724669  1.0000
  H   H54       1.0  0.16184903005524337  0.6093348723991958  0.1784147126092925  1.0000
  H   H55       1.0  0.1143329999834945  0.6946004912457034  0.16064541762780923  1.0000
  H   H56       1.0  0.09765404826720799  0.6934960775410487  0.2333012108267787  1.0000
  C   C85       1.0  0.10487312944765333  0.3027736547520394  0.12697710697419765  1.0000
  C   C86       1.0  0.09569521151594902  0.35419854507783444  0.6198802870548101  1.0000
  C   C87       1.0  0.08614428820349081  0.3473867102958579  0.5797552629829965  1.0000
  C   C88       1.0  0.07986956516106525  0.371098338607484  0.5520080671387513  1.0000
  C   C89       1.0  0.10640872868960423  0.35115628298424245  0.09035631547473622  1.0000
  C   C90       1.0  0.11105425654669891  0.33405744629485756  0.12639114495727938  1.0000
  H   H57       1.0  0.10042614761366467  0.33572157301075145  0.641180571065946  1.0000
  H   H58       1.0  0.08338655754372773  0.32374024121967165  0.5704376695368556  1.0000
  H   H59       1.0  0.11088463249238623  0.37539447185386765  0.0903520694364608  1.0000
  H   H60       1.0  0.11931238126767368  0.3450233038823767  0.1539394906480761  1.0000
  C   C91       1.0  0.005607355177062789  0.22866024580293623  0.5703195093677561  1.0000
  C   C92       1.0  0.02954306179809496  0.20825604174725434  0.5751845980749981  1.0000
  C   C93       1.0  0.05008908209555285  0.21275750272268024  0.6070519096001443  1.0000
  C   C94       1.0  0.0469363069515949  0.23782721298642467  0.634061791462385  1.0000
  C   C95       1.0  0.022932248761699636  0.2581454274703871  0.6294106112867033  1.0000
  C   C96       1.0  0.002334300317637261  0.2535884425381131  0.5975936648004667  1.0000
  H   H61       1.0  0.03275264212749596  0.1894223139236787  0.5539195787665002  1.0000
  H   H62       1.0  0.06868417775697622  0.19701147910166109  0.6104223391275436  1.0000
  H   H63       1.0  0.020200925251991686  0.27736197926557893  0.6503180278443003  1.0000
  H   H64       1.0  0.9838544169330508  0.26947874903686236  0.5941092138048766  1.0000
  C   C97       1.0  0.04862070699767007  0.1315165014623279  0.35250054309399614  1.0000
  C   C98       1.0  0.07278054775960019  0.13706046271469502  0.3270118908324856  1.0000
  C   C99       1.0  0.06842404661272772  0.1434165635514176  0.2848671558552502  1.0000
  C   C100      1.0  0.039943137746572877  0.14373882352969763  0.26802328075953125  1.0000
  C   C101      1.0  0.015957115887333728  0.1374365375124413  0.2933680171847506  1.0000
  C   C102      1.0  0.020231976253610062  0.13165541237374884  0.3355683434029691  1.0000
  H   H65       1.0  0.09479983258012847  0.13705868893267764  0.339978172985964  1.0000
  H   H66       1.0  0.08709904212406805  0.1479794833399984  0.2655077603670515  1.0000
  H   H67       1.0  0.9939053975473218  0.1374882791399715  0.2805140185349441  1.0000
  H   H68       1.0  0.0014740912386392857  0.1271758846400417  0.3549233585895578  1.0000
  C   C103      1.0  0.18280585212844458  0.109114445660343  0.31271808296276005  1.0000
  C   C104      1.0  0.19510695211031723  0.0911506019466557  0.2809646827902955  1.0000
  C   C105      1.0  0.19350719358671983  0.10119093389712841  0.2400007669118411  1.0000
  C   C106      1.0  0.17899661349715848  0.12889601922822633  0.23049255487599735  1.0000
  C   C107      1.0  0.16660898179506478  0.14684765468123193  0.2621838173377712  1.0000
  C   C108      1.0  0.16859200417151224  0.13701794713892815  0.30331538031064653  1.0000
  H   H69       1.0  0.20577717962788247  0.06941632075657633  0.28778154366055153  1.0000
  H   H70       1.0  0.20313787712170797  0.08720935037185784  0.21562047065961118  1.0000
  H   H71       1.0  0.15598043691230928  0.16856969108652495  0.2552101346552575  1.0000
  H   H72       1.0  0.15904529509640272  0.15099441310819786  0.3277611097270491  1.0000
  C   C109      1.0  0.1139808802029921  0.8775157882182896  0.7363824704506037  1.0000
  C   C110      1.0  0.13942338441822288  0.8894985854059068  0.719122353243324  1.0000
  C   C111      1.0  0.12683279567825645  0.8403445646401835  0.993383172373955  1.0000
  C   C112      1.0  0.11331526948083319  0.8117675246828826  0.9950285664599646  1.0000
  C   C113      1.0  0.13410825545620395  0.8259614135952508  0.7263804722058704  1.0000
  C   C114      1.0  0.11164609847625609  0.845751974835339  0.7410781424055056  1.0000
  H   H73       1.0  0.12025389614682691  0.8895106147741172  0.9912266078048003  1.0000
  H   H74       1.0  0.1506124302411942  0.8414819070513042  0.9927564540347471  1.0000
  H   H75       1.0  0.13193301940350377  0.8014566092313378  0.7290859297714772  1.0000
  H   H76       1.0  0.09197989954775533  0.8364653699835107  0.7544564297288823  1.0000
  C   C115      1.0  0.020521979056495443  0.996359113291901  0.5622665802444067  1.0000
  C   C116      1.0  0.02106009893364358  0.016130573189713893  0.5284246560945323  1.0000
  C   C117      1.0  0.003633532395402428  0.043081211407961506  0.5286281397115564  1.0000
  C   C118      1.0  0.9852975013735905  0.0497249543374807  0.5622653628017171  1.0000
  C   C119      1.0  0.9848157198948592  0.02993654539420243  0.5960013949551354  1.0000
  C   C120      1.0  0.002691912341835634  0.003419410049693372  0.596204669506278  1.0000
  H   H77       1.0  0.03514177870107926  0.010746256521927844  0.5024206981765151  1.0000
  H   H78       1.0  0.004165972989972344  0.058481407849701794  0.5026510569480027  1.0000
  H   H79       1.0  0.9707055451291098  0.03513753120630647  0.6220730640186598  1.0000
  H   H80       1.0  0.002371832653415673  0.9881691723216693  0.6224206257629112  1.0000
  C   C121      1.0  0.16628272842198605  0.9627376137070729  0.480231888987113  1.0000
  C   C122      1.0  0.1416863138978421  0.9601436271098518  0.5056683807138332  1.0000
  C   C123      1.0  0.14466890132522658  0.9629459833468185  0.5485961199788427  1.0000
  C   C124      1.0  0.1723823284750609  0.9675118026346265  0.5664156455476769  1.0000
  C   C125      1.0  0.19708284109627397  0.9697817614254632  0.541011276616522  1.0000
  C   C126      1.0  0.19399460403432353  0.9676911724016832  0.4978869945426319  1.0000
  H   H81       1.0  0.12018142888871829  0.956424405064761  0.4921663440205995  1.0000
  H   H82       1.0  0.12539826983402064  0.9614531993048857  0.5677437224677703  1.0000
  H   H83       1.0  0.21858228964011558  0.9733103774923153  0.5545770860705536  1.0000
  H   H84       1.0  0.21315273829932033  0.9694069284229293  0.47837462333737196  1.0000
  C   C127      1.0  0.14046966278499476  0.9677316815977809  0.18546686622586597  1.0000
  C   C128      1.0  0.14518294233722767  0.9621020959928022  0.2275032206396386  1.0000
  C   C129      1.0  0.17285899039825528  0.966978004868549  0.24540585090980802  1.0000
  C   C130      1.0  0.19604252451204737  0.9773036785809264  0.22128755271987385  1.0000
  C   C131      1.0  0.1914823740596082  0.9825078231968872  0.1790141794796608  1.0000
  C   C132      1.0  0.16362308450075277  0.9779185038079794  0.16111658565082387  1.0000
  H   H85       1.0  0.12740801264025395  0.9539019248505246  0.24633513416837455  1.0000
  H   H86       1.0  0.17642158867763355  0.9620527742070177  0.27774155457494304  1.0000
  H   H87       1.0  0.20940009086398845  0.9904009342427891  0.16020410927018208  1.0000
  H   H88       1.0  0.1601323027058227  0.9821656931324113  0.12854279158837995  1.0000
  C   C133      1.0  0.33316300721201175  0.003041388073817819  0.3949164787476157  1.0000
  C   C134      1.0  0.3586042318743935  0.9884132768839827  0.4104227092387054  1.0000
  C   C135      1.0  0.38430879875976565  0.9867085086551374  0.38663862364582785  1.0000
  C   C136      1.0  0.3848145311001046  0.00028436473859771993  0.34769438869587194  1.0000
  C   C137      1.0  0.35951803265811044  0.015380451715755417  0.3324579283944992  1.0000
  C   C138      1.0  0.3336515994109061  0.016612895178356624  0.35593512030931923  1.0000
  H   H89       1.0  0.3582915710757834  0.9779837350236525  0.4406694004551215  1.0000
  H   H90       1.0  0.4036294014234639  0.9746632971638065  0.39834149444843153  1.0000
  H   H91       1.0  0.360071762800799  0.026506538263581188  0.3027134544186942  1.0000
  H   H92       1.0  0.3143117006436291  0.02861574742331996  0.3442877819050469  1.0000
  C   C139      1.0  0.6177725196586149  0.8556548046632646  0.9927245109605753  1.0000
  C   C140      1.0  0.6276363092232793  0.8276523088764015  0.9759576617134508  1.0000
  C   C141      1.0  0.6135081549326672  0.8004651230444939  0.9859238882867105  1.0000
  C   C142      1.0  0.52029107203196  0.8278876052983334  0.6214676031842996  1.0000
  C   C143      1.0  0.5082161133337364  0.8573640948420159  0.6271410586730666  1.0000
  C   C144      1.0  0.5131655651749758  0.8732882212750113  0.6641792441591978  1.0000
  H   H93       1.0  0.6467245185056786  0.8268300849680004  0.9560712852554507  1.0000
  H   H94       1.0  0.6214630892860341  0.7788808945010386  0.9732441148860271  1.0000
  H   H95       1.0  0.4953226564944818  0.8680925705311214  0.6027807154753089  1.0000
  H   H96       1.0  0.5035284896723573  0.8958833290148984  0.668542312702582  1.0000
  C   C145      1.0  0.534456314419722  0.9420058828259131  0.49602643106406497  1.0000
  C   C146      1.0  0.526538770572504  0.9333319156612058  0.5359640607951724  1.0000
  C   C147      1.0  0.5410813027670622  0.9458069677400268  0.5703873895909363  1.0000
  C   C148      1.0  0.5638045097615  0.966583212674006  0.5648334230054776  1.0000
  C   C149      1.0  0.5730963699392022  0.9733598467872807  0.5248399229050399  1.0000
  C   C150      1.0  0.5582567861784863  0.9613568028573568  0.4905211529300874  1.0000
  H   H97       1.0  0.5082420490844926  0.9182090502455429  0.5404002572546681  1.0000
  H   H98       1.0  0.5342218649354655  0.939795886624917  0.6010451957925059  1.0000
  H   H99       1.0  0.5910935554140696  0.988864715609481  0.520336145931504  1.0000
  H   H100      1.0  0.565104381400173  0.967278278803316  0.45972806484175965  1.0000
  C   C151      1.0  0.5578680282644771  0.9755891440453978  0.18339585025150879  1.0000
  C   C152      1.0  0.5331293397767963  0.9771012693214696  0.2089669549815464  1.0000
  C   C153      1.0  0.534086152219777  0.9932488032379484  0.24650718889766113  1.0000
  C   C154      1.0  0.5598002815512515  0.007955996523858921  0.25861853936388834  1.0000
  C   C155      1.0  0.5843803784246845  0.007093564212854453  0.23264960533520795  1.0000
  C   C156      1.0  0.5835279298709306  0.9906459646135184  0.19524957194808698  1.0000
  H   H101      1.0  0.5131793682306256  0.9656610400269761  0.19978109699255917  1.0000
  H   H102      1.0  0.5148011404909234  0.9944255745804211  0.26587245982261354  1.0000
  H   H103      1.0  0.6042195887691549  0.018721213997088704  0.24169876280870758  1.0000
  H   H104      1.0  0.6028468854196727  0.9892099616080614  0.17601886261995073  1.0000
  C   C157      1.0  0.8537384940649179  0.052314549430187984  0.41693191858431816  1.0000
  C   C158      1.0  0.8711713651201412  0.06567903116448659  0.4476709265130287  1.0000
  C   C159      1.0  0.8885653927181484  0.09097436198841224  0.4385600377340759  1.0000
  C   C160      1.0  0.8883596491267743  0.10315938402904123  0.39868578913640607  1.0000
  C   C161      1.0  0.8712333634902052  0.08953057741969261  0.3678202976224946  1.0000
  C   C162      1.0  0.8537457855241859  0.06431922306715254  0.37697798543970396  1.0000
  H   H105      1.0  0.8705642924047976  0.057021004542525455  0.47879489187257274  1.0000
  H   H106      1.0  0.9015094464309623  0.10153295651191586  0.4626614058231895  1.0000
  H   H107      1.0  0.8717732649597426  0.0982115364164744  0.33666422784735434  1.0000
  H   H108      1.0  0.8406255093875044  0.05388150620272336  0.3529281401324927  1.0000
  C   C163      1.0  0.7227371766638065  0.9550103898212962  0.24809038274171122  1.0000
  C   C164      1.0  0.701366409027175  0.939276639186227  0.2253723034175517  1.0000
  C   C165      1.0  0.6946899567735312  0.9480236211250281  0.18460008336838096  1.0000
  C   C166      1.0  0.7100108375912989  0.9719192276633287  0.16633255920665702  1.0000
  C   C167      1.0  0.7316050592321323  0.9872287082945247  0.18889177483096972  1.0000
  C   C168      1.0  0.737701566648266  0.9790456586451206  0.22980331967151887  1.0000
  H   H109      1.0  0.6897318655761593  0.920689292336981  0.23948194951595814  1.0000
  H   H110      1.0  0.678022118392997  0.9361124350519371  0.16723112256294553  1.0000
  H   H111      1.0  0.7435833948915672  0.005637551894177806  0.1748572499431129  1.0000
  H   H112      1.0  0.7542945787259449  0.9912182463406299  0.24700329995409528  1.0000
  C   C169      1.0  0.6127116347471857  0.3261359321324682  0.5660183137022295  1.0000
  C   C170      1.0  0.6282834544428514  0.3156812106357948  0.21177423662459724  1.0000
  C   C171      1.0  0.6224769445016011  0.33676922783126634  0.24383853913054587  1.0000
  C   C172      1.0  0.623644091099663  0.36837201719160717  0.23652759103052587  1.0000
  C   C173      1.0  0.6293456051583839  0.36789075484682005  0.6101268327081425  1.0000
  C   C174      1.0  0.6170880509488007  0.3575369536183104  0.5727609398262954  1.0000
  H   H113      1.0  0.6277662129437631  0.29131766163239636  0.21764391607629321  1.0000
  H   H114      1.0  0.6175341470964076  0.3285963204144218  0.2742955945784859  1.0000
  H   H115      1.0  0.6326709465505685  0.3921413717601092  0.6151310683764655  1.0000
  H   H116      1.0  0.6109414756499629  0.3739108732602883  0.5491222342032424  1.0000
  C   C175      1.0  0.5166394149735548  0.17067934829386586  0.4205956484054946  1.0000
  C   C176      1.0  0.5085896433697313  0.14827675553739905  0.3917779281831706  1.0000
  C   C177      1.0  0.4979191389639708  0.12008572458462012  0.40528958002221915  1.0000
  C   C178      1.0  0.49441609166537664  0.1146556981304863  0.44751192291727404  1.0000
  C   C179      1.0  0.5010693876482609  0.137727721699724  0.47610222663903334  1.0000
  C   C180      1.0  0.5127704547558712  0.16540405577443915  0.46274342520943396  1.0000
  H   H117      1.0  0.5114735080362957  0.1523380902776157  0.3591373819403851  1.0000
  H   H118      1.0  0.4924979046078813  0.10269884097155481  0.3829511578147638  1.0000
  H   H119      1.0  0.4979601812614877  0.13403001262301936  0.5087207633413112  1.0000
  H   H120      1.0  0.5187458893203817  0.18272803680345073  0.4851408882796997  1.0000
  C   C181      1.0  0.7061166241095164  0.16121302446200358  0.2697657016170053  1.0000
  C   C182      1.0  0.7255525991180463  0.16047454110460155  0.23634531523765256  1.0000
  C   C183      1.0  0.7474619487743456  0.1373881018573194  0.23372000463990728  1.0000
  C   C184      1.0  0.7493143587522231  0.11462494219208812  0.26389473220822385  1.0000
  C   C185      1.0  0.7294538328611554  0.11504946508632684  0.2966973811640149  1.0000
  C   C186      1.0  0.7082099396135528  0.13861716538116253  0.3000892737210456  1.0000
  H   H121      1.0  0.7239313920624827  0.17788416861733425  0.21274266189702912  1.0000
  H   H122      1.0  0.7627608838280192  0.1370196626738841  0.20819635918480717  1.0000
  H   H123      1.0  0.7306808880212291  0.09736456946668315  0.31972095143198415  1.0000
  H   H124      1.0  0.6931803076894705  0.1389724770730272  0.32579941462026146  1.0000
  C   C187      1.0  0.6786673544012515  0.1543182478384163  0.44425619814501155  1.0000
  C   C188      1.0  0.7004930501406254  0.14294272481686143  0.4177150304879436  1.0000
  C   C189      1.0  0.7035320103290487  0.11131947581856501  0.4106299223039759  1.0000
  C   C190      1.0  0.6848112198280031  0.09099062385138645  0.43009516046574214  1.0000
  C   C191      1.0  0.6631127745343509  0.10230551399703769  0.4570120773177571  1.0000
  C   C192      1.0  0.6600815923072028  0.13398091034729592  0.4641156995200263  1.0000
  H   H125      1.0  0.7146152677668041  0.1586712170134381  0.4019499025951586  1.0000
  H   H126      1.0  0.7200068100888708  0.10275082345651487  0.38956143647321234  1.0000
  H   H127      1.0  0.6486560171234509  0.08657933831048781  0.4722486030758625  1.0000
  H   H128      1.0  0.6436325669748606  0.1425294660870684  0.4853031190129251  1.0000
  Fe  Fe65      1.0  0.6205068918962938  0.18842336361107273  0.1444508260627435  1.0000
  S   S129      1.0  0.6413708795478382  0.218450216511651  0.09744819324326959  1.0000
  S   S130      1.0  0.5792446565855603  0.16190447985283726  0.13352231917704027  1.0000
  Fe  Fe66      1.0  0.6668885843278715  0.2018516245164554  0.2078332354323218  1.0000
  S   S131      1.0  0.6928300048549284  0.2322055716480862  0.16644062791325176  1.0000
  S   S132      1.0  0.5755775806291257  0.16656309796339822  0.5929994212155544  1.0000
  Fe  Fe67      1.0  0.6483621703686246  0.25155821734485107  0.14911864597897506  1.0000
  S   S133      1.0  0.6410119347842267  0.30067424918195634  0.13114994179904493  1.0000
  Fe  Fe68      1.0  0.6837476919596683  0.1964332248094839  0.11819022407132374  1.0000
  S   S134      1.0  0.7155555011405478  0.1811620755648496  0.0689850648462551  1.0000
  S   S135      1.0  0.6229260667231239  0.22401471053364558  0.19453437879075608  1.0000
  S   S136      1.0  0.6623972954769661  0.16379767412248414  0.16137720924663523  1.0000
  Fe  Fe69      1.0  0.652008825798633  0.19496757755237498  0.7845395084261243  1.0000
  S   S137      1.0  0.640041450606016  0.14662260772725766  0.7981568862715788  1.0000
  S   S138      1.0  0.6223616500061143  0.23003558315724637  0.7546256825709786  1.0000
  Fe  Fe70      1.0  0.7137681916770584  0.18660827206276598  0.8183096204255405  1.0000
  S   S139      1.0  0.7075278425815338  0.13707108664476042  0.8349212351141612  1.0000
  S   S140      1.0  0.7537290923929498  0.2156430379922396  0.8244466899752704  1.0000
  Fe  Fe71      1.0  0.6846382494991416  0.13437089116408862  0.7734645227779413  1.0000
  S   S141      1.0  0.685993517417056  0.09668198255286153  0.7265022429301887  1.0000
  Fe  Fe72      1.0  0.6634832075018601  0.15409927134059595  0.8578721999840533  1.0000
  S   S142      1.0  0.6398202002196658  0.14062728374151257  0.915002937205297  1.0000
  S   S143      1.0  0.6947390487602507  0.18213951356285896  0.7546788995240155  1.0000
  S   S144      1.0  0.6716216183277048  0.20383449329168474  0.8466423191430569  1.0000
  Fe  Fe73      1.0  0.5601783296826168  0.9778553013565446  0.6693185890752534  1.0000
  S   S145      1.0  0.5160196987355627  0.95758202610628  0.6805179340744  1.0000
  S   S146      1.0  0.6122048647558728  0.04094506710466206  0.99102969087707  1.0000
  Fe  Fe74      1.0  0.5736992447852395  0.9845982586591112  0.760696198015776  1.0000
  S   S147      1.0  0.531056402753381  0.9647725178258563  0.7801763414333619  1.0000
  S   S148      1.0  0.6068086835312108  0.9979015440275183  0.8084693424812838  1.0000
  Fe  Fe75      1.0  0.539565089444059  0.9303986028571786  0.7297608010209573  1.0000
  S   S149      1.0  0.5376092636329878  0.8798334835412635  0.7412620621923068  1.0000
  Fe  Fe76      1.0  0.5116740895307313  0.993812945685038  0.729558010753714  1.0000
  S   S150      1.0  0.47018110112187506  0.021048660529725094  0.7402449931024045  1.0000
  S   S151      1.0  0.6585776152380288  0.9681850250511227  0.018672350526241388  1.0000
  S   S152      1.0  0.5537579318556879  0.01691090508555204  0.714248666491015  1.0000
  Fe  Fe77      1.0  0.49144242568658597  0.19722753260573425  0.9538435440481552  1.0000
  S   S153      1.0  0.45603316470559296  0.17613114029909926  0.9916177736050645  1.0000
  S   S154      1.0  0.5261350991962411  0.2281391248911203  0.9778122825348368  1.0000
  Fe  Fe78      1.0  0.4797021514342089  0.15806875031565926  0.8784519288211198  1.0000
  S   S155      1.0  0.4433950273819501  0.13298030856434773  0.9092734384158514  1.0000
  S   S156      1.0  0.4983410929785901  0.15092058089104388  0.8149841055359721  1.0000
  Fe  Fe79      1.0  0.42949150557853005  0.17942351299129866  0.9330393639664183  1.0000
  S   S157      1.0  0.38319736056023584  0.19793876576106206  0.9287653145103102  1.0000
  Fe  Fe80      1.0  0.47316483625756794  0.1318037708629083  0.9646563693449576  1.0000
  S   S158      1.0  0.4804571774357973  0.08858592318396408  0.0008437954232518585  1.0000
  S   S159      1.0  0.4635804593197567  0.20481919714365426  0.8977051488827951  1.0000
  S   S160      1.0  0.5106395965480742  0.15265937237278937  0.931424412158881  1.0000
  Fe  Fe81      1.0  0.10008822302238887  0.9722844166864414  0.09685173313865092  1.0000
  S   S161      1.0  0.12257575083465587  0.9450550617407223  0.04681354718253239  1.0000
  S   S162      1.0  0.07586324397630519  0.05222312597576617  0.7294096285922836  1.0000
  Fe  Fe82      1.0  0.06295037145420079  0.009695487882424025  0.03646272645873605  1.0000
  S   S163      1.0  0.08185592568523728  0.9857943802653557  0.9807290355940362  1.0000
  S   S164      1.0  0.02574363692532211  0.0443959484969314  0.035209042638389976  1.0000
  Fe  Fe83      1.0  0.07788604104425922  0.9426222229555018  0.017439722631917842  1.0000
  S   S165      1.0  0.05697761506479759  0.8998122503313322  0.9927567925049988  1.0000
  Fe  Fe84      1.0  0.12481436920827042  0.9904226686779258  0.01461993530964989  1.0000
  S   S166      1.0  0.16641648694626518  0.0034726058009237892  0.9829691732705399  1.0000
  S   S167      1.0  0.05503153882309797  0.9661679432384612  0.07027934211699471  1.0000
  S   S168      1.0  0.10631795646766948  0.01815528120501697  0.0675888124411479  1.0000
  Fe  Fe85      1.0  0.2547406950862902  0.1306240469380946  0.8264878784014004  1.0000
  S   S169      1.0  0.2322191258737059  0.16318220135512665  0.8710679605851567  1.0000
  S   S170      1.0  0.29708369267926593  0.10589684150836498  0.8415477677024173  1.0000
  Fe  Fe86      1.0  0.20835513377307274  0.13878467946152684  0.7605363373947092  1.0000
  S   S171      1.0  0.18219380688175885  0.17193712023749175  0.7987374493207203  1.0000
  S   S172      1.0  0.19025514212957603  0.12664547436302542  0.6984852091809529  1.0000
  Fe  Fe87      1.0  0.22544302880091366  0.19221183840686987  0.8147303546344976  1.0000
  S   S173      1.0  0.2276413497698906  0.24318244719864845  0.8092748960804387  1.0000
  Fe  Fe88      1.0  0.1912352740652873  0.13954761224358547  0.8505324658372064  1.0000
  S   S174      1.0  0.1520213037675804  0.1287987222614131  0.8890614035237533  1.0000
  S   S175      1.0  0.25124915736510284  0.1616965637040919  0.7716626347597518  1.0000
  S   S176      1.0  0.2141999509765456  0.10430893162790733  0.8108656734606791  1.0000
  Fe  Fe89      1.0  0.907864152572829  0.16629727155311877  0.8879129969569465  1.0000
  S   S177      1.0  0.9282949283767875  0.145973635030888  0.8305693141500334  1.0000
  S   S178      1.0  0.8636693113241823  0.15085480074043778  0.9100388402840487  1.0000
  Fe  Fe90      1.0  0.9593739941265179  0.20745143384010836  0.9053473164128307  1.0000
  S   S179      1.0  0.9832510456920975  0.1919870735423628  0.8486456187433458  1.0000
  S   S180      1.0  0.9812355647696966  0.24010446869424207  0.9490021443457685  1.0000
  Fe  Fe91      1.0  0.9394118995176541  0.19470211755148376  0.8172503975148365  1.0000
  S   S181      1.0  0.937597385420217  0.21185619245410134  0.7522164130365786  1.0000
  Fe  Fe92      1.0  0.9702658066759411  0.14488518520692484  0.8673533041288566  1.0000
  S   S182      1.0  0.007368030002803394  0.10994970520366598  0.8636898126850793  1.0000
  S   S183      1.0  0.9164755221181815  0.21543432145105873  0.872340860202943  1.0000
  S   S184      1.0  0.9488683131595094  0.16018445812282334  0.9264962062932277  1.0000
  Fe  Fe93      1.0  0.08359106259865463  0.31311954176218637  0.7933131287515203  1.0000
  S   S185      1.0  0.06451955083611292  0.3600111038863771  0.7808719255452976  1.0000
  S   S186      1.0  0.10212952266065876  0.29661529987213564  0.8535121945052957  1.0000
  Fe  Fe94      1.0  0.06744337514436416  0.2873605504824095  0.709285851406594  1.0000
  S   S187      1.0  0.04621289737517986  0.33156386684608713  0.6886578649610219  1.0000
  S   S188      1.0  0.0908175879565698  0.17176263095730543  0.029379996586686774  1.0000
  Fe  Fe95      1.0  0.0850983110871122  0.3538753936809938  0.7184527369392736  1.0000
  S   S189      1.0  0.10529302653148352  0.3928579868218648  0.6848431908588557  1.0000
  Fe  Fe96      1.0  0.02748596817803861  0.33429398659214465  0.7522173522168821  1.0000
  S   S190      1.0  0.9806177817198476  0.3469607731251054  0.7646167396561526  1.0000
  S   S191      1.0  0.13513545535032986  0.2076340421235369  0.1199654407177344  1.0000
  S   S192      1.0  0.04461574668404711  0.28766649329357896  0.77024486628949  1.0000
  Fe  Fe97      1.0  0.22558371449691147  0.5344656640618936  0.7479539314059593  1.0000
  S   S193      1.0  0.251914587873465  0.5715294180080851  0.7774527225234152  1.0000
  S   S194      1.0  0.22272072757782274  0.533661469030173  0.6789579738101477  1.0000
  Fe  Fe98      1.0  0.21023038120028956  0.5064019654425669  0.8289127421126118  1.0000
  S   S195      1.0  0.23522075470845977  0.5406990808679397  0.8664339605512678  1.0000
  S   S196      1.0  0.18701484002820024  0.4670051720441534  0.8576092223414148  1.0000
  Fe  Fe99      1.0  0.2151262094739427  0.5751208101320697  0.8230178726165608  1.0000
  S   S197      1.0  0.20344620564677704  0.622875071510858  0.8447759990911026  1.0000
  Fe  Fe100     1.0  0.27019693995612  0.5345247518248856  0.8182088993484269  1.0000
  S   S198      1.0  0.3180099041483007  0.5311809845448977  0.8371913507436796  1.0000
  S   S199      1.0  0.18668032777047955  0.5414963186130285  0.7894890484661727  1.0000
  S   S200      1.0  0.24707584776878902  0.49675079194501964  0.7845763647862298  1.0000
  Fe  Fe101     1.0  0.17009216841871336  0.7655898130720287  0.6765584971543716  1.0000
  S   S201      1.0  0.06850943173308188  0.7192143316986187  0.9975099061717719  1.0000
  S   S202      1.0  0.18507156382036322  0.8140345575698247  0.6830500034457059  1.0000
  Fe  Fe102     1.0  0.19444882989800763  0.7015172470610502  0.6626026073913956  1.0000
  S   S203      1.0  0.1498084977355915  0.6808278525164313  0.6611625495232891  1.0000
  S   S204      1.0  0.23493585040213488  0.6745119822487929  0.6447352878167883  1.0000
  Fe  Fe103     1.0  0.13755808416418694  0.7209157634590028  0.6214591642533489  1.0000
  S   S205      1.0  0.08488353054186601  0.6381964258925263  0.9434153728709302  1.0000
  Fe  Fe104     1.0  0.1396826426126243  0.7121987098034321  0.7142426326845903  1.0000
  S   S206      1.0  0.11182268511502746  0.6957853103265009  0.7663179350128801  1.0000
  S   S207      1.0  0.1828505926991619  0.7395877716737292  0.6193538689100099  1.0000
  S   S208      1.0  0.1859322573919465  0.7290667415436143  0.7203239240515492  1.0000
  Fe  Fe105     1.0  0.985638809326995  0.554456930994588  0.775583227577889  1.0000
  S   S209      1.0  0.02717325740180021  0.5298501971495657  0.7954095693446526  1.0000
  S   S210      1.0  0.9625804421112838  0.5869767425817839  0.8196974482968596  1.0000
  Fe  Fe106     1.0  0.9883992785301084  0.5287697946510899  0.6888193951212288  1.0000
  S   S211      1.0  0.029759496616220016  0.501609746888402  0.7014689173701231  1.0000
  S   S212      1.0  0.9702725912344592  0.5260194933229498  0.6244131952729466  1.0000
  Fe  Fe107     1.0  0.008685406445990917  0.48995291012809694  0.7610836374653848  1.0000
  S   S213      1.0  0.01707020940431936  0.44311442516016153  0.7868104779629396  1.0000
  Fe  Fe108     1.0  0.044612853660366714  0.5437815044333829  0.734182071417675  1.0000
  S   S214      1.0  0.09146828548292385  0.5567535010442342  0.7248142217366497  1.0000
  S   S215      1.0  0.9653513906828144  0.5130629412539282  0.7458473544455524  1.0000
  S   S216      1.0  0.0049399621847272535  0.5723162806039124  0.7168436155274729  1.0000
  Fe  Fe109     1.0  0.07344612218470714  0.4053888894057613  0.026724373368585574  1.0000
  S   S217      1.0  0.09367619066619988  0.4390035120853125  0.07103450333019978  1.0000
  S   S218      1.0  0.09025895012145597  0.3582763131904804  0.00939301608130072  1.0000
  Fe  Fe110     1.0  0.020207567592163356  0.4461569984118496  0.009802579134886802  1.0000
  S   S219      1.0  0.0350700577803158  0.4832430110810395  0.05256482017162867  1.0000
  S   S220      1.0  0.9791865071096559  0.4544713971915642  0.9728578208091209  1.0000
  Fe  Fe111     1.0  0.07937532469775664  0.47449025810816614  0.024604672762641  1.0000
  S   S221      1.0  0.10470005646948344  0.5144253015319938  0.0013826075414538064  1.0000
  Fe  Fe112     1.0  0.04748996487336199  0.4446303416934905  0.09499521895457153  1.0000
  S   S222      1.0  0.08186096764407047  0.512453088363381  0.5113130772361971  1.0000
  S   S223      1.0  0.06351340552297202  0.44041350413186564  0.9780715559901745  1.0000
  S   S224      1.0  0.02846571818965926  0.4079839250968173  0.05447815703256631  1.0000
  Fe  Fe113     1.0  0.6309770044645817  0.46487071569670646  0.7434275401514098  1.0000
  S   S225      1.0  0.6653586886317695  0.4290156261587642  0.7581888192198843  1.0000
  S   S226      1.0  0.6019998621504399  0.48271237142945894  0.7947166325159976  1.0000
  Fe  Fe114     1.0  0.6537924401384406  0.47313772446276103  0.6564896501533313  1.0000
  S   S227      1.0  0.6902276955779124  0.4379277558178163  0.6638852170834743  1.0000
  S   S228      1.0  0.6661413554623193  0.481554898150852  0.11688491448559746  1.0000
  Fe  Fe115     1.0  0.6555343168384199  0.4104476578715417  0.6949358397327626  1.0000
  S   S229      1.0  0.6527094046264476  0.3591664013266361  0.6878471946682904  1.0000
  Fe  Fe116     1.0  0.6965963077428854  0.4598000952798689  0.7261377272666345  1.0000
  S   S230      1.0  0.7405653645681481  0.4690779382556233  0.7554919833582479  1.0000
  S   S231      1.0  0.6121578839216508  0.4700552771617367  0.2076417819597416  1.0000
  S   S232      1.0  0.6629191792223171  0.49726379523808034  0.7163057711238243  1.0000
  Fe  Fe117     1.0  0.8260968205236296  0.556879306540091  0.9457933012741818  1.0000
  S   S233      1.0  0.8028192851905304  0.5933279774453796  0.908856063743229  1.0000
  S   S234      1.0  0.8613514130301485  0.5253097836399188  0.9206280771059219  1.0000
  Fe  Fe118     1.0  0.7878578315434099  0.5671943511642779  0.020524201360809124  1.0000
  S   S235      1.0  0.7604360974671219  0.6039068294493211  0.9902250033062441  1.0000
  S   S236      1.0  0.7820479309062134  0.555507221500164  0.0871437789956846  1.0000
  Fe  Fe119     1.0  0.7617461146849208  0.5734753375349743  0.9344301523482602  1.0000
  S   S237      1.0  0.7227894810464006  0.5719113507402583  0.891613279426986  1.0000
  Fe  Fe120     1.0  0.8035227911394667  0.6208886566664801  0.9674941877183002  1.0000
  S   S238      1.0  0.8133278847198683  0.6711204203989759  0.9664892169233397  1.0000
  S   S239      1.0  0.7848618727852753  0.5345334370050008  0.9670326281779265  1.0000
  S   S240      1.0  0.8311536399268917  0.5864785363683582  0.002112023239182248  1.0000
  Fe  Fe121     1.0  0.43956918337397566  0.6402845973091394  0.8245868422019236  1.0000
  S   S241      1.0  0.4563217917009036  0.5927439514130787  0.8386704545068034  1.0000
  S   S242      1.0  0.39135534246446135  0.6517935239647192  0.8185189587127623  1.0000
  Fe  Fe122     1.0  0.5007272379988766  0.6639749490951313  0.8094789310342538  1.0000
  S   S243      1.0  0.5228349503432382  0.6186111195606182  0.8219169840917784  1.0000
  S   S244      1.0  0.5281602572704742  0.7036240426992784  0.7911605104385578  1.0000
  Fe  Fe123     1.0  0.48590162779553286  0.5993012086510688  0.784572307634807  1.0000
  S   S245      1.0  0.49362623950954937  0.5636120077052611  0.7354922774572276  1.0000
  Fe  Fe124     1.0  0.4913652712917393  0.616734586696888  0.8748362599601683  1.0000
  S   S246      1.0  0.5058893723475546  0.5993968006974606  0.9368437725565057  1.0000
  S   S247      1.0  0.4663892890023635  0.6449450801814414  0.7672471701435547  1.0000
  S   S248      1.0  0.47206845262474484  0.6640306243044687  0.8656917205784893  1.0000
  Fe  Fe125     1.0  0.6286174777322053  0.6896552893581581  0.10776497894170478  1.0000
  S   S249      1.0  0.597589594550634  0.6831098566950864  0.05462203238106489  1.0000
  S   S250      1.0  0.5856848187967251  0.6745894790356725  0.6182333023410562  1.0000
  Fe  Fe126     1.0  0.6727542006027968  0.7230259402308589  0.056075554121416626  1.0000
  S   S251      1.0  0.6455392402004073  0.719459149775286  0.9982915094710175  1.0000
  S   S252      1.0  0.7140762007961933  0.7503180624226067  0.053900477250186984  1.0000
  Fe  Fe127     1.0  0.6076477144469657  0.7318435977501709  0.039608106611647376  1.0000
  S   S253      1.0  0.5722843220243958  0.7669419909881151  0.02568964631338222  1.0000
  Fe  Fe128     1.0  0.6381627446475524  0.6712165597846139  0.01876682509755212  1.0000
  S   S254      1.0  0.6380003431294803  0.6306871350217207  0.9757044716634223  1.0000
  S   S255      1.0  0.6353853502360254  0.7395133075596467  0.09587149741492418  1.0000
  S   S256      1.0  0.6688091357595964  0.673422535628705  0.07318736208078169  1.0000
  C   C193      1.0  0.5426357912164052  0.6081531154544065  0.9470477208316025  1.0000
  C   C194      1.0  0.5580169357481289  0.5922685963849048  0.9780639763610348  1.0000
  C   C195      1.0  0.5874439537309928  0.5990828935952703  0.9866155722095593  1.0000
  C   C196      1.0  0.6013144172991717  0.6222198162243233  0.9647704203990216  1.0000
  C   C197      1.0  0.5858672902024421  0.6383946786372318  0.9341082965629572  1.0000
  C   C198      1.0  0.5565763182903398  0.6311949765925161  0.9250139150505503  1.0000
  H   H129      1.0  0.5472332997292535  0.5744555372935765  0.9951306853252444  1.0000
  H   H130      1.0  0.5994378836881069  0.5863299810329016  0.009962395925348977  1.0000
  H   H131      1.0  0.596507269039803  0.6564269777404789  0.9172992718363884  1.0000
  H   H132      1.0  0.5446525169085287  0.643876732569035  0.901445549068754  1.0000
  C   C199      1.0  0.5460285989157105  0.6946446844293392  0.7447199117099406  1.0000
  C   C200      1.0  0.5405254637818093  0.6669099655962671  0.7243763279938388  1.0000
  C   C201      1.0  0.5526998094631455  0.6609538161105609  0.6854371726557753  1.0000
  C   C202      1.0  0.5706877573895536  0.6825169436035392  0.6669352228125425  1.0000
  C   C203      1.0  0.5767253797443244  0.7099673373604863  0.6876391223232765  1.0000
  C   C204      1.0  0.5644156820885233  0.7160234301354589  0.7265552037421543  1.0000
  H   H133      1.0  0.5264402869412113  0.6502235693833157  0.7381736572011048  1.0000
  H   H134      1.0  0.5476530385819884  0.6399104958205434  0.6692733382787508  1.0000
  H   H135      1.0  0.5913602658027793  0.7262559670163791  0.6741068746562057  1.0000
  H   H136      1.0  0.5690064411732086  0.7373334728198722  0.7424609155424309  1.0000
  C   C205      1.0  0.7882794676261133  0.6937080558101278  0.9951870663341741  1.0000
  C   C206      1.0  0.7852969091954671  0.7250869297567759  0.986960005209728  1.0000
  C   C207      1.0  0.7631780091960518  0.7427460795205789  0.006454513094046321  1.0000
  C   C208      1.0  0.7437209750268255  0.7288979793759389  0.03363726623069252  1.0000
  C   C209      1.0  0.7475848831345016  0.6978670637635717  0.04339269460048367  1.0000
  C   C210      1.0  0.7702446079782368  0.6804454710166518  0.024762874798597068  1.0000
  H   H137      1.0  0.7995615180967443  0.7355876709822508  0.9646559818312191  1.0000
  H   H138      1.0  0.7604866244312004  0.7668687102743447  0.9992646841611281  1.0000
  H   H139      1.0  0.7331565410248019  0.6873157890944093  0.06536893319906545  1.0000
  H   H140      1.0  0.7733845060976471  0.6566793757542303  0.032952901828253944  1.0000
  C   C211      1.0  0.5703786865871706  0.502726700786557  0.7779440409264604  1.0000
  C   C212      1.0  0.5626530372953533  0.5036663505922987  0.7360774018560606  1.0000
  C   C213      1.0  0.5383970754714347  0.5216772051034627  0.7230943641230041  1.0000
  C   C214      1.0  0.5222418636085926  0.5390735980299209  0.7519138495410448  1.0000
  C   C215      1.0  0.5295446823053844  0.5375318713563707  0.793838244122275  1.0000
  C   C216      1.0  0.5534032718273508  0.5191169926148587  0.8068648915917287  1.0000
  H   H141      1.0  0.5754858852295668  0.4907520282311059  0.7136742233387907  1.0000
  H   H142      1.0  0.5325385365878287  0.522592237578605  0.6906822546778371  1.0000
  H   H143      1.0  0.5167215234137309  0.5503900896122152  0.8163504500430931  1.0000
  H   H144      1.0  0.5587845274947535  0.5177551115459648  0.8393660404620122  1.0000
  C   C217      1.0  0.6991189464159256  0.5005555864145741  0.10790816885036936  1.0000
  C   C218      1.0  0.7057820636153264  0.5107097760955397  0.06813448269298128  1.0000
  C   C219      1.0  0.7312430311099297  0.5277010499204174  0.061409580126948526  1.0000
  C   C220      1.0  0.749928537356718  0.53462593420432  0.09453863430599374  1.0000
  C   C221      1.0  0.7430233757938755  0.524736751900736  0.13420279542669644  1.0000
  C   C222      1.0  0.7179564510703773  0.5073341332365359  0.14083595540909188  1.0000
  H   H145      1.0  0.6912055331860103  0.5055433203271177  0.042611071270041156  1.0000
  H   H146      1.0  0.7363136415750642  0.5354711962923003  0.03068866764551692  1.0000
  H   H147      1.0  0.7569977494535636  0.5306652437385614  0.15981608426225602  1.0000
  H   H148      1.0  0.7132312694454678  0.4991814718020441  0.17145219687305002  1.0000
  C   C223      1.0  0.7364621923256841  0.49815180350866617  0.7927811166689979  1.0000
  C   C224      1.0  0.7197960218170225  0.5247036525257839  0.7840688640385197  1.0000
  C   C225      1.0  0.7161675326682063  0.5476655595814927  0.8142122593842088  1.0000
  C   C226      1.0  0.7292269777555712  0.5441250427788983  0.8531570428515178  1.0000
  C   C227      1.0  0.7467663610078145  0.5180926658456039  0.8614060239721064  1.0000
  C   C228      1.0  0.7504821747103798  0.4951676915699997  0.8311655889627269  1.0000
  H   H149      1.0  0.7102206261140385  0.5278325819565561  0.753773797419015  1.0000
  H   H150      1.0  0.7032937034454538  0.568163644465276  0.8072525388098031  1.0000
  H   H151      1.0  0.7568312453454398  0.5151236654403216  0.8914195638112348  1.0000
  H   H152      1.0  0.7635567841591623  0.4747335214669906  0.8379083283920311  1.0000
  C   C229      1.0  0.9341616361009528  0.5701997003847213  0.8476221783919389  1.0000
  C   C230      1.0  0.9141553816760852  0.5886017286908538  0.8700705142946843  1.0000
  C   C231      1.0  0.8914229694287054  0.5750734103190542  0.8924253348680176  1.0000
  C   C232      1.0  0.8891181036926677  0.5431167259327419  0.8928522409956172  1.0000
  C   C233      1.0  0.9093782726978521  0.5247926012850268  0.8709545829613796  1.0000
  C   C234      1.0  0.9316178650607189  0.538367087057406  0.8480273062156465  1.0000
  H   H153      1.0  0.9161026516380275  0.6133220850280657  0.8699096773288589  1.0000
  H   H154      1.0  0.8759212389282434  0.5893569341334599  0.909551048380981  1.0000
  H   H155      1.0  0.9076972781895479  0.5000408485093956  0.8713404025833921  1.0000
  H   H156      1.0  0.9469797953606235  0.524242806669251  0.8308727470386399  1.0000
  C   C235      1.0  0.0047860829382797565  0.44396091159394996  0.8378629512870669  1.0000
  C   C236      1.0  0.016940813860407244  0.4238638380479173  0.8671191476915693  1.0000
  C   C237      1.0  0.008438581420902258  0.42648581644085026  0.9086219389481611  1.0000
  C   C238      1.0  0.9876852053957745  0.44897498450146867  0.9206532394020505  1.0000
  C   C239      1.0  0.9748618730472147  0.46831533250077495  0.8910909022119351  1.0000
  C   C240      1.0  0.9836864700543769  0.46598517977124926  0.849799116971021  1.0000
  H   H157      1.0  0.03328745226754015  0.4067846388889074  0.8578737800925861  1.0000
  H   H158      1.0  0.01788301271604631  0.41114939422320895  0.9313849620128634  1.0000
  H   H159      1.0  0.9587240987531206  0.48558753970859014  0.9003188781198299  1.0000
  H   H160      1.0  0.9741459810784592  0.48107487388843223  0.8269588912633183  1.0000
  C   C241      1.0  0.05011740065278891  0.5213794951497047  0.5400503797652317  1.0000
  C   C242      1.0  0.0527496187636014  0.5330885928342343  0.5802003326569329  1.0000
  C   C243      1.0  0.02787809507008765  0.5358317447080924  0.6054327299044091  1.0000
  C   C244      1.0  0.00035404361514834726  0.5267883798194387  0.5907621569520995  1.0000
  C   C245      1.0  0.9973651198159929  0.5169359907619889  0.549817376898325  1.0000
  C   C246      1.0  0.02218911018280112  0.5146982110027072  0.524282149591249  1.0000
  H   H161      1.0  0.07405783141305045  0.5388010244211261  0.5925489665049747  1.0000
  H   H162      1.0  0.030189761383815794  0.5442529224679278  0.6366290839994619  1.0000
  H   H163      1.0  0.9761744250168544  0.5098753978016934  0.5383375131381009  1.0000
  H   H164      1.0  0.019826027889251252  0.5071279021278734  0.49262513545909853  1.0000
  C   C247      1.0  0.10771821134317472  0.6559364046841876  0.7618189144542115  1.0000
  C   C248      1.0  0.08084054099595961  0.6426415767950295  0.7716604896275447  1.0000
  C   C249      1.0  0.0760365716633129  0.6116504456745093  0.7620217431062933  1.0000
  C   C250      1.0  0.09820998593823638  0.5940080740591561  0.7427712974134016  1.0000
  C   C251      1.0  0.12551803053152089  0.606893406303874  0.7350476220331195  1.0000
  C   C252      1.0  0.13028993017663693  0.6377899600884939  0.7445980450054932  1.0000
  H   H165      1.0  0.06336024509848359  0.6565748011966882  0.7852218619271129  1.0000
  H   H166      1.0  0.05494909222857847  0.6017213875132745  0.7685033908493506  1.0000
  H   H167      1.0  0.14271383043643682  0.5931566465561521  0.7206561094146241  1.0000
  H   H168      1.0  0.15142260909344363  0.647647737569994  0.7384480147825421  1.0000
  C   C253      1.0  0.3371255998566816  0.5656690484988048  0.8335157642966851  1.0000
  C   C254      1.0  0.3608968798255478  0.5710562110319506  0.8601879510869622  1.0000
  C   C255      1.0  0.3773342377157136  0.5978137166290847  0.8563424998876703  1.0000
  C   C256      1.0  0.3701789076982493  0.6190805417236751  0.8255210550168824  1.0000
  C   C257      1.0  0.34658513531562785  0.6135992308354327  0.798768266174811  1.0000
  C   C258      1.0  0.33008435957533666  0.586951517144785  0.8026840977048999  1.0000
  H   H169      1.0  0.3665177588279373  0.5545769941111818  0.8839747638535738  1.0000
  H   H170      1.0  0.39547603623698224  0.6020152166170047  0.8772674318302346  1.0000
  H   H171      1.0  0.34187500650557373  0.6294464444689998  0.7740685016578888  1.0000
  H   H172      1.0  0.31270121424944763  0.5823276327216078  0.7808682696879677  1.0000
  C   C259      1.0  0.16357379419226245  0.4802039816475127  0.8967813321966661  1.0000
  C   C260      1.0  0.15527389841586695  0.5112525931795565  0.8992039096563912  1.0000
  C   C261      1.0  0.13640589097643954  0.5215860754216356  0.9306837352137934  1.0000
  C   C262      1.0  0.12646925253477537  0.5010509625594629  0.9603110169900263  1.0000
  C   C263      1.0  0.1345220591581252  0.46995479293542236  0.9575725617907267  1.0000
  C   C264      1.0  0.1528491305132493  0.459479989148105  0.9255608434941064  1.0000
  H   H173      1.0  0.16329719942832152  0.5272495640467608  0.876729256760512  1.0000
  H   H174      1.0  0.12961887321743146  0.5454438568387417  0.932111382438981  1.0000
  H   H175      1.0  0.1272113944419304  0.4540454635104749  0.9806631797508504  1.0000
  H   H176      1.0  0.15927949281905793  0.43546295951003844  0.9236773128592201  1.0000
  C   C265      1.0  0.16875910685482304  0.6276544594117472  0.8676059348001971  1.0000
  C   C266      1.0  0.14881622211709616  0.6036411148924421  0.8687999893987379  1.0000
  C   C267      1.0  0.12234358076400227  0.6073352614673562  0.8907250642572174  1.0000
  C   C268      1.0  0.11599952261121448  0.6349180544368077  0.9116608181394789  1.0000
  C   C269      1.0  0.13545016832091056  0.6592227097399647  0.9090426670575309  1.0000
  C   C270      1.0  0.16176995920329873  0.6556185856161875  0.887043554047297  1.0000
  H   H177      1.0  0.15397886107131553  0.5821354841809555  0.853382376594972  1.0000
  H   H178      1.0  0.10724360802041491  0.5885547120293442  0.8922919874226994  1.0000
  H   H179      1.0  0.13021791506272756  0.6808497096589647  0.9239202892651796  1.0000
  H   H180      1.0  0.1770649642031926  0.6742847434149924  0.8858610323076967  1.0000
  C   C271      1.0  0.22385566552883215  0.5723717922402566  0.6657063430660157  1.0000
  C   C272      1.0  0.24295718537960384  0.5822509431635023  0.6350271292606059  1.0000
  C   C273      1.0  0.24623165459687615  0.6137701194674152  0.6283006771740266  1.0000
  C   C274      1.0  0.22942474341371394  0.6351980072572809  0.6509913465011486  1.0000
  C   C275      1.0  0.20926304695875478  0.6251275181114354  0.6800934493006078  1.0000
  C   C276      1.0  0.20714777543856325  0.5937997425702258  0.6883107456819011  1.0000
  H   H181      1.0  0.25626389728456384  0.5656526685646992  0.6180216124919792  1.0000
  H   H182      1.0  0.26203842622431855  0.6214568307560216  0.6059856164851161  1.0000
  H   H183      1.0  0.19614870077872645  0.641455476393423  0.6976089454015986  1.0000
  H   H184      1.0  0.192906684560571  0.5861705629233639  0.7126421784555002  1.0000
  C   C277      1.0  0.09866369451544035  0.38472189445794014  0.632595113798648  1.0000
  C   C278      1.0  0.09571843967798206  0.2881573210056165  0.09067855135338743  1.0000
  C   C279      1.0  0.09163199063650385  0.30510256311103306  0.05428087897180367  1.0000
  C   C280      1.0  0.09645902679289432  0.33675791025470386  0.05434491313485301  1.0000
  C   C281      1.0  0.08388077767072696  0.40166959831225624  0.5641977963512074  1.0000
  C   C282      1.0  0.09326155189625215  0.4084981602896478  0.6045519507896426  1.0000
  H   H185      1.0  0.09131373010339316  0.26391767464369964  0.09089779386488872  1.0000
  H   H186      1.0  0.08384759889432936  0.29379967794326434  0.026577782469673572  1.0000
  H   H187      1.0  0.07926823621875667  0.4201080866692482  0.5428311738123105  1.0000
  H   H188      1.0  0.09535029059850338  0.4321414525841638  0.6143201782245062  1.0000
  C   C283      1.0  0.01265114483290386  0.22196221987264247  0.97002660370591  1.0000
  C   C284      1.0  0.02192733741956876  0.19306218598323124  0.9553904554919193  1.0000
  C   C285      1.0  0.04642510888918028  0.17810595195062393  0.9731552801538177  1.0000
  C   C286      1.0  0.061580489706364316  0.19185066651064595  0.005796579404195645  1.0000
  C   C287      1.0  0.05250667497805872  0.22081634524166452  0.020311159238471932  1.0000
  C   C288      1.0  0.028150687024157017  0.2359812572223843  0.002246232955536831  1.0000
  H   H189      1.0  0.009997761576631126  0.1818895090672067  0.9308346249577609  1.0000
  H   H190      1.0  0.05299947406083616  0.15536677251221603  0.9626500773940838  1.0000
  H   H191      1.0  0.06424898641410026  0.2315418917161097  0.04543678686246566  1.0000
  H   H192      1.0  0.021046436271308755  0.2582804822214787  0.013795971101332238  1.0000
  C   C289      1.0  0.9455285333573954  0.25093428157954084  0.7526104785112505  1.0000
  C   C290      1.0  0.9632125118892577  0.26278255920436216  0.7216050645231168  1.0000
  C   C291      1.0  0.9725879335971532  0.29308265215430107  0.7242804732895096  1.0000
  C   C292      1.0  0.9636299646567182  0.31181666788711415  0.7572901102401018  1.0000
  C   C293      1.0  0.9446279984917105  0.30057369150333707  0.7871527353066997  1.0000
  C   C294      1.0  0.9358679077983105  0.26993348784386084  0.7850691483442764  1.0000
  H   H193      1.0  0.9708806581374091  0.24821808601854434  0.69662659844775  1.0000
  H   H194      1.0  0.9873746072508639  0.30171480757408536  0.7013031386933648  1.0000
  H   H195      1.0  0.937750418975785  0.31501539496857645  0.8127771281223386  1.0000
  H   H196      1.0  0.9217899090643301  0.2609792227554119  0.8086745759409628  1.0000
  C   C295      1.0  0.19391411968180777  0.25920635064537295  0.8248307817656343  1.0000
  C   C296      1.0  0.1751794428785335  0.24258974416414586  0.8500974341302613  1.0000
  C   C297      1.0  0.14709897601938646  0.2544053756757913  0.8596367677605429  1.0000
  C   C298      1.0  0.13768108622425868  0.28263851573217186  0.8434758637240144  1.0000
  C   C299      1.0  0.15662056170442884  0.29957212745361245  0.8189911588963179  1.0000
  C   C300      1.0  0.18491176134315873  0.2880142480530537  0.810090357725652  1.0000
  H   H197      1.0  0.18239266357914596  0.2206505463736907  0.8624105138615983  1.0000
  H   H198      1.0  0.13258324110597142  0.24147544523216954  0.8790145509167593  1.0000
  H   H199      1.0  0.14951296345883022  0.3216466934960259  0.8069738178977991  1.0000
  H   H200      1.0  0.19948237953099257  0.30094665296872947  0.7907483869396803  1.0000
  C   C301      1.0  0.07896795454368123  0.8661780519551306  0.9928905016919694  1.0000
  C   C302      1.0  0.10969519976796338  0.8675395834418944  0.9927343063663441  1.0000
  C   C303      1.0  0.16208846775232888  0.8698114980383646  0.7053818695480465  1.0000
  C   C304      1.0  0.1590024135111667  0.8380253803659544  0.707602230316301  1.0000
  C   C305      1.0  0.08259038142148846  0.8103884071300198  0.9953984259330184  1.0000
  C   C306      1.0  0.06545317085983049  0.837564720275144  0.9938540063120627  1.0000
  H   H201      1.0  0.14159590426929003  0.9139939740720007  0.7160540700247626  1.0000
  H   H202      1.0  0.18165142303740023  0.8792762128619604  0.6919964526061675  1.0000
  H   H203      1.0  0.07197315416084549  0.7884520042059138  0.9966312496309809  1.0000
  H   H204      1.0  0.04165753530771555  0.8364531592000419  0.9939299681012734  1.0000
  C   C307      1.0  0.020699477573487668  0.06132521252036871  0.9867228339140475  1.0000
  C   C308      1.0  0.9927156165894653  0.07236551810376568  0.9752621433891109  1.0000
  C   C309      1.0  0.9885379660690085  0.08739259122158738  0.9374975789120542  1.0000
  C   C310      1.0  0.012354277474351694  0.09129140270199043  0.9110439659332916  1.0000
  C   C311      1.0  0.04031936594239505  0.0799169993926776  0.9222446917567233  1.0000
  C   C312      1.0  0.04448504097014516  0.06489172638914797  0.9600789968294313  1.0000
  H   H205      1.0  0.9741150069705534  0.06875826122204054  0.9952523575914749  1.0000
  H   H206      1.0  0.9667239088173258  0.0952403556211554  0.9284024980188439  1.0000
  H   H207      1.0  0.05879869317622588  0.08320412315574854  0.9019846091022515  1.0000
  H   H208      1.0  0.06613241510615087  0.05668304091444187  0.9691200796102359  1.0000
  C   C313      1.0  0.15552876655301592  0.09254363887226824  0.9116168233501787  1.0000
  C   C314      1.0  0.13120431108009778  0.07979559328283647  0.9309368721895412  1.0000
  C   C315      1.0  0.13423334591268246  0.051650181957522356  0.9513874055175983  1.0000
  C   C316      1.0  0.16157533576801023  0.036377914106955345  0.9528052686624983  1.0000
  C   C317      1.0  0.18571721279714132  0.04873422507842817  0.9325674401572478  1.0000
  C   C318      1.0  0.18270579740905046  0.07684162810505768  0.911973665425227  1.0000
  H   H209      1.0  0.11022676324292005  0.09203808937001345  0.9309926985515048  1.0000
  H   H210      1.0  0.11572820655121399  0.04225114265283825  0.9673391103653841  1.0000
  H   H211      1.0  0.20696752964960322  0.037029253218557656  0.9338740554620215  1.0000
  H   H212      1.0  0.20168408270512125  0.08679657038031863  0.8976462856912402  1.0000
  C   C319      1.0  0.10470203062716471  0.07697832214699085  0.7195340366226058  1.0000
  C   C320      1.0  0.1179605564241191  0.09260575246355307  0.7522626737560834  1.0000
  C   C321      1.0  0.14364371948352378  0.10899526312238317  0.745485272862413  1.0000
  C   C322      1.0  0.1557851049716525  0.1102636090624558  0.7058639665387327  1.0000
  C   C323      1.0  0.14150477832574238  0.0961401213159192  0.6727300136378869  1.0000
  C   C324      1.0  0.11614226958977622  0.07920957655486527  0.6796668082447129  1.0000
  H   H213      1.0  0.10930071129320293  0.09071835286635799  0.7832094986473273  1.0000
  H   H214      1.0  0.1546829979352831  0.11924363548945349  0.7714462200926321  1.0000
  H   H215      1.0  0.15064751490634987  0.09724166544144386  0.6419889529593357  1.0000
  H   H216      1.0  0.10545579744493679  0.06784224455863641  0.6541432895895714  1.0000
  C   C325      1.0  0.3199214938671306  0.1311562798037147  0.8683915520748371  1.0000
  C   C326      1.0  0.3448021973676698  0.11986627920343418  0.8894815540400041  1.0000
  C   C327      1.0  0.363897985861673  0.14024202113997708  0.909225451731938  1.0000
  C   C328      1.0  0.35839070163076253  0.17192352176440862  0.907307502021039  1.0000
  C   C329      1.0  0.33330392016508514  0.18313041208580258  0.8866449216046196  1.0000
  C   C330      1.0  0.3141283124346177  0.16279166709309623  0.8671161470830476  1.0000
  H   H217      1.0  0.3491651716816532  0.09538245379603749  0.890877767182101  1.0000
  H   H218      1.0  0.3825670831968234  0.13140088073006795  0.926499029029553  1.0000
  H   H219      1.0  0.3289363903118491  0.20762032506654116  0.8851971302912892  1.0000
  H   H220      1.0  0.29519277837674274  0.17172895169500563  0.850417334306666  1.0000
  C   C331      1.0  0.5299195751343131  0.8596530473436357  0.6957191816295665  1.0000
  C   C332      1.0  0.5412489965558142  0.8298134498987478  0.690471721432688  1.0000
  C   C333      1.0  0.5365789909002912  0.8140273179241871  0.6532681662174659  1.0000
  C   C334      1.0  0.5888700141706087  0.8012841655948177  0.011619694307130501  1.0000
  C   C335      1.0  0.5782474351788688  0.829485116230186  0.027152514430550667  1.0000
  C   C336      1.0  0.5929158155675128  0.8566929590050836  0.018096501605269433  1.0000
  H   H221      1.0  0.5540245474024988  0.8190976238747906  0.7149700479331853  1.0000
  H   H222      1.0  0.5451680801916231  0.790938714007639  0.6496091783168826  1.0000
  H   H223      1.0  0.5592012845626497  0.8301618277868702  0.04713038894321131  1.0000
  H   H224      1.0  0.5851888917997643  0.8783174197786128  0.031140086342119178  1.0000
  C   C337      1.0  0.5171339831783179  0.07568734746581218  0.9978857737089923  1.0000
  C   C338      1.0  0.5234811742341918  0.04415573414053453  0.9978182461244249  1.0000
  C   C339      1.0  0.5527143376836311  0.0334322594081784  0.9954238642869321  1.0000
  C   C340      1.0  0.5756575203546506  0.054225042020202396  0.9931903699014255  1.0000
  C   C341      1.0  0.5693828939791001  0.0857956884267268  0.993417008885827  1.0000
  C   C342      1.0  0.5401288081135767  0.09652316784720116  0.9961271921531434  1.0000
  H   H225      1.0  0.5057279151844966  0.028007267246799916  0.9993404595900032  1.0000
  H   H226      1.0  0.5573738650421799  0.009073240416194839  0.9948397123307036  1.0000
  H   H227      1.0  0.5871341293106005  0.10197136268840934  0.9922368205410584  1.0000
  H   H228      1.0  0.5354970816500579  0.12090127109999682  0.9982931025073142  1.0000
  C   C343      1.0  0.479422318932686  0.05646723800591236  0.7615902260763038  1.0000
  C   C344      1.0  0.4702813135698347  0.06407551699879832  0.8015572931851905  1.0000
  C   C345      1.0  0.4768954167487018  0.09275528102203134  0.8184890762633233  1.0000
  C   C346      1.0  0.4919493939649283  0.1141874392721427  0.7951492044637427  1.0000
  C   C347      1.0  0.5014864202157434  0.10643158415905418  0.7553203000375937  1.0000
  C   C348      1.0  0.49546946442528444  0.07741815963841403  0.7386669995276438  1.0000
  H   H229      1.0  0.458210499141556  0.04769654812402124  0.8195003501648941  1.0000
  H   H230      1.0  0.47027422869882884  0.09811392047816003  0.8495793820394107  1.0000
  H   H231      1.0  0.513316072908561  0.1229094619206923  0.737237547848281  1.0000
  H   H232      1.0  0.5026266590629145  0.0714676704314341  0.7077664261120219  1.0000
  C   C349      1.0  0.7844290494683192  0.1958134698774887  0.84512229160184  1.0000
  C   C350      1.0  0.8124658347836108  0.20800590279028508  0.8406276049018614  1.0000
  C   C351      1.0  0.837051169644383  0.19347425248508165  0.8589142521407571  1.0000
  C   C352      1.0  0.8336798640049725  0.16708874605684398  0.882631571571895  1.0000
  C   C353      1.0  0.8056260324278675  0.15478756347463918  0.8869781980565635  1.0000
  C   C354      1.0  0.7810800155770422  0.16895401299841795  0.8679227377125803  1.0000
  H   H233      1.0  0.8152327602379316  0.2287163419378713  0.822922758598203  1.0000
  H   H234      1.0  0.8584825330228257  0.20304828025289162  0.8550194726300269  1.0000
  H   H235      1.0  0.8028434452975116  0.1343880909002999  0.9053178305305798  1.0000
  H   H236      1.0  0.7595010175776086  0.1596609234216375  0.8721925828939192  1.0000
  C   C355      1.0  0.6669447856758697  0.0664938390354497  0.7485059302763221  1.0000
  C   C356      1.0  0.6496707028806737  0.0475106970913568  0.7237398995296556  1.0000
  C   C357      1.0  0.6318313656452034  0.025609491518892913  0.742085287803506  1.0000
  C   C358      1.0  0.6318120340421378  0.02227832725614487  0.7850505127392698  1.0000
  C   C359      1.0  0.6503786401607113  0.04005864984315077  0.8095238442594295  1.0000
  C   C360      1.0  0.6674313327956798  0.06264486848681794  0.7913529326254055  1.0000
  H   H237      1.0  0.6493792783426101  0.050325643867758396  0.6905838782628406  1.0000
  H   H238      1.0  0.6180699713284208  0.01140675510617184  0.7229137129224196  1.0000
  H   H239      1.0  0.6512108379146269  0.036857251403416225  0.8425881303043333  1.0000
  H   H240      1.0  0.6811159947194166  0.07696207109592512  0.8105255637984466  1.0000
  C   C361      1.0  0.6347455835071121  0.32628332088071466  0.17223382635752427  1.0000
  C   C362      1.0  0.6205536159978676  0.3051121245619135  0.5968403955472426  1.0000
  C   C363      1.0  0.6329026779097757  0.315439130038086  0.6341277878316739  1.0000
  C   C364      1.0  0.6372580891560303  0.3468327098661318  0.6408636453340437  1.0000
  C   C365      1.0  0.6300263715010131  0.37885514825059863  0.19692815318473333  1.0000
  C   C366      1.0  0.635307063030047  0.3578440614280027  0.16476481823679956  1.0000
  H   H241      1.0  0.6168583743640706  0.28095284429399775  0.592196772125377  1.0000
  H   H242      1.0  0.6388553561728306  0.2990823667682374  0.6578456749272024  1.0000
  H   H243      1.0  0.6308543409453387  0.40318553069255086  0.19092978102855773  1.0000
  H   H244      1.0  0.6402570021891384  0.36611474130591015  0.13417988528828628  1.0000
  C   C367      1.0  0.5637962731610702  0.17583409258353963  0.08762803834376331  1.0000
  C   C368      1.0  0.5334797503304035  0.18161401529992444  0.0847774131361747  1.0000
  C   C369      1.0  0.5218516623883145  0.19717551136175843  0.050445774002289  1.0000
  C   C370      1.0  0.5405871700314614  0.20722489119239246  0.01934019857128666  1.0000
  C   C371      1.0  0.5707075187841792  0.20033870025130576  0.021453924261990442  1.0000
  C   C372      1.0  0.5821649062152686  0.18427260335805787  0.05536066475974999  1.0000
  H   H245      1.0  0.5191511414115674  0.1752545447568832  0.10975208521998225  1.0000
  H   H246      1.0  0.49851378086647946  0.2024824576585472  0.04889997724416517  1.0000
  H   H247      1.0  0.5852260760628185  0.20726514846552171  0.9970053329200705  1.0000
  H   H248      1.0  0.6052981408782521  0.17844321283368994  0.05659387707111496  1.0000
  C   C373      1.0  0.5845054442986082  0.18515771731657366  0.6392562264584034  1.0000
  C   C374      1.0  0.589844292662236  0.21667710759937758  0.6397778080091028  1.0000
  C   C375      1.0  0.6002917748737143  0.23079489214857185  0.675878434497882  1.0000
  C   C376      1.0  0.605787095027658  0.21328692010894976  0.7112193593075766  1.0000
  C   C377      1.0  0.5993552893025186  0.18201685530592054  0.7110287786785509  1.0000
  C   C378      1.0  0.5885362737638815  0.16797870693916564  0.6751932596258673  1.0000
  H   H249      1.0  0.5861132807299121  0.23022249481795443  0.6123191961045595  1.0000
  H   H250      1.0  0.6048498465767986  0.25507694750530313  0.6759661441906272  1.0000
  H   H251      1.0  0.6025678961798608  0.1685454075206928  0.7384212268483441  1.0000
  H   H252      1.0  0.5841316956902824  0.14367173730739635  0.6750541797227221  1.0000
  C   C379      1.0  0.6947880731689657  0.1692211369584983  0.02624289719244377  1.0000
  C   C380      1.0  0.6657856529449058  0.1598578997064108  0.0315002627442047  1.0000
  C   C381      1.0  0.6490041664104383  0.1506723478908479  0.9973066057251071  1.0000
  C   C382      1.0  0.6611812819807077  0.15102139616372615  0.9577784753053119  1.0000
  C   C383      1.0  0.6903132031380709  0.16002566199024854  0.9525233266661275  1.0000
  C   C384      1.0  0.7071892126926221  0.16878507578117238  0.9868267361086533  1.0000
  H   H253      1.0  0.6563674365646945  0.15936745874075886  0.06201740247935095  1.0000
  H   H254      1.0  0.6265266757142297  0.1435646481224322  0.0014108678571653765  1.0000
  H   H255      1.0  0.699896128690151  0.16021342739685135  0.922054607202557  1.0000
  H   H256      1.0  0.7296191072161106  0.17563844037686496  0.9826791323605174  1.0000
  N   N1        1.0  0.16414055540355008  0.10690510684734389  0.05360392734820385  1.0000
  C   C385      1.0  0.16761222753925978  0.0893853698782443  0.09233475375655731  1.0000
  C   C386      1.0  0.16785542485924315  0.13993392887762246  0.06221537105395614  1.0000
  C   C387      1.0  0.1344234564470558  0.10207058282958625  0.03624043572248481  1.0000
  C   C388      1.0  0.1866153286473278  0.09627306977471517  0.02361532295025648  1.0000
  H   H257      1.0  0.1653939550604175  0.06428004166618506  0.08679016592713262  1.0000
  H   H258      1.0  0.15077577284396948  0.09666471646217234  0.11546084381850896  1.0000
  H   H259      1.0  0.18957418046744004  0.09312060322060867  0.10680886063871498  1.0000
  H   H260      1.0  0.18994478355040323  0.14457414449374606  0.07568545339993693  1.0000
  H   H261      1.0  0.16503434856572408  0.15388394511358938  0.033696201211368404  1.0000
  H   H262      1.0  0.15127400923697262  0.14851008367521112  0.08479153012306373  1.0000
  H   H263      1.0  0.1310501888205504  0.11499074448751045  0.006938434490904921  1.0000
  H   H264      1.0  0.11689813835553961  0.11014809388765534  0.05786084298158434  1.0000
  H   H265      1.0  0.13076393782435516  0.07739447866733151  0.029561331559984527  1.0000
  H   H266      1.0  0.20930875821077702  0.10037305018304088  0.035224147154444996  1.0000
  H   H267      1.0  0.18404634404449025  0.10835298029408258  0.993544264298599  1.0000
  H   H268      1.0  0.18496691620465772  0.07121420613207952  0.017342255746182644  1.0000
  N   N2        1.0  0.06945825638102887  0.510506277325268  0.26262543014395257  1.0000
  C   C389      1.0  0.04125707952414337  0.5228366942471555  0.2788947470943933  1.0000
  C   C390      1.0  0.07228807710146579  0.5188334629774314  0.21867269620885416  1.0000
  C   C391      1.0  0.07003107090681882  0.47674744981131795  0.2664291530904998  1.0000
  C   C392      1.0  0.09412804552541476  0.5234044086538097  0.28664689779194347  1.0000
  H   H269      1.0  0.022094049406209848  0.51385481646474  0.26128870026899154  1.0000
  H   H270      1.0  0.039986664669164895  0.5483281672955848  0.277377062884723  1.0000
  H   H271      1.0  0.038310540283285954  0.516328593584921  0.3117939942299119  1.0000
  H   H272      1.0  0.05386625175294801  0.5094854964228318  0.1998074331555683  1.0000
  H   H273      1.0  0.07216104771014842  0.5441575144836376  0.21464433580390083  1.0000
  H   H274      1.0  0.09318094663695087  0.5093612781633221  0.20537474332487382  1.0000
  H   H275      1.0  0.06703459958217084  0.46966942057416733  0.2990940024403607  1.0000
  H   H276      1.0  0.09134369272261389  0.4665852584543749  0.2556462822583841  1.0000
  H   H277      1.0  0.05218239735811592  0.4662502231994781  0.24784890624671194  1.0000
  H   H278      1.0  0.09421046922575615  0.5489148316511745  0.28514493469235314  1.0000
  H   H279      1.0  0.11581364850073128  0.5147548835112379  0.27500475065071  1.0000
  H   H280      1.0  0.0928887090219952  0.5170269103301276  0.31986359236025963  1.0000
  N   N3        1.0  0.024463245896539476  0.6373280690384471  0.21241625579683604  1.0000
  C   C393      1.0  0.04299909218337783  0.6270402064646076  0.2475724671421915  1.0000
  C   C394      1.0  0.9977107095863428  0.6532261107714844  0.22829048361912757  1.0000
  C   C395      1.0  0.015886948150320324  0.6105289192990282  0.18716907404271405  1.0000
  C   C396      1.0  0.041244382890385234  0.6586023186026039  0.18663187569815048  1.0000
  H   H281      1.0  0.0310347135717004  0.6110122572133035  0.26784139209826796  1.0000
  H   H282      1.0  0.049747016144730205  0.6467973011075139  0.26723737078779364  1.0000
  H   H283      1.0  0.06358474421723104  0.6152192159797595  0.23696017618491835  1.0000
  H   H284      1.0  0.9830822730120294  0.6611273941377175  0.2026829839387013  1.0000
  H   H285      1.0  0.9846490782555868  0.6378425197188236  0.24815759041986957  1.0000
  H   H286      1.0  0.003348204653111919  0.6737213811864804  0.24720743447722932  1.0000
  H   H287      1.0  0.0017655366206117407  0.6176165888907518  0.16047703552009007  1.0000
  H   H288      1.0  0.0031720138759105954  0.5939580151800761  0.2056255011131149  1.0000
  H   H289      1.0  0.03551448858389472  0.5981030868077682  0.17446969812480045  1.0000
  H   H290      1.0  0.02818152366265192  0.6664184348715572  0.15947857238699084  1.0000
  H   H291      1.0  0.06181605673409751  0.6475432467911899  0.17460393904054972  1.0000
  H   H292      1.0  0.04747461736415404  0.6795133028552239  0.20424019599675236  1.0000
  N   N4        1.0  0.16468016416362083  0.32282071035903365  0.9544851413841478  1.0000
  C   C397      1.0  0.19117528256519595  0.3092760252951801  0.9345089549106445  1.0000
  C   C398      1.0  0.14308395276968783  0.29852513069997494  0.9616301432674866  1.0000
  C   C399      1.0  0.15143725765375604  0.34662844840236967  0.9273837151778433  1.0000
  C   C400      1.0  0.17298257751083823  0.33685306849502467  0.9944694040680062  1.0000
  H   H293      1.0  0.20802007150584353  0.32691839535571376  0.9287332062152521  1.0000
  H   H294      1.0  0.18569469676447345  0.2986564890138679  0.9041524689072412  1.0000
  H   H295      1.0  0.20160112531971353  0.2910017697435896  0.95389374430751  1.0000
  H   H296      1.0  0.152068152232227  0.2803694375525623  0.9824811619615609  1.0000
  H   H297      1.0  0.12264985138389711  0.30803963204337376  0.975909182910493  1.0000
  H   H298      1.0  0.13636133762203959  0.28734212848028656  0.932278692821579  1.0000
  H   H299      1.0  0.131324352118113  0.3572510815947408  0.9414785096702694  1.0000
  H   H300      1.0  0.14475871843504637  0.33682165720522617  0.8970284540583422  1.0000
  H   H301      1.0  0.16708813758403424  0.3653772264873005  0.9213443698764406  1.0000
  H   H302      1.0  0.18928722136081172  0.3552823700638318  0.99034578590071  1.0000
  H   H303      1.0  0.18274977589855493  0.3195011240857028  0.015901224008895154  1.0000
  H   H304      1.0  0.15345779434316148  0.3473844443384577  0.010219136000455542  1.0000
  N   N5        1.0  0.06691429808657201  0.3739639918411555  0.23369720088358026  1.0000
  C   C401      1.0  0.05049511224594627  0.36327487906434713  0.19693940159160353  1.0000
  C   C402      1.0  0.09032893878656119  0.3949029998235124  0.22090686238016036  1.0000
  C   C403      1.0  0.08044168995111312  0.34728007346566436  0.25513066811816804  1.0000
  C   C404      1.0  0.046439620055397375  0.39046413292285576  0.2618937402485637  1.0000
  H   H305      1.0  0.032188119021810735  0.3480711673176873  0.20564065176458732  1.0000
  H   H306      1.0  0.06497032715371853  0.3498746254201909  0.17557091593336324  1.0000
  H   H307      1.0  0.040799333504184514  0.38287172049225454  0.17919023775752313  1.0000
  H   H308      1.0  0.08106712779319601  0.4152885651248803  0.20456128494743192  1.0000
  H   H309      1.0  0.10311326724366437  0.40326249523483204  0.24799971067020857  1.0000
  H   H310      1.0  0.10618612297393856  0.3833255151271757  0.1996501996779259  1.0000
  H   H311      1.0  0.09296476205345668  0.35457652548341906  0.2830962063144814  1.0000
  H   H312      1.0  0.09609426090493049  0.3343853227618483  0.23460997059078245  1.0000
  H   H313      1.0  0.0635311473628839  0.33078331355434304  0.2650063654619655  1.0000
  H   H314      1.0  0.035510358088837624  0.4103792241450657  0.24622658310521903  1.0000
  H   H315      1.0  0.058154211065103434  0.39931916009497576  0.28970660768709966  1.0000
  H   H316      1.0  0.028762514386901694  0.37524761631521  0.27283140510369325  1.0000
  N   N6        1.0  0.5779549425967596  0.6362396405118119  0.3344454053104459  1.0000
  C   C405      1.0  0.5507361695473696  0.6485771640387887  0.314948436880775  1.0000
  C   C406      1.0  0.6008609058787833  0.6315897088048794  0.30259471104228447  1.0000
  C   C407      1.0  0.5717537673331324  0.606611320111339  0.35425710833356683  1.0000
  C   C408      1.0  0.5883630998898773  0.6581616470271596  0.36602368280241393  1.0000
  H   H317      1.0  0.5546119408497192  0.6705241944590394  0.2986236817555609  1.0000
  H   H318      1.0  0.5331434010025798  0.6529945941268083  0.3382306386059618  1.0000
  H   H319      1.0  0.541874561201043  0.6322668256648287  0.29169144364968586  1.0000
  H   H320      1.0  0.621663083014235  0.6219182403271342  0.31599865666266236  1.0000
  H   H321      1.0  0.5935335678919772  0.6152427185046782  0.2783164323502496  1.0000
  H   H322      1.0  0.6060297299512258  0.6534583389388238  0.28682315455199336  1.0000
  H   H323      1.0  0.5545170922120457  0.609291907436331  0.37843139576087786  1.0000
  H   H324      1.0  0.591867600374997  0.5963647821963755  0.36887628503866937  1.0000
  H   H325      1.0  0.5635852099744609  0.589624359865302  0.3313866706937517  1.0000
  H   H326      1.0  0.5927435956342884  0.680956166065592  0.3523001426739916  1.0000
  H   H327      1.0  0.6089621666868095  0.6496767922028808  0.38128550724371757  1.0000
  H   H328      1.0  0.5715745615463735  0.6620720071853827  0.3906172019674503  1.0000
  N   N7        1.0  0.6084732998991361  0.3380597211764125  0.39686318681566335  1.0000
  C   C409      1.0  0.6096668312880554  0.3693045563155521  0.3795035925697051  1.0000
  C   C410      1.0  0.5798283646247464  0.33410227791943453  0.41746187552033687  1.0000
  C   C411      1.0  0.6326024134283951  0.3336427987671036  0.4272230936630671  1.0000
  C   C412      1.0  0.6117879160743577  0.31519636329434003  0.36319531688156387  1.0000
  H   H329      1.0  0.6308880169611341  0.3730541116919261  0.3633386959604396  1.0000
  H   H330      1.0  0.607260130538262  0.387209875999911  0.40397127633152996  1.0000
  H   H331      1.0  0.5918420054866909  0.3734042664432287  0.3562739538162228  1.0000
  H   H332      1.0  0.5780630704428095  0.3106640506710673  0.4306185871236488  1.0000
  H   H333      1.0  0.5768798001001775  0.35054544277336425  0.4436960947028828  1.0000
  H   H334      1.0  0.561066387478958  0.33764883253301786  0.39566498074789536  1.0000
  H   H335      1.0  0.6545468222648206  0.33676099109205937  0.4129111444432415  1.0000
  H   H336      1.0  0.6324513596720617  0.3102019874563462  0.4407433806398321  1.0000
  H   H337      1.0  0.6304288213587342  0.3500977807750063  0.4535798272328997  1.0000
  H   H338      1.0  0.6112103952291579  0.291329491172035  0.37514874535268733  1.0000
  H   H339      1.0  0.6330840829081699  0.3177364673843799  0.3467566942768872  1.0000
  H   H340      1.0  0.5937907010797038  0.31778535767442145  0.33991549864294457  1.0000
  N   N8        1.0  0.6719353483343322  0.14139093042898027  0.6153670050493489  1.0000
  C   C413      1.0  0.7018534078356757  0.1274575521111251  0.6181479880760495  1.0000
  C   C414      1.0  0.6678644686796649  0.15590578848964842  0.5745518869019628  1.0000
  C   C415      1.0  0.6681483309296825  0.16483454470965286  0.6482099712538344  1.0000
  C   C416      1.0  0.6497971511079619  0.11733451459170349  0.6205716936936941  1.0000
  H   H341      1.0  0.7052944367631758  0.1091909505380392  0.5943502956300653  1.0000
  H   H342      1.0  0.7058233635418801  0.11672294532019276  0.6488525977218683  1.0000
  H   H343      1.0  0.7191085570274786  0.14488472855653658  0.6137902472840977  1.0000
  H   H344      1.0  0.6449643126211737  0.16515431348239853  0.5705934159565134  1.0000
  H   H345      1.0  0.6831035938269787  0.1753092027657796  0.5702555840476367  1.0000
  H   H346      1.0  0.6721579565664942  0.13916479810624932  0.549118784449876  1.0000
  H   H347      1.0  0.6465987632356047  0.1772316800401853  0.6453268390243507  1.0000
  H   H348      1.0  0.6856066050719736  0.18232421174257427  0.647032087761481  1.0000
  H   H349      1.0  0.6689849006292008  0.1541926633415238  0.6793816720181773  1.0000
  H   H350      1.0  0.6523809285152538  0.10574934818504644  0.6509964746833363  1.0000
  H   H351      1.0  0.6518519121047598  0.09934724031172949  0.5961495284433266  1.0000
  H   H352      1.0  0.6270100536963997  0.12722155566138776  0.6191656019890196  1.0000
  N   N9        1.0  0.027069227787128725  0.5656960767846315  0.9171207652483043  1.0000
  C   C417      1.0  0.006706125447220712  0.5881406028429719  0.9370200327539915  1.0000
  C   C418      1.0  0.03983317556304145  0.5797092947397415  0.8799758147919061  1.0000
  C   C419      1.0  0.0107668336681388  0.5379594101630868  0.9051514378724499  1.0000
  C   C420      1.0  0.05095404565753702  0.5570658652230939  0.9462821390597164  1.0000
  H   H353      1.0  0.9884792487382167  0.5951293344067616  0.9155914226734879  1.0000
  H   H354      1.0  0.01838777712663564  0.6093881529867249  0.9463181591224266  1.0000
  H   H355      1.0  0.9966394807321813  0.5785311179189696  0.9652510717001535  1.0000
  H   H356      1.0  0.02246849069423984  0.5858110442769275  0.8568447650551677  1.0000
  H   H357      1.0  0.05140178533173034  0.601271589853197  0.887753193781574  1.0000
  H   H358      1.0  0.05614111904187613  0.5639931134329649  0.8648076208386672  1.0000
  H   H359      1.0  0.0007210698482222884  0.5268747685083532  0.932422497709693  1.0000
  H   H360      1.0  0.025480417667784083  0.520432929558453  0.8902476838577397  1.0000
  H   H361      1.0  0.9926811253260088  0.5435607534571111  0.8829048210138325  1.0000
  H   H362      1.0  0.06688365898810256  0.5403757269728371  0.9320958250759156  1.0000
  H   H363      1.0  0.04225303587985718  0.5461758739401498  0.974599546297309  1.0000
  H   H364      1.0  0.0636486799574223  0.5773959218562962  0.9562823723579896  1.0000
  N   N10       1.0  0.5041459521314431  0.8324632771500076  0.44639391848106214  1.0000
  C   C421      1.0  0.4851053558064124  0.811526348339613  0.46944796097183183  1.0000
  C   C422      1.0  0.48567102808729834  0.854035640154895  0.4218870141126286  1.0000
  C   C423      1.0  0.5234758689468172  0.814237890333751  0.4184574636198319  1.0000
  C   C424      1.0  0.5222966870872275  0.8501068545293121  0.4758094723662074  1.0000
  H   H365      1.0  0.49845240479198016  0.794647690344427  0.48771468831454445  1.0000
  H   H366      1.0  0.4707273320398193  0.7981850386501808  0.44825878657403234  1.0000
  H   H367      1.0  0.4707340861836743  0.8243598847830517  0.4916605705663874  1.0000
  H   H368      1.0  0.471598647950551  0.8416912595555666  0.3992609101300274  1.0000
  H   H369      1.0  0.47098048043635055  0.8683106985266884  0.4421008245708027  1.0000
  H   H370      1.0  0.4994280559383888  0.8703331387348766  0.40439655136849084  1.0000
  H   H371      1.0  0.538100584285249  0.8292302061450451  0.40036264041239483  1.0000
  H   H372      1.0  0.5104035920515054  0.8004293323932455  0.39610858060020715  1.0000
  H   H373      1.0  0.5377946640442479  0.7977615211232177  0.43593683355370216  1.0000
  H   H374      1.0  0.5371956398900808  0.8659144124861679  0.45947721715650813  1.0000
  H   H375      1.0  0.5360334347506551  0.8347260645361465  0.4955783448793207  1.0000
  H   H376      1.0  0.5083249381140167  0.8645029499018069  0.4968445148014313  1.0000
  N   N11       1.0  0.23636060689474012  0.6727324072164726  0.4943927387154253  1.0000
  C   C425      1.0  0.21054759946787802  0.6882050996135467  0.4750275677916387  1.0000
  C   C426      1.0  0.23430600114010455  0.6754080404911934  0.5398132138281765  1.0000
  C   C427      1.0  0.26361839456527764  0.6873919589349173  0.48049067504894505  1.0000
  C   C428      1.0  0.23706748223784238  0.6399551266103874  0.4822104856600543  1.0000
  H   H377      1.0  0.21193854447571142  0.6872516874665799  0.44069243544796693  1.0000
  H   H378      1.0  0.20873748397473912  0.7127817135356466  0.484357261488564  1.0000
  H   H379      1.0  0.18962986681321534  0.6771585248651689  0.48386924928266933  1.0000
  H   H380      1.0  0.23279842522004815  0.6997859307344488  0.5502332837087113  1.0000
  H   H381      1.0  0.2146062370802986  0.6638553041939995  0.5518451734709898  1.0000
  H   H382      1.0  0.25379925922688645  0.6646957962582167  0.5554173029303316  1.0000
  H   H383      1.0  0.2659492462436465  0.6859577055525705  0.44633460396607716  1.0000
  H   H384      1.0  0.2835426492172543  0.6760863489730166  0.49421028981813936  1.0000
  H   H385      1.0  0.26379792724169343  0.7121262560560605  0.4892408531252498  1.0000
  H   H386      1.0  0.2559507184957136  0.6273412769671719  0.49669984135851714  1.0000
  H   H387      1.0  0.23907403922133527  0.6371816651517612  0.4481221600679515  1.0000
  H   H388      1.0  0.21656081240415997  0.6282923632305427  0.49150911451088075  1.0000
  N   N12       1.0  0.5437762832081541  0.07422590422446351  0.5693916081911796  1.0000
  C   C429      1.0  0.5564263453643025  0.08887868848578218  0.5326315206073657  1.0000
  C   C430      1.0  0.5199820096248209  0.09412919543319997  0.5864338316285483  1.0000
  C   C431      1.0  0.5670492701830464  0.06965881554789743  0.6009937278169722  1.0000
  C   C432      1.0  0.5316442786260432  0.0442155713814163  0.5574325280438671  1.0000
  H   H389      1.0  0.5751125452814642  0.07496002927245504  0.5198335018741121  1.0000
  H   H390      1.0  0.5646433801501581  0.11220376586995345  0.5400186088191803  1.0000
  H   H391      1.0  0.539739971870312  0.09144735414380013  0.5075635442551618  1.0000
  H   H392      1.0  0.5103724732733741  0.08399359334752243  0.6146793918297658  1.0000
  H   H393      1.0  0.5282358657418071  0.11728710577207718  0.5948547338020695  1.0000
  H   H394      1.0  0.5017906262173126  0.09742230546387921  0.5636018835721697  1.0000
  H   H395      1.0  0.5852460850860057  0.05447631209952397  0.5892512225191738  1.0000
  H   H396      1.0  0.5583139635616851  0.05841087559007918  0.6290590277829982  1.0000
  H   H397      1.0  0.5765957635342402  0.09193078060532  0.6107083164039345  1.0000
  H   H398      1.0  0.548763779044585  0.029224491693528254  0.5428823824158742  1.0000
  H   H399      1.0  0.5133105651514576  0.04682281795088983  0.5346501784644092  1.0000
  H   H400      1.0  0.5231387691796839  0.03171179108778022  0.5846378357123799  1.0000
  N   N13       1.0  0.6303090205648378  0.579874944226949  0.13880672828313823  1.0000
  C   C433      1.0  0.6358208875907405  0.594774544065651  0.17916035725771404  1.0000
  C   C434      1.0  0.6161860921564479  0.6023437720150088  0.11061192770949124  1.0000
  C   C435      1.0  0.6106512128143434  0.5536124139380895  0.1443642676540889  1.0000
  C   C436      1.0  0.6585802158286183  0.5688375854688831  0.12114199022932541  1.0000
  H   H401      1.0  0.6507993420017592  0.6145118808677135  0.1761288493569346  1.0000
  H   H402      1.0  0.6460224094609813  0.5784893217998541  0.2015677470157306  1.0000
  H   H403      1.0  0.6149701157986701  0.6036657302364118  0.19318152166742747  1.0000
  H   H404      1.0  0.630435427931871  0.6224425091743362  0.10579763843725587  1.0000
  H   H405      1.0  0.6116935057789833  0.5919753884962173  0.0798906806802724  1.0000
  H   H406      1.0  0.5949435685806561  0.6113834395008828  0.12336710737076208  1.0000
  H   H407      1.0  0.6059364657874259  0.5418594041060338  0.11452214136585512  1.0000
  H   H408      1.0  0.5893057924939791  0.5609850317426129  0.1584743065707429  1.0000
  H   H409      1.0  0.6207551842498348  0.5360526468256455  0.16511686257395716  1.0000
  H   H410      1.0  0.6552665954655886  0.5564062238345099  0.0913826640796962  1.0000
  H   H411      1.0  0.6700937290853933  0.5525604908833136  0.14240600540794418  1.0000
  H   H412      1.0  0.6737332521518665  0.5880780465301017  0.11541442571239253  1.0000
  N   N14       1.0  0.8068121082791793  0.15843720812523301  0.35620103385828883  1.0000
  C   C437      1.0  0.8196828528337268  0.147239088968935  0.39548602852140874  1.0000
  C   C438      1.0  0.7743499032482528  0.1576830854931249  0.3584270335569677  1.0000
  C   C439      1.0  0.8172029173049606  0.13858786793997252  0.32183426138718935  1.0000
  C   C440      1.0  0.8160662879820698  0.19026499230771804  0.3489862915538066  1.0000
  H   H413      1.0  0.81147146594863  0.16089473228877985  0.4223474113655512  1.0000
  H   H414      1.0  0.8441153692716004  0.14874826311283068  0.3954205932393875  1.0000
  H   H415      1.0  0.8143380338817527  0.12274940085847112  0.4009840656576178  1.0000
  H   H416      1.0  0.7666885235901015  0.13395692258858963  0.3637193365385581  1.0000
  H   H417      1.0  0.7656871672405114  0.17242042203090827  0.38398862346419593  1.0000
  H   H418      1.0  0.7639066223133923  0.16592490111415034  0.32920944952825243  1.0000
  H   H419      1.0  0.841459286645008  0.13990743689625773  0.31785122594904086  1.0000
  H   H420      1.0  0.8066584003103362  0.1451795137972835  0.29195907913988484  1.0000
  H   H421      1.0  0.8119849622846835  0.11406369314669015  0.32721738485962376  1.0000
  H   H422      1.0  0.840530446495366  0.1915923443235714  0.34736646861282705  1.0000
  H   H423      1.0  0.8084990128260674  0.20592713247025676  0.3742550618805265  1.0000
  H   H424      1.0  0.8068678306013387  0.19927456291842233  0.31939137342646773  1.0000
  N   N15       1.0  0.6109686043056192  0.5835809721092703  0.6932991969785728  1.0000
  C   C441      1.0  0.615308892330636  0.6162324729555084  0.7038076336944944  1.0000
  C   C442      1.0  0.6340628964694884  0.5730836129716983  0.6641390539866652  1.0000
  C   C443      1.0  0.5817011438634662  0.5799552671412729  0.6738511049020358  1.0000
  C   C444      1.0  0.6127967799351955  0.5649460424266766  0.7312474521529926  1.0000
  H   H425      1.0  0.6372220367218364  0.6198345557538351  0.718332905011571  1.0000
  H   H426      1.0  0.5981537545351179  0.6250007427905717  0.7255981326835591  1.0000
  H   H427      1.0  0.6141066312213803  0.6308649723529105  0.6757174123201078  1.0000
  H   H428      1.0  0.6313009582414721  0.5485518793936693  0.6556031232874701  1.0000
  H   H429      1.0  0.6333117255343055  0.5865145793304634  0.6349774274476192  1.0000
  H   H430      1.0  0.6565513657757216  0.5752005158669939  0.6775746797180959  1.0000
  H   H431      1.0  0.578063872447407  0.5556525178692271  0.6646008364750056  1.0000
  H   H432      1.0  0.5793380808041014  0.5942649640072493  0.6455680006058453  1.0000
  H   H433      1.0  0.5635887873619412  0.5868579591864419  0.6953268504381718  1.0000
  H   H434      1.0  0.5950432915044502  0.5715086497875261  0.7534349317375991  1.0000
  H   H435      1.0  0.6344106314347544  0.5674182594965547  0.7471141129611018  1.0000
  H   H436      1.0  0.6103718202744183  0.5401249869437882  0.7240629703251527  1.0000
  N   N16       1.0  0.9625470464774227  0.15765847584346138  0.6471141236943425  1.0000
  C   C445      1.0  0.9363100169434713  0.1418394428840306  0.6311815725071581  1.0000
  C   C446      1.0  0.9886205387707807  0.14801100505768172  0.6227867510801974  1.0000
  C   C447      1.0  0.9673107665633265  0.1495709708796762  0.6909537253851751  1.0000
  C   C448      1.0  0.9579507842922037  0.19122202068860528  0.6434459552607475  1.0000
  H   H437      1.0  0.9160972515635654  0.14915330409360705  0.6482393621590767  1.0000
  H   H438      1.0  0.9388547387945353  0.1164671583008412  0.634198730668491  1.0000
  H   H439      1.0  0.9325534129209846  0.14671926211362774  0.597828250665911  1.0000
  H   H440      1.0  0.0089194754951325  0.1591436500540424  0.6343821238515639  1.0000
  H   H441      1.0  0.9923805994448279  0.12267008440950367  0.6239152656398209  1.0000
  H   H442      1.0  0.9857958464513044  0.15431486342213363  0.5897524758670109  1.0000
  H   H443      1.0  0.9857988939901664  0.1625877447001991  0.7047753674559015  1.0000
  H   H444      1.0  0.9723871067142362  0.12463089840744646  0.6946457173432762  1.0000
  H   H445      1.0  0.9474051312199903  0.15507771664543912  0.7097826487076118  1.0000
  H   H446      1.0  0.9536007075625209  0.19808402662551527  0.6108581840826073  1.0000
  H   H447      1.0  0.9776782800356132  0.20377713702803302  0.6542116343910553  1.0000
  H   H448      1.0  0.9389599545136639  0.19953082118490295  0.6624237280561942  1.0000
  N   N17       1.0  0.6949394554531071  0.293776753124236  0.7575309452861808  1.0000
  C   C449      1.0  0.7077825858783144  0.3101849449969394  0.7223442750775213  1.0000
  C   C450      1.0  0.6958125682904027  0.26045228494741457  0.7490255633238263  1.0000
  C   C451      1.0  0.6640136117241459  0.3041619477242452  0.7633567397924109  1.0000
  C   C452      1.0  0.7121228800825691  0.3001368995879752  0.7954206379563075  1.0000
  H   H449      1.0  0.7073395878263579  0.33548625589703307  0.7276956769739581  1.0000
  H   H450      1.0  0.6951101861690362  0.30607958680531905  0.6933288081705586  1.0000
  H   H451      1.0  0.7310468167927615  0.3028208683618442  0.7168649039850242  1.0000
  H   H452      1.0  0.6828575325802688  0.2547028165733606  0.720808643761855  1.0000
  H   H453      1.0  0.718808980977508  0.2515914834973935  0.744794975453467  1.0000
  H   H454      1.0  0.6862096996316498  0.2475944724697652  0.7750693115415355  1.0000
  H   H455      1.0  0.6534997972100601  0.292064960497683  0.7893894579795813  1.0000
  H   H456      1.0  0.6504643042188711  0.2996286606709531  0.7352501467353456  1.0000
  H   H457      1.0  0.6623867984094304  0.32932735257140733  0.7694935197515509  1.0000
  H   H458      1.0  0.7029958421310937  0.28803125459513074  0.8225392404005492  1.0000
  H   H459      1.0  0.7120994430750718  0.325154330496327  0.8026816187898917  1.0000
  H   H460      1.0  0.7354816684221578  0.2921252897274672  0.7921704728847843  1.0000
  N   N18       1.0  0.05578979674227158  0.00413800411265286  0.8382640847881749  1.0000
  C   C453      1.0  0.047214300418901844  0.9883084747683027  0.8764844789269204  1.0000
  C   C454      1.0  0.06048536744798794  0.9813253080150898  0.8047822052574992  1.0000
  C   C455      1.0  0.08335808690961  0.020840753237866716  0.8456557506852536  1.0000
  C   C456      1.0  0.03210487380999383  0.026130958451360042  0.8260588812125781  1.0000
  H   H461      1.0  0.043296263598817886  0.004939103786983257  0.9022937944624373  1.0000
  H   H462      1.0  0.06462326813056984  0.971603204158942  0.8867506258731626  1.0000
  H   H463      1.0  0.026579889180470495  0.9753230282848452  0.8719723716960188  1.0000
  H   H464      1.0  0.07815678336391763  0.9642097037360061  0.8127671166336125  1.0000
  H   H465      1.0  0.04016440405097388  0.968283495725181  0.7981157726474619  1.0000
  H   H466      1.0  0.06698654399384663  0.9926510900124912  0.7756018847664633  1.0000
  H   H467      1.0  0.10180771847693593  0.0048903965454125675  0.854363130018105  1.0000
  H   H468      1.0  0.08080061221928325  0.03789513259745969  0.8711582683643858  1.0000
  H   H469      1.0  0.0901235451945821  0.033513045898152516  0.817577375049362  1.0000
  H   H470      1.0  0.02779833502548268  0.04361103641924191  0.8505875804292893  1.0000
  H   H471      1.0  0.01102873606597976  0.014346001504187633  0.8198614305486193  1.0000
  H   H472      1.0  0.037896806010701  0.03880514010884739  0.7975817260202204  1.0000
  N   N19       1.0  0.5735284319120462  0.08276840834590349  0.8629290393659936  1.0000
  C   C457      1.0  0.5746815955613186  0.07969589916430597  0.8174572803176633  1.0000
  C   C458      1.0  0.6011992386542558  0.07055698820479472  0.881267089531473  1.0000
  C   C459      1.0  0.5483745750253225  0.0654573206756981  0.8787770963978473  1.0000
  C   C460      1.0  0.5698654310271223  0.11548185384102228  0.8742939709404868  1.0000
  H   H473      1.0  0.5546660695434015  0.08993908698032471  0.8025989446964158  1.0000
  H   H474      1.0  0.5760750817408746  0.05519702731268206  0.8077513308011888  1.0000
  H   H475      1.0  0.5942821147093813  0.09112195274824253  0.8045595464407896  1.0000
  H   H476      1.0  0.60406121618187  0.04551094123209509  0.8752959007386842  1.0000
  H   H477      1.0  0.6207522592908932  0.08233450769679407  0.8688148040911517  1.0000
  H   H478      1.0  0.6017518773549708  0.0740891658091547  0.9152917189892084  1.0000
  H   H479      1.0  0.546746092537156  0.06743560723789055  0.9129384435710327  1.0000
  H   H480      1.0  0.5505630070277416  0.04061041255782549  0.8708894270095453  1.0000
  H   H481      1.0  0.5271411094929865  0.07411790815346975  0.8655771754891589  1.0000
  H   H482      1.0  0.5488644138494084  0.1252911791864375  0.8618197011883357  1.0000
  H   H483      1.0  0.5883124802129267  0.12914859067717144  0.8622093495322148  1.0000
  H   H484      1.0  0.5697166988813614  0.11863504787205859  0.9084827704152896  1.0000
  N   N20       1.0  0.26438201278219464  0.6691250030610874  0.7746180048206328  1.0000
  C   C461      1.0  0.28166798714357877  0.654865252970427  0.7407474134630713  1.0000
  C   C462      1.0  0.26983464731956774  0.702436817348895  0.7761239318849542  1.0000
  C   C463      1.0  0.2731860963142543  0.655047872747393  0.8143672338941146  1.0000
  C   C464      1.0  0.23273608055451195  0.6642360376370089  0.767006833963628  1.0000
  H   H485      1.0  0.2750604822883583  0.6644639978897342  0.7102707563219525  1.0000
  H   H486      1.0  0.2784289347538609  0.6296158418865296  0.7390763797769507  1.0000
  H   H487      1.0  0.30556329236344487  0.658963565494035  0.7446534259124682  1.0000
  H   H488      1.0  0.256833102780526  0.7139250453428122  0.8010889391342539  1.0000
  H   H489      1.0  0.29352261423326714  0.7070289207090531  0.7820059035588769  1.0000
  H   H490      1.0  0.26350011471525003  0.7136471199686532  0.7464295257426578  1.0000
  H   H491      1.0  0.269324398043692  0.6299175227793048  0.8142858866783351  1.0000
  H   H492      1.0  0.2601589087984481  0.6649142944652905  0.8404906086878484  1.0000
  H   H493      1.0  0.29697850366023204  0.6583091873893983  0.8212145566912831  1.0000
  H   H494      1.0  0.2188480393638022  0.6742838813193947  0.7921184288424191  1.0000
  H   H495      1.0  0.22780940037178604  0.6393333690386391  0.7651335774298063  1.0000
  H   H496      1.0  0.22543265558342634  0.6748685725032192  0.7375044259355552  1.0000
  N   N21       1.0  0.6867211738484785  0.07241339204906971  0.07492936337968081  1.0000
  C   C465      1.0  0.6885757379177521  0.06274097526805478  0.1185762297001487  1.0000
  C   C466      1.0  0.6567378689851522  0.08453940985393271  0.06586696235390765  1.0000
  C   C467      1.0  0.6931821440891082  0.0458341275472296  0.0476376312419009  1.0000
  C   C468      1.0  0.7084335664083935  0.09651294180373339  0.06751818332079362  1.0000
  H   H497      1.0  0.7108173344170163  0.052954962981759834  0.12620270887415597  1.0000
  H   H498      1.0  0.6724956149242876  0.044543785106181844  0.12535701339114325  1.0000
  H   H499      1.0  0.6842158548748808  0.082345873548491  0.1400627347869694  1.0000
  H   H500      1.0  0.6544770885111075  0.09139202791105916  0.032884844292101034  1.0000
  H   H501      1.0  0.639812230150585  0.06696179667427127  0.07131823278774929  1.0000
  H   H502      1.0  0.651173177420084  0.10497224544943995  0.08532800790084005  1.0000
  H   H503      1.0  0.6920009875920199  0.05230414899692315  0.014440422932904484  1.0000
  H   H504      1.0  0.6771031796196032  0.027355466311917986  0.052365489718170455  1.0000
  H   H505      1.0  0.7154643879716072  0.03567783043360162  0.05392518085915676  1.0000
  H   H506      1.0  0.7076070463042697  0.10446043109819315  0.0349077148954442  1.0000
  H   H507      1.0  0.7312965196363744  0.08809149667037253  0.07396577536554139  1.0000
  H   H508      1.0  0.7042705917703741  0.11693293985589258  0.08769195347805803  1.0000
  N   N22       1.0  0.10761527187956683  0.059261176271764304  0.23838007410990933  1.0000
  C   C469      1.0  0.13257059192441556  0.0568607981756768  0.20927779875427055  1.0000
  C   C470      1.0  0.11679555564297969  0.07614332754032405  0.27586839469507635  1.0000
  C   C471      1.0  0.09846891173346355  0.02812304703577717  0.24987359542712884  1.0000
  C   C472      1.0  0.08264403649469813  0.07592261214624196  0.2185668493009846  1.0000
  H   H509      1.0  0.1266265365784678  0.04354274154226756  0.18106781259446586  1.0000
  H   H510      1.0  0.1520315174147002  0.044983437703130846  0.22361782238739372  1.0000
  H   H511      1.0  0.13971867191446194  0.07996159774108968  0.19935254252667917  1.0000
  H   H512      1.0  0.1359117787500333  0.06459288538895636  0.29141545603453994  1.0000
  H   H513      1.0  0.12349495771484431  0.09985096208466437  0.26826445664852405  1.0000
  H   H514      1.0  0.09858458934978123  0.07824070627295243  0.29865244553337655  1.0000
  H   H515      1.0  0.0917178873073211  0.01458273431164625  0.22219802224271282  1.0000
  H   H516      1.0  0.07948586990980488  0.028985065796277798  0.27147396979302896  1.0000
  H   H517      1.0  0.11680012849338156  0.015091817358958481  0.26518197670979987  1.0000
  H   H518      1.0  0.06340485596767564  0.07821781632173996  0.23968237770704026  1.0000
  H   H519      1.0  0.07514833465046288  0.06398508293283811  0.1900090826669241  1.0000
  H   H520      1.0  0.0887214712533811  0.0996592750475156  0.20995322276806186  1.0000
  N   N23       1.0  0.03951837868051866  0.2766862494087122  0.46488609437001954  1.0000
  C   C473      1.0  0.06153374088595287  0.29547565114897484  0.44378573297565116  1.0000
  C   C474      1.0  0.027791026158450194  0.29382720546842866  0.500999528087295  1.0000
  C   C475      1.0  0.053632154163478996  0.2476086817162884  0.4786911703024058  1.0000
  C   C476      1.0  0.0151089259515238  0.2698540797307503  0.4360903866358138  1.0000
  H   H521      1.0  0.07083568680469843  0.28344007216848716  0.4162376707374238  1.0000
  H   H522      1.0  0.0801679647530038  0.30109084780685613  0.46486689899367395  1.0000
  H   H523      1.0  0.051735958994695075  0.3178070281745974  0.43341364472892496  1.0000
  H   H524      1.0  0.04537701285130891  0.2984901484132911  0.5241381204776486  1.0000
  H   H525      1.0  0.018041528182716426  0.3164547729861347  0.4918513576002992  1.0000
  H   H526      1.0  0.010315962295520231  0.28095401792992536  0.5168060763014155  1.0000
  H   H527      1.0  0.037383703103908816  0.23240922558070679  0.4932871525576147  1.0000
  H   H528      1.0  0.07132990874475409  0.2517911312059549  0.5018440407129533  1.0000
  H   H529      1.0  0.06351258545707883  0.23453991112271433  0.4523551116887965  1.0000
  H   H530      1.0  0.998066233131183  0.25579392517009  0.45129606743417994  1.0000
  H   H531      1.0  0.023064074890784436  0.25668825975605486  0.4086019915778495  1.0000
  H   H532      1.0  0.003970753940077287  0.29129008800038764  0.425037770853974  1.0000
  N   N24       1.0  0.5421516147671209  0.07062586575184593  0.13031298691612592  1.0000
  C   C477      1.0  0.5496215540893143  0.04447596623431482  0.10275729683187575  1.0000
  C   C478      1.0  0.5195048079086401  0.061232927823942296  0.16004113042989337  1.0000
  C   C479      1.0  0.5306855146391994  0.09665730605084932  0.10546864845430527  1.0000
  C   C480      1.0  0.5688367796335309  0.08008711947825908  0.15297769022016736  1.0000
  H   H533      1.0  0.5668641612021563  0.05060858151156511  0.08017172887375001  1.0000
  H   H534      1.0  0.5300191091860521  0.0368854878550251  0.08493347740668944  1.0000
  H   H535      1.0  0.5579681680250896  0.02426098861123216  0.12046686807597433  1.0000
  H   H536      1.0  0.5132882383315807  0.08037895343611434  0.18140116988644805  1.0000
  H   H537      1.0  0.49912743111555874  0.053827329911139365  0.14384484077465584  1.0000
  H   H538      1.0  0.5275109621223126  0.041603069145558  0.17924464941453946  1.0000
  H   H539      1.0  0.510745932204877  0.09034085962555993  0.08735482019307296  1.0000
  H   H540      1.0  0.5474214083209238  0.10460791125109183  0.08314458852185425  1.0000
  H   H541      1.0  0.524678517766159  0.11676461847502322  0.12529458454213913  1.0000
  H   H542      1.0  0.5862326261709458  0.08761423873341578  0.1313730923087565  1.0000
  H   H543      1.0  0.578164212409529  0.06096570137707813  0.17195113622659988  1.0000
  H   H544      1.0  0.5639570426079706  0.09987261147245596  0.17399323235647438  1.0000
  N   N25       1.0  0.16324491578023814  0.22625965853103971  0.6952619286436912  1.0000
  C   C481      1.0  0.15016328142792126  0.24044268555966292  0.7326477803426954  1.0000
  C   C482      1.0  0.1582180501035429  0.24683553673931735  0.6596729524040813  1.0000
  C   C483      1.0  0.14923776987870785  0.19649247009450713  0.6870473288577333  1.0000
  C   C484      1.0  0.19527538330685412  0.22140445521840746  0.7016850714875699  1.0000
  H   H545      1.0  0.15931190624683336  0.26351828591544535  0.738689265904474  1.0000
  H   H546      1.0  0.15472312410111436  0.22639776935480546  0.7605532148357876  1.0000
  H   H547      1.0  0.12582376223233327  0.24318960557836797  0.7295161791192878  1.0000
  H   H548      1.0  0.16742408280145177  0.23666791488202651  0.630765224334861  1.0000
  H   H549      1.0  0.1342752356544577  0.2513421823235488  0.6542929678029917  1.0000
  H   H550      1.0  0.16859224421358185  0.26948561670397697  0.6647674207523097  1.0000
  H   H551      1.0  0.15932293532802608  0.18444771176116806  0.6600045775942468  1.0000
  H   H552      1.0  0.12521717500123428  0.19950069353918692  0.6806222066374548  1.0000
  H   H553      1.0  0.15167075887953385  0.18081967369602123  0.7138778556044987  1.0000
  H   H554      1.0  0.20637871586682036  0.24331265416623277  0.7092891357928471  1.0000
  H   H555      1.0  0.20599142290879344  0.21113467843541694  0.6738666803889845  1.0000
  H   H556      1.0  0.1999495034272504  0.20554845747193592  0.7277325689325674  1.0000
  N   N26       1.0  0.06711140646336577  0.6387031363279222  0.6268991768977759  1.0000
  C   C485      1.0  0.04620117884584074  0.6189445285518148  0.6484980028958378  1.0000
  C   C486      1.0  0.09563294727685588  0.6220759792901097  0.6223398203750767  1.0000
  C   C487      1.0  0.0713589440382445  0.6671523176024194  0.6511559092735464  1.0000
  C   C488      1.0  0.05525790532436914  0.646562437918802  0.5856013307610182  1.0000
  H   H557      1.0  0.05482231954990092  0.6120400129415144  0.6793767947592743  1.0000
  H   H558      1.0  0.042105158872286046  0.5975630024660005  0.6306659842036499  1.0000
  H   H559      1.0  0.02455510520615189  0.6308552482940476  0.6533422059061968  1.0000
  H   H560      1.0  0.11197652356208346  0.6364265356292027  0.606462461568265  1.0000
  H   H561      1.0  0.10514591395074413  0.6156594718740348  0.6529220650933285  1.0000
  H   H562      1.0  0.09324350891347968  0.6006093768125043  0.6039222269529991  1.0000
  H   H563      1.0  0.08113049757971225  0.6621640770660422  0.6820626791806395  1.0000
  H   H564      1.0  0.05016349423694378  0.6798571076513859  0.6562383440576937  1.0000
  H   H565      1.0  0.08631218644640813  0.6830314160675832  0.6350809065191358  1.0000
  H   H566      1.0  0.07039013371919589  0.6617831107270022  0.5686831355862332  1.0000
  H   H567      1.0  0.03361772640476612  0.6589129428865228  0.5878455181839715  1.0000
  H   H568      1.0  0.05219639653396358  0.6256589814393303  0.5661882700693086  1.0000
  N   N27       1.0  0.07856692598198545  0.17486913087364694  0.8445701615028395  1.0000
  C   C489      1.0  0.10899135195523271  0.17856500210328893  0.8298357921875271  1.0000
  C   C490      1.0  0.059692055046543846  0.1651983983913577  0.8096901053356802  1.0000
  C   C491      1.0  0.06741354456262716  0.20440097205755417  0.861748129194205  1.0000
  C   C492      1.0  0.07829471351086137  0.15118670901294232  0.8770251350136141  1.0000
  H   H569      1.0  0.11011352028109572  0.19638185103600977  0.8054934362181677  1.0000
  H   H570      1.0  0.11807160570637229  0.15661192060923507  0.8168649834645003  1.0000
  H   H571      1.0  0.12393729400487546  0.1853851466134823  0.8555409098500208  1.0000
  H   H572      1.0  0.05858081373575153  0.18286561580642138  0.7850233461505661  1.0000
  H   H573      1.0  0.06796267325876393  0.1432738487428161  0.795613523367628  1.0000
  H   H574      1.0  0.036799711686994474  0.16103571704522732  0.8200005592954552  1.0000
  H   H575      1.0  0.04444584967981169  0.20247199789669482  0.8729647208582336  1.0000
  H   H576      1.0  0.06756837985510566  0.22296002537357937  0.8382641874917525  1.0000
  H   H577      1.0  0.08102083147874284  0.2119856067055591  0.88850332576208  1.0000
  H   H578      1.0  0.08672087555353288  0.12862382341963735  0.8652140113762689  1.0000
  H   H579      1.0  0.05561821734807548  0.14769249289633193  0.8886497160010483  1.0000
  H   H580      1.0  0.09237366730191092  0.15756553530364145  0.9038986344797177  1.0000
  N   N28       1.0  0.5676994396990526  0.21815990136304828  0.8565673263264473  1.0000
  C   C493      1.0  0.5706560342489518  0.19697075545128911  0.8209602235595376  1.0000
  C   C494      1.0  0.5796640324378299  0.20322012038954432  0.8941493135877956  1.0000
  C   C495      1.0  0.5362425254069694  0.22609375788276617  0.8626602507764248  1.0000
  C   C496      1.0  0.5841669473129318  0.24635691102785912  0.8483947468161275  1.0000
  H   H581      1.0  0.5622602470128284  0.20773489115944677  0.7919505648142222  1.0000
  H   H582      1.0  0.558084538913607  0.17567002755940758  0.8256150187861495  1.0000
  H   H583      1.0  0.5940435280838544  0.1903487150284391  0.8156539363284853  1.0000
  H   H584      1.0  0.5779581327955476  0.2187699303851806  0.9214863441094103  1.0000
  H   H585      1.0  0.5674423862129978  0.18219443368883434  0.9018385390261994  1.0000
  H   H586      1.0  0.6033025537479247  0.19641746196539664  0.8905248693204142  1.0000
  H   H587      1.0  0.5329140036648322  0.24168452556732298  0.88970416662825  1.0000
  H   H588      1.0  0.523334394522368  0.20515012357507223  0.8682575837438814  1.0000
  H   H589      1.0  0.5265149816219853  0.2375697041043123  0.8350161042394336  1.0000
  H   H590      1.0  0.5818405752375235  0.26316537458528544  0.8742606457862814  1.0000
  H   H591      1.0  0.5762647142089259  0.25776648555601295  0.8195712180488366  1.0000
  H   H592      1.0  0.6080819514183302  0.24112069905169772  0.8442570690601005  1.0000
  N   N29       1.0  0.47680663543410506  0.7513579768581725  0.6966514075307323  1.0000
  C   C497      1.0  0.4998938240640459  0.7659519477996154  0.7219108055842389  1.0000
  C   C498      1.0  0.4479707723531848  0.7560712271310824  0.7169498578976764  1.0000
  C   C499      1.0  0.48340619008347047  0.7181038076299777  0.6927201554153789  1.0000
  C   C500      1.0  0.47599759773905415  0.7652770840871128  0.6551302943726872  1.0000
  H   H593      1.0  0.49588663870966077  0.7911582258580367  0.7251008111651818  1.0000
  H   H594      1.0  0.5220426767124022  0.7623654168549014  0.7080176823122039  1.0000
  H   H595      1.0  0.500941658975621  0.7562427397683029  0.7536235010629447  1.0000
  H   H596      1.0  0.42996790519180644  0.7453001358503518  0.6988831240449189  1.0000
  H   H597      1.0  0.44800828065524084  0.745740995878184  0.7483751101580242  1.0000
  H   H598      1.0  0.4423716036259573  0.7809552960267041  0.7205187906201931  1.0000
  H   H599      1.0  0.4842266197335156  0.7068671385456612  0.7235103056749624  1.0000
  H   H600      1.0  0.5051400251078096  0.7137104890811481  0.6777445974194918  1.0000
  H   H601      1.0  0.46648127414597024  0.7062729488529669  0.6738651611525226  1.0000
  H   H602      1.0  0.4584390260989506  0.7553150321936088  0.6354235597897174  1.0000
  H   H603      1.0  0.49726145695365515  0.7614381210228874  0.6386780463217084  1.0000
  H   H604      1.0  0.4719157837972569  0.7905574038751257  0.6568295907083326  1.0000
  N   N30       1.0  0.15345638677062534  0.5220689096482247  0.5933217864408116  1.0000
  C   C501      1.0  0.14383774699355867  0.5448643161535356  0.5621937308012848  1.0000
  C   C502      1.0  0.1488214826029682  0.5349447291352577  0.6352377081178109  1.0000
  C   C503      1.0  0.18507883958127558  0.5146786675012477  0.5874148907997152  1.0000
  C   C504      1.0  0.13625925450209975  0.4938295013105806  0.5882414360045486  1.0000
  H   H605      1.0  0.14668886325469  0.5357969993958419  0.5301382674778052  1.0000
  H   H606      1.0  0.15663794967489822  0.5662876778910252  0.564677333225766  1.0000
  H   H607      1.0  0.1201601579564087  0.5511943774532656  0.5653352053977726  1.0000
  H   H608      1.0  0.15662143588603517  0.5186375612134003  0.659482676678665  1.0000
  H   H609      1.0  0.1612878742012446  0.5564376700890872  0.6398918024981198  1.0000
  H   H610      1.0  0.12513776290320885  0.5403429597760259  0.6411682108818878  1.0000
  H   H611      1.0  0.1933231726083379  0.4977383227306716  0.6105915316284104  1.0000
  H   H612      1.0  0.19869129711839573  0.5355065119075005  0.5910049904928892  1.0000
  H   H613      1.0  0.18935532092108348  0.5049514671366178  0.5560876336753355  1.0000
  H   H614      1.0  0.1433935401163205  0.4758285515291627  0.6105985782244029  1.0000
  H   H615      1.0  0.13862251535821293  0.48404978720067426  0.5565012612950533  1.0000
  H   H616      1.0  0.11231805018956885  0.4984463542087542  0.5929162469560149  1.0000
  N   N31       1.0  0.393534943416646  0.13171414170465412  0.7770940248917347  1.0000
  C   C505      1.0  0.4056733710714562  0.13758525413348655  0.8187225492508639  1.0000
  C   C506      1.0  0.3617840522338973  0.12536988069201271  0.7802984697826543  1.0000
  C   C507      1.0  0.40908963351876254  0.10493363273018952  0.7584032351734757  1.0000
  C   C508      1.0  0.3976697655599667  0.15906006782445647  0.7511668457300603  1.0000
  H   H617      1.0  0.4296314036753012  0.14245070033576734  0.8175291143267425  1.0000
  H   H618      1.0  0.4028123467838847  0.11748597957984352  0.8392810645455128  1.0000
  H   H619      1.0  0.3944914122931566  0.15768231350881523  0.8338657477191951  1.0000
  H   H620      1.0  0.3517380375030135  0.12061989518507965  0.7496003813787855  1.0000
  H   H621      1.0  0.35784474904027913  0.10509772384341187  0.8002010440790892  1.0000
  H   H622      1.0  0.3493867719674367  0.14515852630683912  0.7942341057369159  1.0000
  H   H623      1.0  0.400006991369721  0.099201446768165  0.7274044631836294  1.0000
  H   H624      1.0  0.40729678972421507  0.08412414747925023  0.7779985667208604  1.0000
  H   H625      1.0  0.4329787014829677  0.10929767548479008  0.7545551927882984  1.0000
  H   H626      1.0  0.3888397465944652  0.15551056933853724  0.7194217644258346  1.0000
  H   H627      1.0  0.42144956166758035  0.1645663620886566  0.7485286672935396  1.0000
  H   H628      1.0  0.3861895794629529  0.1796383847991876  0.7646163589379518  1.0000
  N   N32       1.0  0.2233271910327965  0.6841303688089961  0.21335167897040874  1.0000
  C   C509      1.0  0.23753469908398325  0.7031945701522095  0.18188545945750964  1.0000
  C   C510      1.0  0.22325014181501465  0.6518371758778277  0.1990053771519498  1.0000
  C   C511      1.0  0.19269446333234128  0.6952299821455494  0.2197645616995827  1.0000
  C   C512      1.0  0.23985071640708977  0.686255240916629  0.25266158627333113  1.0000
  H   H629      1.0  0.23786351105282033  0.7277485359063047  0.19154805296545474  1.0000
  H   H630      1.0  0.22565187975402018  0.7019371344820702  0.1517265093611748  1.0000
  H   H631      1.0  0.2607610869685794  0.6954661770766677  0.1765029020124633  1.0000
  H   H632      1.0  0.21099313994855035  0.6494688297993142  0.16928579587412312  1.0000
  H   H633      1.0  0.24605227100437074  0.642570253861718  0.19435625275193724  1.0000
  H   H634      1.0  0.2124469729754819  0.636769819269106  0.22172933857012847  1.0000
  H   H635      1.0  0.18084954578265755  0.6804506887056887  0.241923392833656  1.0000
  H   H636      1.0  0.1800126270024632  0.695248204904733  0.19027455041438177  1.0000
  H   H637      1.0  0.1918899484998982  0.719063858785011  0.23228456539300876  1.0000
  H   H638      1.0  0.24045360502018784  0.7102544054523889  0.2645288568705607  1.0000
  H   H639      1.0  0.2630927236218675  0.6780143259301531  0.24906502104277264  1.0000
  H   H640      1.0  0.2296440457993465  0.6722200095646608  0.27713811230208585  1.0000
  N   N33       1.0  0.9155392542545489  0.5144520547701744  0.029481426301761315  1.0000
  C   C513      1.0  0.8895119120822573  0.5344641639490612  0.03754997815282035  1.0000
  C   C514      1.0  0.9328891351822778  0.5275039093939696  0.9955922652937158  1.0000
  C   C515      1.0  0.9056751877888833  0.48348627092983076  0.01760473040531041  1.0000
  C   C516      1.0  0.933989677413072  0.5124061290432217  0.06712240175802986  1.0000
  H   H641      1.0  0.8759124883523811  0.5253963502321687  0.06306766071217185  1.0000
  H   H642      1.0  0.87516390668492  0.5361465751280046  0.00965565577231331  1.0000
  H   H643      1.0  0.8960572767376056  0.5581339673489417  0.04625620851565637  1.0000
  H   H644      1.0  0.9529368425597156  0.5132092799987561  0.9891474523206495  1.0000
  H   H645      1.0  0.919822308646349  0.5286879188537675  0.9664782474925591  1.0000
  H   H646      1.0  0.9400233265639789  0.5511758918678866  0.0032783749379632354  1.0000
  H   H647      1.0  0.9247017870213934  0.4676258181538727  0.011539271513220983  1.0000
  H   H648      1.0  0.8919712471187886  0.4842001747329856  0.9889380398433255  1.0000
  H   H649      1.0  0.8923513886472724  0.4731060480831893  0.042455960279024874  1.0000
  H   H650      1.0  0.9533258738072696  0.49660128929607894  0.06245260143209719  1.0000
  H   H651      1.0  0.9212476664947712  0.5037540828172316  0.09373004628310144  1.0000
  H   H652      1.0  0.9425729540032948  0.535205899143935  0.07618812859573176  1.0000
  N   N34       1.0  0.11175076049812116  0.45808927888863293  0.7824912727515578  1.0000
  C   C517      1.0  0.09972628170312081  0.45067315453528867  0.8235073370513597  1.0000
  C   C518      1.0  0.08813613659238584  0.4561344069116373  0.7511855123469924  1.0000
  C   C519      1.0  0.13570552459931107  0.4359558578789502  0.7719322299040465  1.0000
  C   C520      1.0  0.12325278784468074  0.4895843590841231  0.7832243422871153  1.0000
  H   H653      1.0  0.09054786713422103  0.4271784138542764  0.823825597570401  1.0000
  H   H654      1.0  0.08151599148574595  0.46690044874982484  0.8323285525752888  1.0000
  H   H655      1.0  0.11703661124657816  0.4518002724863397  0.8479173204900416  1.0000
  H   H656      1.0  0.09642047615078542  0.46104035203351423  0.719666337866513  1.0000
  H   H657      1.0  0.07852340527555013  0.43283061171624104  0.7503292106037215  1.0000
  H   H658      1.0  0.06997444212393855  0.47277097136624907  0.7581503953112116  1.0000
  H   H659      1.0  0.14511905187605478  0.44077304452273647  0.741024151331298  1.0000
  H   H660      1.0  0.12763916228672478  0.4120048893499388  0.770911078543741  1.0000
  H   H661      1.0  0.15401845463516461  0.43677458730400937  0.7948489444772395  1.0000
  H   H662      1.0  0.13258067214393643  0.4959633453935425  0.7528122424844735  1.0000
  H   H663      1.0  0.14098781672634497  0.49197738905654625  0.8067324970630158  1.0000
  H   H664      1.0  0.10567949911134589  0.5069170794489845  0.7907070568498585  1.0000
  N   N35       1.0  0.01508166891882845  0.32130937857312064  0.9046675696779056  1.0000
  C   C521      1.0  0.9944938447542617  0.3190194632732134  0.9396626942048967  1.0000
  C   C522      1.0  0.042456388198930384  0.3359143169039145  0.9189278875813162  1.0000
  C   C523      1.0  0.0011940729944366346  0.33996519332582426  0.8716207222786134  1.0000
  C   C524      1.0  0.02214369792118087  0.2902377894456157  0.8884657101475572  1.0000
  H   H665      1.0  0.9886384897581929  0.3420458555446649  0.9526903643689297  1.0000
  H   H666      1.0  0.004223018594929906  0.30491115667398433  0.9650604116880401  1.0000
  H   H667      1.0  0.9736861980400641  0.3078463953807274  0.9300213272583702  1.0000
  H   H668      1.0  0.058309535430626  0.33851403979411365  0.8931543514246916  1.0000
  H   H669      1.0  0.03796572864133352  0.3591153987009742  0.9322823131353182  1.0000
  H   H670      1.0  0.05377008261518723  0.3220637895283124  0.9433294859307187  1.0000
  H   H671      1.0  0.9947036265381851  0.36329280194627717  0.8828790983064128  1.0000
  H   H672      1.0  0.9809526997312572  0.32910797437994377  0.8593098222367926  1.0000
  H   H673      1.0  0.016276791934926482  0.3427966102079246  0.845007475929554  1.0000
  H   H674      1.0  0.03779427099542887  0.29111685388985215  0.8622645117160209  1.0000
  H   H675      1.0  0.0019751754931038867  0.2785688267323226  0.8772709064330118  1.0000
  H   H676      1.0  0.03237861570895095  0.27541271450194565  0.9127066524640064  1.0000
  N   N36       1.0  0.8294863975490487  0.5319496583452175  0.7828314876005775  1.0000
  C   C525      1.0  0.830791405476384  0.5607515850663866  0.7590698983079328  1.0000
  C   C526      1.0  0.8181796896964704  0.5387555097532853  0.8247050685345797  1.0000
  C   C527      1.0  0.8593481540213217  0.517974015693094  0.7860741005297659  1.0000
  C   C528      1.0  0.8096561195690805  0.5104321842360046  0.7615385309022853  1.0000
  H   H677      1.0  0.8085812666893942  0.5718846681961204  0.755974849209534  1.0000
  H   H678      1.0  0.8393024415320157  0.5564825432016915  0.7273026677656156  1.0000
  H   H679      1.0  0.8455074849348636  0.5775841756625247  0.7743560158349709  1.0000
  H   H680      1.0  0.816741030347279  0.5175341158347396  0.8435638674544614  1.0000
  H   H681      1.0  0.8328849072839746  0.5546025253421123  0.8417988814745136  1.0000
  H   H682      1.0  0.7957550113871141  0.549564318825954  0.8235581644742548  1.0000
  H   H683      1.0  0.859415891711141  0.49693930940128966  0.8054683734853303  1.0000
  H   H684      1.0  0.8750377554554266  0.5342048742084172  0.8004926625187325  1.0000
  H   H685      1.0  0.8682615919192583  0.5114927743612528  0.7552019527204654  1.0000
  H   H686      1.0  0.8072114273469374  0.48879903158465  0.7792454703653529  1.0000
  H   H687      1.0  0.817832372166143  0.5040613068859482  0.7302399268745654  1.0000
  H   H688      1.0  0.7871774576422484  0.5206842015346542  0.7574237261097616  1.0000
  N   N37       1.0  0.6770154281208135  0.7131629263107231  0.42072576219411745  1.0000
  C   C529      1.0  0.7092735065765076  0.7090307899533881  0.4169362197594305  1.0000
  C   C530      1.0  0.6697379603487752  0.7455273794688171  0.43110766882074236  1.0000
  C   C531      1.0  0.6662068529487927  0.6930877346398976  0.45371308753462786  1.0000
  C   C532      1.0  0.6627685370560519  0.7048662320319018  0.3811866833073098  1.0000
  H   H689      1.0  0.715309380435823  0.6851372068169771  0.40741175794405265  1.0000
  H   H690      1.0  0.7206607085280483  0.7135901887487985  0.4467820569013613  1.0000
  H   H691      1.0  0.7185665176927915  0.7248110885309605  0.3937413535119865  1.0000
  H   H692      1.0  0.6456003777196497  0.7491941878385354  0.4356554013635641  1.0000
  H   H693      1.0  0.6809282866357923  0.7527395437649144  0.4601100851877075  1.0000
  H   H694      1.0  0.6769111642421531  0.7613344276044993  0.4064503188159555  1.0000
  H   H695      1.0  0.6417536720391706  0.6939493731684457  0.4553851996599025  1.0000
  H   H696      1.0  0.675175866565496  0.6998055499219029  0.48445712074124664  1.0000
  H   H697      1.0  0.6729161564429266  0.6687380191113529  0.44840004769016284  1.0000
  H   H698      1.0  0.6384459061601429  0.7085541417430078  0.3827651948045411  1.0000
  H   H699      1.0  0.6672677933653369  0.6802780475481003  0.37318312543729665  1.0000
  H   H700      1.0  0.6710532187478043  0.7189858183989443  0.3553667146047491  1.0000
  N   N38       1.0  0.7986431628443572  0.21581185811131465  0.9909863127281864  1.0000
  C   C533      1.0  0.8071608728060473  0.2478037946974596  0.9994208864108285  1.0000
  C   C534      1.0  0.7831122474136686  0.20360020092385778  0.027168384254329547  1.0000
  C   C535      1.0  0.8253236030846854  0.1967700873512077  0.9827302184400545  1.0000
  C   C536      1.0  0.7789589534260828  0.21509448946664267  0.9545223731202778  1.0000
  H   H701      1.0  0.8221168792868715  0.24919696410341285  0.026685880470822765  1.0000
  H   H702      1.0  0.7874960098886238  0.2627635511671622  0.005843818999076822  1.0000
  H   H703      1.0  0.8188528355291849  0.2576819367443024  0.9725829519667976  1.0000
  H   H704      1.0  0.7971281763210143  0.2039566167114768  0.05543414398130109  1.0000
  H   H705      1.0  0.7626422223639879  0.21721301194164244  0.03403114652786399  1.0000
  H   H706      1.0  0.776456168206948  0.17941058562347867  0.021995039867712896  1.0000
  H   H707      1.0  0.8197184647923017  0.17252495429562242  0.9755379862115172  1.0000
  H   H708      1.0  0.8406591199686657  0.19640066247201204  0.009609470511570573  1.0000
  H   H709      1.0  0.837705900740337  0.20542348521476805  0.9557159857470247  1.0000
  H   H710      1.0  0.7723610697110977  0.19125334773730285  0.9470931530146516  1.0000
  H   H711      1.0  0.7899344124587567  0.22417223681444542  0.9265806837756829  1.0000
  H   H712      1.0  0.758388703086509  0.22892005950043703  0.9596287871442767  1.0000
  N   N39       1.0  0.807919241002761  0.5122311242072551  0.23592479709716774  1.0000
  C   C537      1.0  0.7789937127748285  0.4976353588655506  0.23119900533067234  1.0000
  C   C538      1.0  0.8315497280475974  0.4883623329257137  0.23450898624227234  1.0000
  C   C539      1.0  0.8090108448883915  0.5287562491841626  0.2759394939858286  1.0000
  C   C540      1.0  0.8121530657541569  0.5342172190981278  0.20202802385475493  1.0000
  H   H713      1.0  0.7605681533370032  0.5148811211671669  0.23310506346887272  1.0000
  H   H714      1.0  0.7752653049291669  0.4805724774228742  0.25598104623977647  1.0000
  H   H715      1.0  0.777074194664684  0.48541311209807103  0.20102742658576508  1.0000
  H   H716      1.0  0.8537208542007527  0.4984555969151547  0.23826933781333348  1.0000
  H   H717      1.0  0.8289657364461873  0.47114847112636943  0.2593816793562967  1.0000
  H   H718      1.0  0.8316579053129209  0.4758239712271282  0.2043933329516855  1.0000
  H   H719      1.0  0.8305564485351464  0.540068968824265  0.2806322483897499  1.0000
  H   H720      1.0  0.805548310857927  0.5129887913927317  0.302285410755212  1.0000
  H   H721      1.0  0.7915959602578756  0.5471296582194192  0.2777450457994495  1.0000
  H   H722      1.0  0.8109620111663255  0.5228340360917473  0.17115946225324527  1.0000
  H   H723      1.0  0.8339561394294336  0.5451123410805784  0.20451485508768835  1.0000
  H   H724      1.0  0.7952555542801067  0.5531203053864836  0.2027356018862947  1.0000
  N   N40       1.0  0.7122946123625686  0.6710945261562593  0.9150615416066362  1.0000
  C   C541      1.0  0.7405126069092455  0.6592611623800979  0.8980729576865714  1.0000
  C   C542      1.0  0.687805704784014  0.6623784973316973  0.8874302292208273  1.0000
  C   C543      1.0  0.7132692977164636  0.704895185107758  0.9188036653497651  1.0000
  C   C544      1.0  0.707576967638924  0.6577378172065251  0.9562079037380279  1.0000
  H   H725      1.0  0.7594587348386785  0.6657553772190581  0.9180348236029444  1.0000
  H   H726      1.0  0.7446199369303782  0.6684284485137385  0.8666997287517113  1.0000
  H   H727      1.0  0.7408511098858515  0.6337886087824842  0.8957268525799736  1.0000
  H   H728      1.0  0.6661302352183559  0.6701429912770215  0.9002354500403401  1.0000
  H   H729      1.0  0.6901363374101185  0.6725357668411345  0.8562227114597298  1.0000
  H   H730      1.0  0.686988607232066  0.6369482997421064  0.8836182336041194  1.0000
  H   H731      1.0  0.6922307657850828  0.7147137432617846  0.9310902766734066  1.0000
  H   H732      1.0  0.7173672648010868  0.7157793521874795  0.8884432420640485  1.0000
  H   H733      1.0  0.7311425596263428  0.71200612649669  0.9402827875781996  1.0000
  H   H734      1.0  0.7046316863529309  0.6324313794561041  0.9542921473645041  1.0000
  H   H735      1.0  0.687697240462229  0.6678657650160184  0.9712606692425482  1.0000
  H   H736      1.0  0.7263885090843626  0.6620285301483284  0.9771247531364773  1.0000
  N   N41       1.0  0.20596041839483115  0.026074515314422175  0.715269517582525  1.0000
  C   C545      1.0  0.18545502015090923  0.03708704675765162  0.7476976485046748  1.0000
  C   C546      1.0  0.1950805423586971  0.036350700331575725  0.6744125662139926  1.0000
  C   C547      1.0  0.20789278563667782  0.9921703323761144  0.7159178794603861  1.0000
  C   C548      1.0  0.2354182170329935  0.03880331325353059  0.7230458473941279  1.0000
  H   H737      1.0  0.16260101771965002  0.029324327699191022  0.7418012737977969  1.0000
  H   H738      1.0  0.18458456581838095  0.06254278746812814  0.7490704358170407  1.0000
  H   H739      1.0  0.19234912671348758  0.028863630425673303  0.7788274897596565  1.0000
  H   H740      1.0  0.2090042271388853  0.02689481947479133  0.648933062865974  1.0000
  H   H741      1.0  0.17217452996937813  0.0287243875699692  0.6684459165739914  1.0000
  H   H742      1.0  0.19503921859482992  0.06178402132134653  0.6719311216210117  1.0000
  H   H743      1.0  0.22274423809606034  0.9830232575824176  0.6912597899485488  1.0000
  H   H744      1.0  0.1859764688959858  0.9819378803277141  0.710320234820776  1.0000
  H   H745      1.0  0.21628090977899703  0.9835260262496038  0.7461156790612875  1.0000
  H   H746      1.0  0.23464195862024054  0.06441072674393844  0.7224801123209745  1.0000
  H   H747      1.0  0.2514970025390248  0.030882009488424567  0.6992238433723297  1.0000
  H   H748      1.0  0.24420779954217364  0.03184745603178607  0.7538491404328622  1.0000
  N   N42       1.0  0.6821924410832263  0.8372219841335181  0.08636023774780988  1.0000
  C   C549      1.0  0.6877716688281138  0.8265415772405614  0.04362511636496125  1.0000
  C   C550      1.0  0.6929732182565308  0.8136608912508272  0.11572245891307675  1.0000
  C   C551      1.0  0.650212257846573  0.8424108398910763  0.0921794206030846  1.0000
  C   C552      1.0  0.6977469288581489  0.8662477611922809  0.09379825975906275  1.0000
  H   H749      1.0  0.7115424800739701  0.8210542101091212  0.03857415061378311  1.0000
  H   H750      1.0  0.680914625446568  0.844241453339164  0.02067948727080471  1.0000
  H   H751      1.0  0.6754508185048013  0.8053063431360379  0.03639886381706137  1.0000
  H   H752      1.0  0.6896705777976854  0.8211497114729718  0.14831124116761596  1.0000
  H   H753      1.0  0.6812739054949519  0.7916679310327553  0.11122355533534245  1.0000
  H   H754      1.0  0.716878341933317  0.8084206714540996  0.11135969166409332  1.0000
  H   H755      1.0  0.6376107374531423  0.8212857746663343  0.08523851676535377  1.0000
  H   H756      1.0  0.6416285681858979  0.8606837699120605  0.07133267013523081  1.0000
  H   H757      1.0  0.6449965208009966  0.8497172081013237  0.12435556976106765  1.0000
  H   H758      1.0  0.7219792965134992  0.8630660764502877  0.0900586612020331  1.0000
  H   H759      1.0  0.6936897553732869  0.8753412563129651  0.1255382577062647  1.0000
  H   H760      1.0  0.6903430342830734  0.8843761867893958  0.0716810390627407  1.0000
  N   N43       1.0  0.9245625057780593  0.9914981456034089  0.4939148180177822  1.0000
  C   C553      1.0  0.9566549991045884  0.9865751649125045  0.4892526630257762  1.0000
  C   C554      1.0  0.91177343822972  0.964394973892101  0.5137122397357312  1.0000
  C   C555      1.0  0.9109421812765317  0.9960559923469282  0.4528065620524907  1.0000
  C   C556      1.0  0.9188470452827969  0.018973091607445758  0.51993804358717  1.0000
  H   H761      1.0  0.9675252779985118  0.9826461400765385  0.5197127947987059  1.0000
  H   H762      1.0  0.9670184014277164  0.006845454218478375  0.47499069203825334  1.0000
  H   H763      1.0  0.9618756134299123  0.9662252835104811  0.4694734738732907  1.0000
  H   H764      1.0  0.9215134951764083  0.9603953601054125  0.544914530608675  1.0000
  H   H765      1.0  0.8874904552575799  0.9673629849616361  0.5174972292637536  1.0000
  H   H766      1.0  0.9157108799863201  0.943223153028115  0.4949334711003718  1.0000
  H   H767      1.0  0.9190944275044761  0.017083864497303702  0.43757002829000563  1.0000
  H   H768      1.0  0.8866180710895996  0.9986870120756313  0.45520404743797127  1.0000
  H   H769      1.0  0.915457232473556  0.9762194543378527  0.43181403593297324  1.0000
  H   H770      1.0  0.9294903976908054  0.016734667487109833  0.550851026418529  1.0000
  H   H771      1.0  0.8948513257374618  0.02292538197474525  0.5250245434598731  1.0000
  H   H772      1.0  0.9275681306302184  0.0400715510303804  0.5055122044226361  1.0000
  N   N44       1.0  0.6325674982316197  0.5382874233183251  0.8984674772479693  1.0000
  C   C557      1.0  0.6206318244344791  0.507934770896632  0.9084581671719322  1.0000
  C   C558      1.0  0.6494284444164922  0.5500657587988208  0.9342026783946109  1.0000
  C   C559      1.0  0.6080670920994088  0.5599450885180002  0.8885716630139497  1.0000
  C   C560      1.0  0.6522426581694539  0.535198064713204  0.8624453659654638  1.0000
  H   H773      1.0  0.6385968959955272  0.4909305946565444  0.9154434105711796  1.0000
  H   H774      1.0  0.6076887165353883  0.4985163615262054  0.8821029791643789  1.0000
  H   H775      1.0  0.6058244372384408  0.5092733555812722  0.9357200247450169  1.0000
  H   H776      1.0  0.6588654237617241  0.5729143931173455  0.9275919058440647  1.0000
  H   H777      1.0  0.6353134968035405  0.5528725459850031  0.9619997423745998  1.0000
  H   H778      1.0  0.6682805673249489  0.5344164102462257  0.9422678330044384  1.0000
  H   H779      1.0  0.5961634672444611  0.5528306493895783  0.8600857371389911  1.0000
  H   H780      1.0  0.6161011034041216  0.5836011680317738  0.8836550904421073  1.0000
  H   H781      1.0  0.5916553195900738  0.5612332904320562  0.9139289845987189  1.0000
  H   H782      1.0  0.661458348681498  0.5577260631861097  0.8540248819428705  1.0000
  H   H783      1.0  0.6404915976313033  0.5259853747391319  0.8349246407398546  1.0000
  H   H784      1.0  0.6711469460866851  0.5191954955178429  0.8689024972064098  1.0000
  N   N45       1.0  0.09442620409991631  0.8691336971703956  0.12667771324580332  1.0000
  C   C561      1.0  0.12340882672563107  0.8798310343384675  0.11282725735950772  1.0000
  C   C562      1.0  0.09352295468022151  0.8693988492996297  0.17229949949194326  1.0000
  C   C563      1.0  0.08980144834371251  0.8376495288528968  0.1109592096481741  1.0000
  C   C564      1.0  0.07095493744604564  0.8898404317297317  0.11054130543073445  1.0000
  H   H785      1.0  0.12485329440093303  0.8798279045472512  0.07850217874776066  1.0000
  H   H786      1.0  0.14169787797314384  0.8648674598522806  0.12457277439118461  1.0000
  H   H787      1.0  0.12748913656586303  0.9036741740076247  0.12383488867562371  1.0000
  H   H788      1.0  0.1108989003010041  0.8540029013568404  0.18565698020570137  1.0000
  H   H789      1.0  0.0970875327384147  0.8929664983392301  0.18484462147965125  1.0000
  H   H790      1.0  0.07182650171929496  0.8617716352056498  0.1838010451064319  1.0000
  H   H791      1.0  0.0680426587399443  0.8288391733338752  0.12048994135496222  1.0000
  H   H792      1.0  0.10717157088916832  0.821321171203881  0.12221815769768384  1.0000
  H   H793      1.0  0.09034678207450639  0.8369187477679413  0.07660924224762279  1.0000
  H   H794      1.0  0.07161595302465718  0.8911332632435345  0.07630379089397345  1.0000
  H   H795      1.0  0.0732559252091143  0.9135960881438279  0.12274636818923003  1.0000
  H   H796      1.0  0.04864866881173935  0.8819996848095294  0.11905994519140119  1.0000
  N   N46       1.0  0.39363961855025836  0.08807616837966625  0.4188860392272754  1.0000
  C   C565      1.0  0.36242074480430686  0.08267083932595831  0.40847266269069393  1.0000
  C   C566      1.0  0.4033566552751384  0.11659269055714794  0.3990935936832163  1.0000
  C   C567      1.0  0.4119631423201842  0.06199775145253095  0.40382346724041285  1.0000
  C   C568      1.0  0.397006960238287  0.09086479809071113  0.46418627158480086  1.0000
  H   H797      1.0  0.3544312062542425  0.06142226944951945  0.4233750685062549  1.0000
  H   H798      1.0  0.35918548605281353  0.07977550774043074  0.3745641886677638  1.0000
  H   H799      1.0  0.3478482484088541  0.10202647492999972  0.4188978941550269  1.0000
  H   H800      1.0  0.42689657588684293  0.12116196427955139  0.40652130838684464  1.0000
  H   H801      1.0  0.4013684996060023  0.11509551432465215  0.3648464525543337  1.0000
  H   H802      1.0  0.39003062191809695  0.13686460048057647  0.40963849897859256  1.0000
  H   H803      1.0  0.40579982296383216  0.040220744490800486  0.41889603492120203  1.0000
  H   H804      1.0  0.43565381523848257  0.06555480376560574  0.41051857097951316  1.0000
  H   H805      1.0  0.40969868973662815  0.058712398471569394  0.3698206954227991  1.0000
  H   H806      1.0  0.383370986468976  0.11024134251093942  0.47675112529655894  1.0000
  H   H807      1.0  0.42034894121863636  0.09496532087359921  0.4730499852809959  1.0000
  H   H808      1.0  0.39026656252833275  0.069513277027476  0.4799998996378725  1.0000
  N   N47       1.0  0.9220643536097614  0.5450179839004398  0.46564739553163564  1.0000
  C   C569      1.0  0.9365064348216121  0.560239595923138  0.5010918002336301  1.0000
  C   C570      1.0  0.9350311348211472  0.513872137909253  0.45988499849452563  1.0000
  C   C571      1.0  0.9264843259097297  0.5632104069950051  0.42786446260598726  1.0000
  C   C572      1.0  0.8901716071879007  0.5428450837556513  0.47377652203688897  1.0000
  H   H809      1.0  0.9273995928264716  0.5839131614480441  0.5060363194030224  1.0000
  H   H810      1.0  0.9606759341228236  0.5620176516807647  0.4962415303038142  1.0000
  H   H811      1.0  0.9333120801073662  0.5473345064783351  0.5302878792071651  1.0000
  H   H812      1.0  0.9253470185845029  0.5019870953703369  0.43259697986931106  1.0000
  H   H813      1.0  0.9592285489672162  0.5145863352394502  0.45481061005609247  1.0000
  H   H814      1.0  0.9315038202859206  0.4991998491287995  0.487333832266911  1.0000
  H   H815      1.0  0.916329941273566  0.552091947578834  0.40032986225751016  1.0000
  H   H816      1.0  0.9503003606598519  0.5658570777174232  0.42110379159367606  1.0000
  H   H817      1.0  0.9162349582903249  0.5866007253794269  0.430819979112647  1.0000
  H   H818      1.0  0.8782584430753629  0.5329166062598039  0.4468456159209084  1.0000
  H   H819      1.0  0.8799752827720762  0.565904211236123  0.47990543168625466  1.0000
  H   H820      1.0  0.8858412647855048  0.5283818133261167  0.5011803186845553  1.0000
  N   N48       1.0  0.5572903334701564  0.2880974342778342  0.08969228540078866  1.0000
  C   C573      1.0  0.5775129590605288  0.28638798934005233  0.054064547509373284  1.0000
  C   C574      1.0  0.5651620911995799  0.26342382421909044  0.11913389070425784  1.0000
  C   C575      1.0  0.5266694108682062  0.2842729609464123  0.07513955849002407  1.0000
  C   C576      1.0  0.5598226558853165  0.3182900107016678  0.11039104522588783  1.0000
  H   H821      1.0  0.5725667643227774  0.30488817439399446  0.03142029064329632  1.0000
  H   H822      1.0  0.5758532505749007  0.2640427151296224  0.03746393123715075  1.0000
  H   H823      1.0  0.6008898125452793  0.28867185254699224  0.06405930401365101  1.0000
  H   H824      1.0  0.5502118481158398  0.26359902438425886  0.14622731712214687  1.0000
  H   H825      1.0  0.5640261861306592  0.2403793833487666  0.10429289195993596  1.0000
  H   H826      1.0  0.5880191928263665  0.2658986438622787  0.13105650002610236  1.0000
  H   H827      1.0  0.5107904492563706  0.28541316050899984  0.10118477991798525  1.0000
  H   H828      1.0  0.5239205075078374  0.2617397260151959  0.05946638731481135  1.0000
  H   H829      1.0  0.5201123399511661  0.3022633654283513  0.05244780576093211  1.0000
  H   H830      1.0  0.5453949860011349  0.32013353141716394  0.13800116956397201  1.0000
  H   H831      1.0  0.553795151244051  0.33744039622608885  0.08920984844201474  1.0000
  H   H832      1.0  0.5827433192411323  0.32221167087844027  0.12113227714940633  1.0000
  N   N49       1.0  0.11178779392215743  0.7560497593458987  0.8679083126952437  1.0000
  C   C577      1.0  0.0966446533029568  0.7434555435158209  0.9041268701889323  1.0000
  C   C578      1.0  0.13630635956354298  0.7350194656871829  0.8559437594298825  1.0000
  C   C579      1.0  0.12348206666859052  0.7865463051326289  0.8785335675000486  1.0000
  C   C580      1.0  0.09069867604435067  0.7590559015164076  0.8331599269857811  1.0000
  H   H833      1.0  0.11213843495125686  0.7403620465271185  0.9305738973643637  1.0000
  H   H834      1.0  0.08713251029900282  0.720617661565269  0.8970812594258027  1.0000
  H   H835      1.0  0.0784140004037821  0.7590295525420596  0.9147522835792231  1.0000
  H   H836      1.0  0.1282609376921613  0.7115327310590052  0.8490498178490365  1.0000
  H   H837      1.0  0.14755991394845136  0.7430552994867068  0.8276556839692393  1.0000
  H   H838      1.0  0.1530229194343311  0.7328388295287759  0.8810626837030145  1.0000
  H   H839      1.0  0.13486000202215798  0.7968854826584264  0.8517817716350001  1.0000
  H   H840      1.0  0.13953017632205844  0.7850689204751463  0.9046426597871762  1.0000
  H   H841      1.0  0.10558925441702849  0.8028621923647278  0.8883622891495064  1.0000
  H   H842      1.0  0.07211455553850832  0.7751106196614053  0.8408831130565063  1.0000
  H   H843      1.0  0.08116832832354914  0.7364666855366572  0.8248240756267633  1.0000
  H   H844      1.0  0.10155655389256601  0.7677746390442526  0.8049105047733854  1.0000
  N   N50       1.0  0.14836923451656683  0.8632212994717526  0.5751173876076626  1.0000
  C   C581      1.0  0.16445258019376718  0.8385575713887685  0.5525218835714409  1.0000
  C   C582      1.0  0.13177812805838857  0.8827091602524497  0.5454647348426174  1.0000
  C   C583      1.0  0.16969819199981948  0.8821431325277472  0.5980353107562558  1.0000
  C   C584      1.0  0.1276903613743767  0.8493131753923725  0.6043951060434224  1.0000
  H   H845      1.0  0.1802501113280366  0.8481859386413318  0.5301057624010321  1.0000
  H   H846      1.0  0.1490568599515169  0.8236512974156741  0.5350842697304782  1.0000
  H   H847      1.0  0.17725993898636705  0.8235262531686725  0.5741906236455037  1.0000
  H   H848      1.0  0.14675757372678616  0.8938362032337748  0.5231845032440389  1.0000
  H   H849      1.0  0.11564301626131103  0.8692027148822148  0.5273168226520244  1.0000
  H   H850      1.0  0.11920199164346522  0.9013982602119008  0.5615323113109076  1.0000
  H   H851      1.0  0.15841965677261424  0.9003348790474701  0.6167920343171398  1.0000
  H   H852      1.0  0.18491311226729423  0.8939853595499895  0.5768183555386432  1.0000
  H   H853      1.0  0.18335604448129647  0.8678779692524522  0.6195233826762226  1.0000
  H   H854      1.0  0.11631526698739904  0.8669901016678873  0.6238620444716672  1.0000
  H   H855      1.0  0.13933642754895678  0.8332695655501063  0.6258095270258383  1.0000
  H   H856      1.0  0.1104759277139788  0.8360106317837019  0.5880593365387751  1.0000
  N   N51       1.0  0.11583815375558885  0.057718170105799826  0.44619075950646064  1.0000
  C   C585      1.0  0.08351325632434634  0.05432151463358004  0.445469207659291  1.0000
  C   C586      1.0  0.12922163318419783  0.03841762317255615  0.4133373859489299  1.0000
  C   C587      1.0  0.12761843952761948  0.04785908726785549  0.48676555532831345  1.0000
  C   C588      1.0  0.12307989166492447  0.09018401917673047  0.4390441212430557  1.0000
  H   H857      1.0  0.0772712410769012  0.030200540634321985  0.45152258041286486  1.0000
  H   H858      1.0  0.07400388989770579  0.061057860366865224  0.41499777355328465  1.0000
  H   H859      1.0  0.07258675462141229  0.06923890339044325  0.4691734780422734  1.0000
  H   H860      1.0  0.12128927987333331  0.04550913779778365  0.3822081764170895  1.0000
  H   H861      1.0  0.15360776079684058  0.040282039068500364  0.413410296102649  1.0000
  H   H862      1.0  0.12409990970733784  0.013747068320986601  0.41744584328939977  1.0000
  H   H863      1.0  0.122476591036667  0.023441732716862562  0.49304281614104684  1.0000
  H   H864      1.0  0.11810489029148527  0.062007021861789635  0.5123534070216815  1.0000
  H   H865      1.0  0.15203568685172517  0.04973418812090746  0.48817186328796985  1.0000
  H   H866      1.0  0.11520523715833449  0.09807205375771111  0.4081505530854699  1.0000
  H   H867      1.0  0.14730553092363416  0.0936834278273404  0.4400622817924175  1.0000
  H   H868      1.0  0.1125858737691191  0.10568130018580725  0.46239953447057575  1.0000
  N   N52       1.0  0.3180455544982417  0.9522353921686277  0.2529254751192173  1.0000
  C   C589      1.0  0.3463160882856191  0.9681926575510073  0.24928030153832542  1.0000
  C   C590      1.0  0.3014091774000229  0.9647805521882439  0.2885888733193725  1.0000
  C   C591      1.0  0.3238835610269408  0.9190774572278859  0.2591018461237043  1.0000
  C   C592      1.0  0.3005149330539166  0.956844271436949  0.21476972587152504  1.0000
  H   H869      1.0  0.34274491500948095  0.9933408005561314  0.2451403682884228  1.0000
  H   H870      1.0  0.35933770890972017  0.9595439561726762  0.22243844736405144  1.0000
  H   H871      1.0  0.36032532038260867  0.9648648401074027  0.2773212339959829  1.0000
  H   H872      1.0  0.3138079133079723  0.9616304805705977  0.31807624466142553  1.0000
  H   H873      1.0  0.2964736867245907  0.9897758914692331  0.2849902745942888  1.0000
  H   H874      1.0  0.2798476913327898  0.9533699289394558  0.29191569205596074  1.0000
  H   H875      1.0  0.30297912248468917  0.9063839031608592  0.2621501642144502  1.0000
  H   H876      1.0  0.33710376794082536  0.914894600301259  0.2876832352554474  1.0000
  H   H877      1.0  0.3363488026651557  0.9088036077463016  0.23272386359700756  1.0000
  H   H878      1.0  0.2792718962540612  0.9445586053970529  0.21612614104745376  1.0000
  H   H879      1.0  0.31256878240030084  0.9484184337960756  0.18696282425650837  1.0000
  H   H880      1.0  0.29477881908526987  0.9815830668989675  0.21003050237999457  1.0000
  N   N53       1.0  0.3747778895589021  0.5465625742287825  0.3089939068217218  1.0000
  C   C593      1.0  0.39003673805617556  0.5568647418520539  0.2715299765956369  1.0000
  C   C594      1.0  0.36322842079306733  0.5155238729043818  0.3017656764494105  1.0000
  C   C595      1.0  0.35014077240342645  0.5681508208573707  0.318458112522089  1.0000
  C   C596      1.0  0.3957551573488917  0.5458162218593167  0.34406638904748604  1.0000
  H   H881      1.0  0.39873690013419033  0.5802224643919927  0.27607622557159567  1.0000
  H   H882      1.0  0.3749437026642072  0.5580365604257146  0.24433693100914997  1.0000
  H   H883      1.0  0.40918375916374133  0.5415556982417417  0.2636703150501755  1.0000
  H   H884      1.0  0.35151941408933696  0.5070195472344445  0.3294166856656501  1.0000
  H   H885      1.0  0.3473569155930473  0.5153918503598728  0.27541575892198694  1.0000
  H   H886      1.0  0.3813248384840388  0.49874756023857936  0.2943983445804412  1.0000
  H   H887      1.0  0.3379575430243049  0.5612426826536008  0.3464987702501372  1.0000
  H   H888      1.0  0.33410206710698115  0.5694664987719249  0.29237896316046247  1.0000
  H   H889      1.0  0.35811274726582815  0.5918746864499876  0.32378548917924654  1.0000
  H   H890      1.0  0.38509742784918893  0.5382242614028213  0.37298770008005416  1.0000
  H   H891      1.0  0.40506950127451596  0.5688913716428006  0.35004686544463026  1.0000
  H   H892      1.0  0.4148425613302376  0.5300102793068221  0.33773332038878373  1.0000
  N   N54       1.0  0.4148209878482329  0.5224314057716773  0.768581100466517  1.0000
  C   C597      1.0  0.409668120314254  0.5556788178984937  0.7621968544291193  1.0000
  C   C598      1.0  0.43736969200965264  0.5177074750693718  0.801162358409817  1.0000
  C   C599      1.0  0.42525289121729637  0.5081835985112269  0.7296193750451345  1.0000
  C   C600      1.0  0.3870497925994309  0.5082216920581192  0.7814024741977287  1.0000
  H   H893      1.0  0.39231726457333477  0.5601871925545101  0.7384960270152908  1.0000
  H   H894      1.0  0.43006476847449304  0.5671296667225398  0.7520111267829707  1.0000
  H   H895      1.0  0.40234554033168474  0.5672342478078249  0.791111963126052  1.0000
  H   H896      1.0  0.43023447246453905  0.5282703224752666  0.8309999656730441  1.0000
  H   H897      1.0  0.4418742667886193  0.49287507208021075  0.8067286478896232  1.0000
  H   H898      1.0  0.45862817685520774  0.5281889611401545  0.7925901635725017  1.0000
  H   H899      1.0  0.42959347666533393  0.4831114947482545  0.7332707164402698  1.0000
  H   H900      1.0  0.44619359733696423  0.51855650081111  0.7192374274308588  1.0000
  H   H901      1.0  0.408767178285799  0.5113227449377571  0.7043698869405316  1.0000
  H   H902      1.0  0.3897359034406354  0.48295042429839297  0.7850852014184583  1.0000
  H   H903      1.0  0.36896824118353533  0.5125431581794389  0.7586753423562387  1.0000
  H   H904      1.0  0.37928966163217254  0.5176399069358735  0.8115790092153624  1.0000
  N   N55       1.0  0.6101996706852413  0.8729624203262184  0.6065998637111099  1.0000
  C   C601      1.0  0.5962292719342728  0.8975873521427665  0.6317086677499804  1.0000
  C   C602      1.0  0.6157303676303993  0.8457607379803701  0.6327867835641964  1.0000
  C   C603      1.0  0.6384147414192399  0.8837889915804457  0.5900660962210762  1.0000
  C   C604      1.0  0.5904555213287889  0.8648053172865428  0.5719807958308731  1.0000
  H   H905      1.0  0.5746433203147469  0.8904858710884186  0.6442675026758496  1.0000
  H   H906      1.0  0.5922353461515183  0.9187456498665172  0.6133174031392383  1.0000
  H   H907      1.0  0.6104840402619048  0.9039239068545665  0.658311932255889  1.0000
  H   H908      1.0  0.6262706633439052  0.8266350887103988  0.6149832065174403  1.0000
  H   H909      1.0  0.6306151787084192  0.851105602642659  0.6591533006148885  1.0000
  H   H910      1.0  0.5949177841545937  0.8370727116522872  0.6457926664072544  1.0000
  H   H911      1.0  0.6350120036325068  0.9044054050797752  0.5703117387527458  1.0000
  H   H912      1.0  0.6496156815435118  0.8657284509736201  0.5709281075457117  1.0000
  H   H913      1.0  0.6539070829263658  0.8900667426232823  0.6153434583298519  1.0000
  H   H914      1.0  0.6006634351912  0.8465412047502953  0.5521510248794085  1.0000
  H   H915      1.0  0.585386323567408  0.8850464597479537  0.5521251874377856  1.0000
  H   H916      1.0  0.5691176147514753  0.8561252877672175  0.5833437615291746  1.0000
  N   N56       1.0  0.9972253748205543  0.13977687991078747  0.0740927441988335  1.0000
  C   C605      1.0  0.9994256981462831  0.14120317461987097  0.1196096173984027  1.0000
  C   C606      1.0  0.9912408683145777  0.1709179943546686  0.05780089490676876  1.0000
  C   C607      1.0  0.9730961243083369  0.11934554546423803  0.06183387087701897  1.0000
  C   C608      1.0  0.025297591283908183  0.1276374759844492  0.05711939695875223  1.0000
  H   H917      1.0  0.004264531848271913  0.11816574977311789  0.13304908745405064  1.0000
  H   H918      1.0  0.9787088795904496  0.1501936615260877  0.13385438991927257  1.0000
  H   H919      1.0  0.017402481300408335  0.1565610887962885  0.12971775577491318  1.0000
  H   H920      1.0  0.0092007311747484  0.186850843915346  0.06618524473154697  1.0000
  H   H921      1.0  0.9893998237394731  0.17066028903631536  0.02349348836249132  1.0000
  H   H922      1.0  0.9702949038829377  0.1808999091683834  0.07012120510385467  1.0000
  H   H923      1.0  0.9778554145797478  0.0951780680404799  0.07136082122679865  1.0000
  H   H924      1.0  0.9699117305631441  0.11923125101947218  0.027720936030891208  1.0000
  H   H925      1.0  0.9518117517502813  0.12678670253659363  0.07594022408182477  1.0000
  H   H926      1.0  0.024591274403938046  0.12611551632872198  0.02278302769620355  1.0000
  H   H927      1.0  0.030588629056054417  0.10423505934083521  0.06889871084345067  1.0000
  H   H928      1.0  0.0439448039630328  0.1424030082281713  0.0659830206032801  1.0000
  N   N57       1.0  0.17180408262227448  0.5883105608856168  0.008939213120817247  1.0000
  C   C609      1.0  0.18716796911173975  0.6090960326908891  0.03768459321785312  1.0000
  C   C610      1.0  0.13977939754638155  0.5951721624956317  0.010230110655378821  1.0000
  C   C611      1.0  0.17753212263158868  0.5561552657335084  0.02144398118850188  1.0000
  C   C612      1.0  0.18279458169345492  0.5929062540566837  0.9665773711482083  1.0000
  H   H929      1.0  0.21146718772516154  0.6054441673506664  0.0364539064658691  1.0000
  H   H930      1.0  0.18017145122707023  0.6053629714172228  0.0701317907968191  1.0000
  H   H931      1.0  0.18227098796609986  0.6336361501511694  0.030360247381667982  1.0000
  H   H932      1.0  0.13083328217262494  0.5924802945520209  0.04191506687660662  1.0000
  H   H933      1.0  0.1346259824372859  0.619094639208134  0.00029992696802927377  1.0000
  H   H934      1.0  0.1273080661724673  0.5796430980171703  0.9894613581968715  1.0000
  H   H935      1.0  0.16678821225171905  0.5397980207666445  0.9999992417759223  1.0000
  H   H936      1.0  0.16871733741631573  0.5516401959976917  0.05279477737395611  1.0000
  H   H937      1.0  0.20150873214846785  0.5503351120157756  0.021596170121079172  1.0000
  H   H938      1.0  0.1716541208442697  0.5776709324226081  0.9439795465689186  1.0000
  H   H939      1.0  0.2068554998324681  0.5878358687668584  0.9642644716505216  1.0000
  H   H940      1.0  0.1788746159098519  0.6169681883679811  0.9562703999159365  1.0000
  N   N58       1.0  0.5042190325567326  0.6812500000822928  0.023581022579532318  1.0000
  C   C613      1.0  0.4932297973516534  0.6753576257814531  0.9812713499578932  1.0000
  C   C614      1.0  0.5218260208706411  0.7094059777602179  0.02387604913714969  1.0000
  C   C615      1.0  0.5228596473705004  0.6549744033442305  0.037254869335179075  1.0000
  C   C616      1.0  0.478999913912927  0.6852314289793048  0.05193716461313547  1.0000
  H   H941      1.0  0.5116983379876798  0.6721108043988445  0.9591016848389846  1.0000
  H   H942      1.0  0.47912415751775755  0.6947291439697135  0.9698645012069571  1.0000
  H   H943      1.0  0.479955147120094  0.6541553782465891  0.9798157929619413  1.0000
  H   H944      1.0  0.5084882808199853  0.7299349539392807  0.014463097257808144  1.0000
  H   H945      1.0  0.5310024499694538  0.7143368066638887  0.055118376640848954  1.0000
  H   H946      1.0  0.5408190538027678  0.7074375118369519  0.0023194199071032706  1.0000
  H   H947      1.0  0.5307623210131813  0.6582739624185675  0.06959955461687084  1.0000
  H   H948      1.0  0.5425624822771643  0.6519323621530811  0.017233590186408465  1.0000
  H   H949      1.0  0.5105877867685119  0.6331143812449826  0.03595508989004492  1.0000
  H   H950      1.0  0.48650227654288236  0.6899401972728716  0.08407276887299053  1.0000
  H   H951      1.0  0.46547613552685535  0.6642371649373029  0.05298139141075997  1.0000
  H   H952      1.0  0.46434494039572405  0.7047836605953866  0.04259218658098862  1.0000
  N   N59       1.0  0.7015935233782831  0.5069563847115104  0.46490968540366034  1.0000
  C   C617      1.0  0.6938406190553326  0.53948654640972  0.45690022008504066  1.0000
  C   C618      1.0  0.6756735222867012  0.4913437659455694  0.48161958576180064  1.0000
  C   C619      1.0  0.7260568916740076  0.5051535217150877  0.4951983006875813  1.0000
  C   C620      1.0  0.7108375693482127  0.4919341623425366  0.42583501305342736  1.0000
  H   H953      1.0  0.7130982555205125  0.5520755219930538  0.4453545274997481  1.0000
  H   H954      1.0  0.6862672189263045  0.5515871827992014  0.4853136535954003  1.0000
  H   H955      1.0  0.676019721803404  0.5418557830571143  0.43333871440895483  1.0000
  H   H956      1.0  0.6807665755604201  0.4667928356162659  0.4884501616168842  1.0000
  H   H957      1.0  0.6680804691526561  0.5021974532010521  0.5110646672806931  1.0000
  H   H958      1.0  0.6568059919344864  0.49223535185623196  0.4595573312688455  1.0000
  H   H959      1.0  0.732690230528341  0.4809344898918479  0.501735705814308  1.0000
  H   H960      1.0  0.7197707504061759  0.5159753715185433  0.5251958373512744  1.0000
  H   H961      1.0  0.7458288928813096  0.5172124318684441  0.4839590964672655  1.0000
  H   H962      1.0  0.7163792551981594  0.4671868219312379  0.4303246228006841  1.0000
  H   H963      1.0  0.7306346368973526  0.5028954934337266  0.41276916840735467  1.0000
  H   H964      1.0  0.6932226566754544  0.4935389044937886  0.4017899384453077  1.0000
  N   N60       1.0  0.8409933791232495  0.6489443882291626  0.10949940790140662  1.0000
  C   C621      1.0  0.8265550671163463  0.6189046838896979  0.11178082122846125  1.0000
  C   C622      1.0  0.820546886694486  0.673196328046991  0.12497439291083653  1.0000
  C   C623      1.0  0.8487941013316541  0.6552539374350055  0.06619273138677095  1.0000
  C   C624      1.0  0.8680620649045789  0.6484046334424707  0.1349889812536154  1.0000
  H   H965      1.0  0.8407731707679194  0.600099356338803  0.09897892189563318  1.0000
  H   H966      1.0  0.8055555081979122  0.6188572260914681  0.09385476964238681  1.0000
  H   H967      1.0  0.8211391911515925  0.6128246021530414  0.14418905172736124  1.0000
  H   H968      1.0  0.8306577122431452  0.6962245342136704  0.1238682816691009  1.0000
  H   H969      1.0  0.7999520789290795  0.6743851853286646  0.1061757945176063  1.0000
  H   H970      1.0  0.8141553675370965  0.6688482245206108  0.15759200003757665  1.0000
  H   H971      1.0  0.8651844299907107  0.6381131325182631  0.05406589973658216  1.0000
  H   H972      1.0  0.8583788306115734  0.6783942426700308  0.06270792394516866  1.0000
  H   H973      1.0  0.8291181614275117  0.6543390446854837  0.04585960787694443  1.0000
  H   H974      1.0  0.879490221940359  0.6707273522681075  0.1337677803245962  1.0000
  H   H975      1.0  0.8839460993507418  0.6303702794750635  0.12401128358649648  1.0000
  H   H976      1.0  0.8630580194709327  0.6437394138271474  0.1679544897585995  1.0000
  N   N61       1.0  0.9962578034797087  0.4131997086261029  0.6657367467802353  1.0000
  C   C625      1.0  0.9743531944677339  0.4258455383984989  0.6952413767522437  1.0000
  C   C626      1.0  0.025233633608539474  0.410516903325309  0.6864613255075938  1.0000
  C   C627      1.0  0.9984354596501227  0.43380148346558817  0.6297758253750978  1.0000
  C   C628      1.0  0.987113411253071  0.38247427191790606  0.6516663571933605  1.0000
  H   H977      1.0  0.9521024174172796  0.42803344194506654  0.680945394305862  1.0000
  H   H978      1.0  0.9806507926449148  0.4489409811806086  0.7066135927693219  1.0000
  H   H979      1.0  0.9725626866366144  0.4109008255219149  0.7229765414246166  1.0000
  H   H980      1.0  0.024108421027015714  0.3959483263237587  0.714548041826612  1.0000
  H   H981      1.0  0.04215759161837518  0.40025862188471156  0.6655666514698491  1.0000
  H   H982      1.0  0.03322308996331591  0.4332516418785822  0.696692405738709  1.0000
  H   H983      1.0  0.015193137549893487  0.4250911411697086  0.6072845566451546  1.0000
  H   H984      1.0  0.004909640502727353  0.45732909638160135  0.6392710557533827  1.0000
  H   H985      1.0  0.977018940623197  0.4361821808342511  0.6131304610392763  1.0000
  H   H986      1.0  0.0033786200661707344  0.37204437734240997  0.6297730213148385  1.0000
  H   H987      1.0  0.965336963673912  0.383545957416319  0.6358047986999551  1.0000
  H   H988      1.0  0.9851065082950248  0.3664726059436111  0.678181153839762  1.0000
  N   N62       1.0  0.5864780984794862  0.9262725493063292  0.8867011922192226  1.0000
  C   C629      1.0  0.5862769008544595  0.915474050779392  0.8432862044716224  1.0000
  C   C630      1.0  0.6162910827232032  0.9366979135201305  0.8978268684722056  1.0000
  C   C631      1.0  0.5782683582724726  0.9008503126375502  0.9140890176649841  1.0000
  C   C632      1.0  0.5651016103076553  0.9520879436389341  0.8916614759968011  1.0000
  H   H989      1.0  0.5640611322227777  0.907664914940744  0.8335666554308159  1.0000
  H   H990      1.0  0.6020637289381267  0.8959048890622511  0.8385190719025402  1.0000
  H   H991      1.0  0.5926160977640359  0.9340174589111477  0.8217851638028592  1.0000
  H   H992      1.0  0.6172227413631352  0.9451389155111153  0.930339708719692  1.0000
  H   H993      1.0  0.6329782064541457  0.9177052839939497  0.8950414097454862  1.0000
  H   H994      1.0  0.6233284397671529  0.9557439205885352  0.8775559018196749  1.0000
  H   H995      1.0  0.5783041947419357  0.9081513792873935  0.9471269610435613  1.0000
  H   H996      1.0  0.594117433490493  0.8810739219204372  0.9114028639086904  1.0000
  H   H997      1.0  0.5559440799451789  0.8922992752459111  0.9065622954523515  1.0000
  H   H998      1.0  0.5647245461428635  0.9607792061889688  0.9240870931913945  1.0000
  H   H999      1.0  0.542380745293369  0.9451394371939912  0.8832708365560664  1.0000
  H   H1000     1.0  0.5707643300314116  0.9716883064664672  0.8715214084233088  1.0000
  N   N63       1.0  0.613319562734242  0.14772259065041882  0.3429338362963535  1.0000
  C   C633      1.0  0.6230320044996915  0.11933661737114072  0.3642240786259416  1.0000
  C   C634      1.0  0.6183119054354678  0.14418096769125224  0.29806272417074053  1.0000
  C   C635      1.0  0.6302160088070718  0.17394150047708867  0.3589295416760357  1.0000
  C   C636      1.0  0.5816257651482184  0.15341036079911832  0.3506609991323989  1.0000
  H   H1001     1.0  0.6190868052376819  0.12111095818984285  0.3980383256110755  1.0000
  H   H1002     1.0  0.647032790241121  0.11467344456538901  0.35982748577680745  1.0000
  H   H1003     1.0  0.6110167284935021  0.09901195364170778  0.3525212261963757  1.0000
  H   H1004     1.0  0.6126438471520024  0.16574092143337213  0.2812051710088045  1.0000
  H   H1005     1.0  0.6418420626274107  0.13860386797753838  0.2913547134832891  1.0000
  H   H1006     1.0  0.6049360300479326  0.1254600957147822  0.28462771734510306  1.0000
  H   H1007     1.0  0.6241227851394701  0.19561586847880877  0.3426947824783836  1.0000
  H   H1008     1.0  0.6543396947592051  0.1702591380264973  0.3547117850232704  1.0000
  H   H1009     1.0  0.6263764422253654  0.17775960264285992  0.3924880902704064  1.0000
  H   H1010     1.0  0.5735541805804963  0.1749875560618585  0.33573834306772665  1.0000
  H   H1011     1.0  0.5771031039940235  0.1558444601117762  0.3843025849941829  1.0000
  H   H1012     1.0  0.5680260541699431  0.13428140946373224  0.33881421554603414  1.0000
  N   N64       1.0  0.645565279551002  0.9854713026373749  0.34103119540078697  1.0000
  C   C637      1.0  0.6179375136102812  0.9697551705530634  0.3507424695071545  1.0000
  C   C638      1.0  0.6685171529244325  0.9767467297544313  0.37156425761259226  1.0000
  C   C639      1.0  0.6403780987662059  0.01906632327305946  0.3425631304977786  1.0000
  C   C640      1.0  0.6554583819521527  0.9763086593604376  0.29922887407447923  1.0000
  H   H1013     1.0  0.6095412377256658  0.9765564600566511  0.38179620349807186  1.0000
  H   H1014     1.0  0.6211498887310546  0.9443710730259004  0.35025433828611136  1.0000
  H   H1015     1.0  0.6002768672901097  0.9755755826082215  0.3279233101263761  1.0000
  H   H1016     1.0  0.6896980945900503  0.9879040469248129  0.3647093474748657  1.0000
  H   H1017     1.0  0.6621682630426999  0.9838843438483986  0.40343485180982896  1.0000
  H   H1018     1.0  0.6731275469106243  0.9515501084905545  0.37132847314308987  1.0000
  H   H1019     1.0  0.632427975768293  0.026698339114819447  0.3735164687223735  1.0000
  H   H1020     1.0  0.6236932578316319  0.02654047752828026  0.3192826978974899  1.0000
  H   H1021     1.0  0.660936586688685  0.03164753405311216  0.33640232491970007  1.0000
  H   H1022     1.0  0.6757027709793989  0.9885478729236766  0.2902916441470346  1.0000
  H   H1023     1.0  0.6383256027739773  0.9814020091774043  0.2754554339355636  1.0000
  H   H1024     1.0  0.6608883235472046  0.9512989707593196  0.2975153174583702  1.0000
