data_image0
_chemical_formula_structural       FeS2FeS2FeSFeS3FeS2FeS2FeSFeS3FeS2FeS2FeSFeS3FeS2FeS2FeSFeS3FeS2FeS2FeSFeS3FeS2FeS2FeSFeS3FeS2FeS2FeSFeS3FeS2FeS2FeSFeS3FeS2FeS2FeSFeS3FeS2FeS2FeSFeS3FeS2FeS2FeSFeS3FeS2FeS2FeSFeS3C6H4C6H4C6H4C6H4C6H4C6H4C6H4C6H4C6H4C6H4C6H4C6H4C6H4C6H4C6H4C6H4C6H4C6H4C6H4C6H4C6H4C6H4C6H4C6H4FeS2FeS2FeSFeS3FeS2FeS2FeSFeS3FeS2FeS2FeSFeS3FeS2FeS2FeSFeS3FeS2FeS2FeSFeS3FeS2FeS2FeSFeS3FeS2FeS2FeSFeS3FeS2FeS2FeSFeS3FeS2FeS2FeSFeS3FeS2FeS2FeSFeS3FeS2FeS2FeSFeS3FeS2FeS2FeSFeS3C6H4C6H4C6H4C6H4C6H4C6H4C6H4C6H4C6H4C6H4C6H4C6H4C6H4C6H4C6H4C6H4C6H4C6H4C6H4C6H4C6H4C6H4C6H4C6H4NC4H12NC4H12NC4H12NC4H12NC4H12NC4H12NC4H12NC4H12NC4H12NC4H12NC4H12NC4H12NC4H12NC4H12NC4H12NC4H12NC4H12NC4H12NC4H12NC4H12NC4H12NC4H12NC4H12NC4H12NC4H12NC4H12NC4H12NC4H12NC4H12NC4H12NC4H12NC4H12NC4H12NC4H12NC4H12NC4H12NC4H12NC4H12NC4H12NC4H12NC4H12NC4H12NC4H12NC4H12NC4H12NC4H12NC4H12NC4H12
_chemical_formula_sum              "Fe96 S192 C480 H768 N48"
_cell_length_a       48.33595826462639
_cell_length_b       48.46336714404208
_cell_length_c       37.080079947061215
_cell_angle_alpha    90.14565024021948
_cell_angle_beta     90.3553324660559
_cell_angle_gamma    121.99493094881386

_space_group_name_H-M_alt    "P 1"
_space_group_IT_number       1

loop_
  _space_group_symop_operation_xyz
  'x, y, z'

loop_
  _atom_site_type_symbol
  _atom_site_label
  _atom_site_symmetry_multiplicity
  _atom_site_fract_x
  _atom_site_fract_y
  _atom_site_fract_z
  _atom_site_occupancy
  Fe  Fe1       1.0  0.6929891605621148  0.09191365500524894  0.11310585260625654  1.0000
  S   S1        1.0  0.699371867782473  0.12591351303927342  0.06857069826092677  1.0000
  S   S2        1.0  0.6551177538968223  0.0379251288294542  0.10846892574085615  1.0000
  Fe  Fe2       1.0  0.7404087736546392  0.1482063328973819  0.1636344204007929  1.0000
  S   S3        1.0  0.7499563775540518  0.1864059845126908  0.12299763376550651  1.0000
  S   S4        1.0  0.764999974863133  0.15905413478898242  0.21856174304600548  1.0000
  Fe  Fe3       1.0  0.6960153685003617  0.15603252813549373  0.11250264770813571  1.0000
  S   S5        1.0  0.6638754581508816  0.1761125021803523  0.10431165543544084  1.0000
  Fe  Fe4       1.0  0.7525741740141026  0.1527595086110443  0.08335737824713171  1.0000
  S   S6        1.0  0.7937589214103676  0.16789563810587232  0.0443958330518882  1.0000
  S   S7        1.0  0.6858809105884955  0.12026137566321299  0.15629924069210996  1.0000
  S   S8        1.0  0.7466203020679864  0.11628072499118686  0.12477079941103433  1.0000
  Fe  Fe5       1.0  0.6294603317559053  0.9295668097574393  0.48566879765003756  1.0000
  S   S9        1.0  0.5894130905172471  0.9136794040665244  0.5258027890250979  1.0000
  S   S10       1.0  0.6782460663009718  0.9762387096980456  0.493236550698048  1.0000
  Fe  Fe6       1.0  0.5859501990464993  0.8764719313857535  0.43198699509167754  1.0000
  S   S11       1.0  0.5420079482728328  0.8570004994952243  0.46727453053210133  1.0000
  S   S12       1.0  0.5774686373415329  0.8535918786894672  0.376680153817579  1.0000
  Fe  Fe7       1.0  0.5585219442823871  0.9088832698376669  0.47806705558484014  1.0000
  S   S13       1.0  0.5256125342853922  0.928312042250308  0.48520032569244587  1.0000
  Fe  Fe8       1.0  0.5761740746192354  0.8630997458189619  0.5120067033867197  1.0000
  S   S14       1.0  0.5524488996722721  0.822332074564396  0.5521274639637397  1.0000
  S   S15       1.0  0.5993753009177034  0.9283079947717383  0.43862410995442574  1.0000
  S   S16       1.0  0.6194556749807529  0.8790490320211019  0.475989887215431  1.0000
  Fe  Fe9       1.0  0.4920383702055072  0.18125942911558315  0.2557526432352635  1.0000
  S   S17       1.0  0.4604316102718608  0.14661907596170984  0.21146264250604307  1.0000
  S   S18       1.0  0.4674639942269943  0.20005425525611673  0.29091402432826574  1.0000
  Fe  Fe10      1.0  0.5509012587785318  0.1783420246391291  0.23461151016097773  1.0000
  S   S19       1.0  0.5239797761663877  0.1438783906516049  0.18906096355878457  1.0000
  S   S20       1.0  0.6024704338054333  0.19193953757211538  0.24636227043080305  1.0000
  Fe  Fe11      1.0  0.5044813803989511  0.17584039687376954  0.1767943675817507  1.0000
  S   S21       1.0  0.5065706181008078  0.19149546436621045  0.11873556934727685  1.0000
  Fe  Fe12      1.0  0.48284946697740266  0.1180170840967788  0.2280825758190271  1.0000
  S   S22       1.0  0.45801964410022505  0.06317798043890027  0.23071347877769924  1.0000
  S   S23       1.0  0.5347109700180347  0.21258978792602196  0.219834732214169  1.0000
  S   S24       1.0  0.5111013784351537  0.15039736999325892  0.27486092079194285  1.0000
  Fe  Fe13      1.0  0.36634833825123064  0.8832482918131832  0.3898555656925475  1.0000
  S   S25       1.0  0.37248994598823376  0.9193419672916079  0.4320502181264017  1.0000
  S   S26       1.0  0.4021186097328064  0.8672401444475336  0.38204398758054664  1.0000
  Fe  Fe14      1.0  0.3065591030915324  0.8795689185848726  0.3570739568038508  1.0000
  S   S27       1.0  0.308537999105362  0.9153214409216296  0.3972061121574752  1.0000
  S   S28       1.0  0.268950155444185  0.8643847313487611  0.3127735620524471  1.0000
  Fe  Fe15      1.0  0.3623517911434249  0.9434936403915534  0.38684269595320964  1.0000
  S   S29       1.0  0.3915531842434226  0.9981353979233123  0.3796274613541512  1.0000
  Fe  Fe16      1.0  0.31810545195702367  0.8871028101438891  0.4380201747214288  1.0000
  S   S30       1.0  0.29615475957813514  0.8770409424082696  0.4939994925774929  1.0000
  S   S31       1.0  0.35978075244548535  0.9096298812736601  0.34411116832248023  1.0000
  S   S32       1.0  0.31246315262135077  0.8491448981697298  0.3983894621202701  1.0000
  Fe  Fe17      1.0  0.3728138823459942  0.4956206636462711  0.31636820751251626  1.0000
  S   S33       1.0  0.3774728059134674  0.4681309722436125  0.27073737811367976  1.0000
  S   S34       1.0  0.40626353220354205  0.549214179755217  0.3284558549055929  1.0000
  Fe  Fe18      1.0  0.3166960056029365  0.43511830185092665  0.34980014220476463  1.0000
  S   S35       1.0  0.3163610499873624  0.4019493406988162  0.30720777623011336  1.0000
  S   S36       1.0  0.2845227515407888  0.4150720260731369  0.39872972149440417  1.0000
  Fe  Fe19      1.0  0.3708563127777389  0.4316065198834613  0.3123845226705841  1.0000
  S   S37       1.0  0.40412647992782946  0.4123451350784939  0.30592107661302664  1.0000
  Fe  Fe20      1.0  0.3227633192513052  0.44042073399727233  0.2682738743997663  1.0000
  S   S38       1.0  0.2982344082448128  0.42300507139698657  0.2136698366576373  1.0000
  S   S39       1.0  0.37087168258787384  0.4614761207877589  0.3584792207687437  1.0000
  S   S40       1.0  0.31837244497970535  0.4712497571352396  0.3105505567092381  1.0000
  Fe  Fe21      1.0  0.48973538402833033  0.3223817712979996  0.5123640188434527  1.0000
  S   S41       1.0  0.5412401590448539  0.3505496418208966  0.4921975721458524  1.0000
  S   S42       1.0  0.4705646205597393  0.2975053738394608  0.5660769366188024  1.0000
  Fe  Fe22      1.0  0.46179858363463855  0.3354073194343429  0.44555775619392224  1.0000
  S   S43       1.0  0.510354647197258  0.36413658272709054  0.4186231970469741  1.0000
  S   S44       1.0  0.4122906905760925  0.3250538124839074  0.4279688129401322  1.0000
  Fe  Fe23      1.0  0.5192138147138335  0.32596636260461953  0.43900284346262486  1.0000
  S   S45       1.0  0.5489252239490715  0.3125787695945986  0.40501552430959237  1.0000
  Fe  Fe24      1.0  0.529442951762571  0.38706601568207255  0.4729485429567476  1.0000
  S   S46       1.0  0.5633026392267984  0.4413273836650322  0.47074968770776776  1.0000
  S   S47       1.0  0.46856016501568803  0.2943739689964477  0.4607735944316889  1.0000
  S   S48       1.0  0.4802597899988455  0.3617774271796976  0.49835161857551513  1.0000
  Fe  Fe25      1.0  0.7784622390037645  0.6108405534968196  0.4928622693376881  1.0000
  S   S49       1.0  0.7836652865614424  0.5788597411302573  0.5323677088292693  1.0000
  S   S50       1.0  0.7966488212717715  0.6205753159603432  0.4354486980191188  1.0000
  Fe  Fe26      1.0  0.7054946965333024  0.61466687663193  0.06622763428100023  1.0000
  S   S51       1.0  0.7077546031127367  0.5910122767231265  0.11700706303817568  1.0000
  S   S52       1.0  0.681925045589491  0.6443298521900942  0.06464299944028888  1.0000
  Fe  Fe27      1.0  0.755562443095399  0.6008873839194369  0.09558545133411325  1.0000
  S   S53       1.0  0.8019054784976782  0.6262523860072731  0.12908113403011548  1.0000
  Fe  Fe28      1.0  0.7319848473869323  0.5614996907031622  0.5473708015058694  1.0000
  S   S54       1.0  0.6952856574798897  0.5086395269377062  0.5595227614789636  1.0000
  S   S55       1.0  0.7550822878684609  0.628100405222896  0.04662041959445557  1.0000
  S   S56       1.0  0.7256714910567549  0.5905149049774323  0.5046867661096187  1.0000
  Fe  Fe29      1.0  0.5913372000130241  0.74732333579028  0.20157066083509265  1.0000
  S   S57       1.0  0.6328131015727023  0.7571348177804129  0.23794573952195575  1.0000
  S   S58       1.0  0.588274445067692  0.7873782635402774  0.17513322078723287  1.0000
  Fe  Fe30      1.0  0.5511620177754691  0.6763773828921861  0.22058894000441645  1.0000
  S   S59       1.0  0.5883588516837992  0.6795403509039131  0.2595280429559269  1.0000
  S   S60       1.0  0.5041001348509645  0.6313682529482649  0.2034527092027517  1.0000
  Fe  Fe31      1.0  0.5941535068412838  0.7265796436810258  0.2780149509817805  1.0000
  S   S61       1.0  0.6054235659474679  0.7434296679700271  0.3361813096031225  1.0000
  Fe  Fe32      1.0  0.624760696594447  0.7098230908015747  0.21706308865472043  1.0000
  S   S62       1.0  0.6673603540922  0.7029821728889192  0.21142581040334799  1.0000
  S   S63       1.0  0.5529804801571282  0.7201518004451335  0.2433004645272166  1.0000
  S   S64       1.0  0.5870760786101513  0.7030406609002495  0.17631246969936967  1.0000
  Fe  Fe33      1.0  0.8910960344452137  0.3108015278849029  0.32116466132606064  1.0000
  S   S65       1.0  0.851393145446439  0.30733417998861706  0.35464735164361827  1.0000
  S   S66       1.0  0.8806096721511896  0.3010377594944693  0.26143854924974286  1.0000
  Fe  Fe34      1.0  0.9393748263072568  0.3374637606170238  0.3848372480194994  1.0000
  S   S67       1.0  0.9023278683300014  0.3352210870027678  0.42356280709776134  1.0000
  S   S68       1.0  0.9945026982555987  0.36595993865059384  0.3916559699091418  1.0000
  Fe  Fe35      1.0  0.8679542526764537  0.2864778345466825  0.3972948993210188  1.0000
  S   S69       1.0  0.8227401590729072  0.24243563149219755  0.41982805985326305  1.0000
  Fe  Fe36      1.0  0.8884475174094935  0.35570643937119895  0.3776886918117979  1.0000
  S   S70       1.0  0.8731019160554129  0.3920244856409998  0.38202174170409425  1.0000
  S   S71       1.0  0.9059697665886276  0.2867398599890168  0.3618629555736076  1.0000
  S   S72       1.0  0.9272229676164755  0.36127184432916554  0.34066914917394625  1.0000
  Fe  Fe37      1.0  0.2003985079508274  0.474301967674823  0.09083537043396012  1.0000
  S   S73       1.0  0.21012368903021042  0.5154865151728785  0.05457681227388855  1.0000
  S   S74       1.0  0.2295948551572389  0.4912727599317703  0.14311295948432695  1.0000
  Fe  Fe38      1.0  0.13143583467629602  0.42677646022295407  0.5370601272526135  1.0000
  S   S75       1.0  0.1486386976109095  0.46987165844049417  0.5015704256886259  1.0000
  S   S76       1.0  0.08413086458915295  0.3791186687586421  0.5249296391736016  1.0000
  Fe  Fe39      1.0  0.1988318880788721  0.48049969661921504  0.5135123114009339  1.0000
  S   S77       1.0  0.23232831306702578  0.4988573217685949  0.46568107120990315  1.0000
  Fe  Fe40      1.0  0.15596218837464532  0.492188443403116  0.05251779060245262  1.0000
  S   S78       1.0  0.13061209418226175  0.519672960508666  0.05951219177209326  1.0000
  S   S79       1.0  0.18151931020131815  0.43479989188346074  0.5455282758458525  1.0000
  S   S80       1.0  0.1462351232337132  0.45298535835583614  0.09180686862642731  1.0000
  Fe  Fe41      1.0  0.224016260465811  0.7414882885260813  0.15783921888932842  1.0000
  S   S81       1.0  0.18754787637128306  0.7544657607801849  0.14044019525535537  1.0000
  S   S82       1.0  0.252031706788533  0.7523119112710663  0.2100420950338091  1.0000
  Fe  Fe42      1.0  0.21136065446886135  0.6986986402713429  0.09187099823916388  1.0000
  S   S83       1.0  0.17321639273253944  0.707124970350745  0.07014787518097507  1.0000
  S   S84       1.0  0.22920009188044796  0.6716151623891337  0.06020149099400613  1.0000
  Fe  Fe43      1.0  0.20902586893148345  0.7593674885723388  0.08496510465975372  1.0000
  S   S85       1.0  0.21891017390183842  0.7970060442077083  0.042358942684733725  1.0000
  Fe  Fe44      1.0  0.15568042323409917  0.7010995763531439  0.12716465850867367  1.0000
  S   S86       1.0  0.10354303958184657  0.663225645031451  0.14119368647704114  1.0000
  S   S87       1.0  0.2480290287185114  0.7509603784203134  0.10398999409743584  1.0000
  S   S88       1.0  0.1910548364079504  0.6880424001838666  0.14752609534466987  1.0000
  Fe  Fe45      1.0  0.9137692372184822  0.5874818049764827  0.32630921915581673  1.0000
  S   S89       1.0  0.8896643365091756  0.5398892106954344  0.2963496412155019  1.0000
  S   S90       1.0  0.9005849767430669  0.587010528923264  0.3848623651661545  1.0000
  Fe  Fe46      1.0  0.964097006934169  0.6229364224655118  0.2671501113268596  1.0000
  S   S91       1.0  0.94404357522229  0.578071268865853  0.23287780720658843  1.0000
  S   S92       1.0  0.007686307273463422  0.671293724949238  0.24980996626483726  1.0000
  Fe  Fe47      1.0  0.8950937856143087  0.5694730476053769  0.2473144755937328  1.0000
  S   S93       1.0  0.8564823720156446  0.5472678036021145  0.2035386181754182  1.0000
  Fe  Fe48      1.0  0.9403558349069904  0.5524414562838359  0.2845198071435837  1.0000
  S   S94       1.0  0.959033345029867  0.5187589784541418  0.29033077545709735  1.0000
  S   S95       1.0  0.9150763968856517  0.6164720441448384  0.27821872136328396  1.0000
  S   S96       1.0  0.964483061788401  0.5980908276658776  0.31775244073395936  1.0000
  C   C1        1.0  0.07980131281914951  0.667025048558922  0.17427445280254297  1.0000
  C   C2        1.0  0.05470877431542687  0.6386249287863103  0.1903361722740145  1.0000
  C   C3        1.0  0.03367559797424802  0.6400249138358614  0.21510073991965448  1.0000
  C   C4        1.0  0.036958662421592514  0.6697750765999594  0.22323274914170754  1.0000
  C   C5        1.0  0.06257553296012368  0.6984044765536314  0.20788836881323128  1.0000
  C   C6        1.0  0.08409234492625714  0.6970751277752408  0.18352329795611527  1.0000
  H   H1        1.0  0.051320184004758795  0.6153180526529775  0.18330865550337488  1.0000
  H   H2        1.0  0.014454071236441823  0.6179060089412629  0.2272187013675892  1.0000
  H   H3        1.0  0.06517379996612534  0.7215174405384054  0.21401299883080566  1.0000
  H   H4        1.0  0.10310221158483514  0.7190411264813973  0.1708118088639103  1.0000
  C   C7        1.0  0.15682556122943217  0.5620528410865193  0.05664017888068954  1.0000
  C   C8        1.0  0.1478512927222497  0.5824463084416718  0.07245410307937192  1.0000
  C   C9        1.0  0.16976443631956625  0.6162947964577933  0.07306849104252143  1.0000
  C   C10       1.0  0.20063046921201289  0.6297158095760969  0.05773490448045347  1.0000
  C   C11       1.0  0.20926613260386792  0.6094194092803975  0.04108769960677172  1.0000
  C   C12       1.0  0.18737037357154226  0.5756363443676258  0.04050107288563298  1.0000
  H   H5        1.0  0.12416074007607963  0.572014651253632  0.08482891026552883  1.0000
  H   H6        1.0  0.16286894838996174  0.6318909955887648  0.08576830507141332  1.0000
  H   H7        1.0  0.2330165518645682  0.6197611935532058  0.028913943490148867  1.0000
  H   H8        1.0  0.18530801333211488  0.5563490133385123  0.6016228994764841  1.0000
  C   C13       1.0  0.8968938238461052  0.4267387300589995  0.3559714965728178  1.0000
  C   C14       1.0  0.882551861818381  0.4424619464710789  0.3402160228332291  1.0000
  C   C15       1.0  0.9015041056918134  0.4708817789734512  0.32016157130315803  1.0000
  C   C16       1.0  0.9349049055946947  0.48380323070761366  0.31611991168357007  1.0000
  C   C17       1.0  0.949284792742359  0.46822249051658704  0.33220928511469294  1.0000
  C   C18       1.0  0.9302766406241023  0.4395923168239543  0.3519131679622156  1.0000
  H   H9        1.0  0.8566684955350409  0.4324661783560538  0.34325387339110686  1.0000
  H   H10       1.0  0.8900804130488424  0.48230814781011794  0.3072359938704679  1.0000
  H   H11       1.0  0.9752042348255552  0.4783316770878774  0.329427423079104  1.0000
  H   H12       1.0  0.9415766582271009  0.42785371552877477  0.36461700142172115  1.0000
  C   C19       1.0  0.058634633584629815  0.37616719800867215  0.4887638844050571  1.0000
  C   C20       1.0  0.0703260068281704  0.39957367453875714  0.46165154992870105  1.0000
  C   C21       1.0  0.05011872600361844  0.39618541335656576  0.43244280841515176  1.0000
  C   C22       1.0  0.01771318453983528  0.3697992429606824  0.4304178574589663  1.0000
  C   C23       1.0  0.005593637215830283  0.3467479179434766  0.45800821981898776  1.0000
  C   C24       1.0  0.02617000479582776  0.3497453020225568  0.48687690771761755  1.0000
  H   H13       1.0  0.09506027117663005  0.4200336988720559  0.4627520590463394  1.0000
  H   H14       1.0  0.05963346541416814  0.4140612297278766  0.4111462488762477  1.0000
  H   H15       1.0  0.9807455768935965  0.3261359917795757  0.45650267810595613  1.0000
  H   H16       1.0  0.016928473063842372  0.3314071267238527  0.50767555542012  1.0000
  C   C25       1.0  0.8148531365825334  0.6034359635619202  0.15230642641589187  1.0000
  C   C26       1.0  0.7995864235835968  0.5699343804120829  0.14669622966887647  1.0000
  C   C27       1.0  0.8123121703673885  0.5528077809188957  0.16302293450644922  1.0000
  C   C28       1.0  0.8396379640701315  0.5689046916266816  0.1859826448940899  1.0000
  C   C29       1.0  0.8540659286844786  0.6021533519017714  0.19281017909903078  1.0000
  C   C30       1.0  0.8420168597351818  0.6194882859673313  0.17550262484329857  1.0000
  H   H17       1.0  0.7781202747829674  0.5573073376022581  0.1296644256336612  1.0000
  H   H18       1.0  0.8007996975237682  0.5269525782011509  0.15813272955673996  1.0000
  H   H19       1.0  0.874763253574215  0.6145545970958923  0.21095690398672137  1.0000
  H   H20       1.0  0.8535901215900343  0.6453681794684585  0.18026581703978997  1.0000
  C   C31       1.0  0.8237423605186492  0.6090226409075656  0.4208001309852782  1.0000
  C   C32       1.0  0.8356006648102777  0.6160457645049991  0.38541505446966506  1.0000
  C   C33       1.0  0.8586302510397191  0.6087080073131075  0.3736661048641728  1.0000
  C   C34       1.0  0.8702119507317532  0.5947112066043331  0.3974930215825303  1.0000
  C   C35       1.0  0.8582050873161711  0.5875074018371091  0.4327990340032451  1.0000
  C   C36       1.0  0.8347817758674951  0.5943067621572952  0.44429285758254505  1.0000
  H   H21       1.0  0.827102197289233  0.6273981151638081  0.36708500473249583  1.0000
  H   H22       1.0  0.867782233620992  0.6143789207423571  0.3464127777650449  1.0000
  H   H23       1.0  0.8669352633969901  0.5765179121788315  0.4512986875605134  1.0000
  H   H24       1.0  0.8254858876903399  0.588425497328089  0.4713863073141284  1.0000
  C   C37       1.0  0.6718992253536908  0.6876567349403082  0.17013743435459358  1.0000
  C   C38       1.0  0.6953130521993648  0.6789990958768033  0.1673971240571931  1.0000
  C   C39       1.0  0.6988232806726443  0.6659141049270001  0.13506832515816633  1.0000
  C   C40       1.0  0.6791073904174977  0.6617090739404927  0.10519700698592693  1.0000
  C   C41       1.0  0.6560165643417599  0.6707669620221346  0.10779761601362388  1.0000
  C   C42       1.0  0.6522504522758347  0.6834832610141388  0.14022125381844577  1.0000
  H   H25       1.0  0.7107457283286497  0.6823349411385553  0.19034805718547676  1.0000
  H   H26       1.0  0.7169722360836647  0.6593682556985105  0.13317666604763226  1.0000
  H   H27       1.0  0.6408683843817427  0.6677931387157672  0.08468642018441376  1.0000
  H   H28       1.0  0.6343526192548165  0.6903131775124813  0.14189610572219888  1.0000
  C   C43       1.0  0.6000924730123959  0.4586548268201027  0.4948200605492873  1.0000
  C   C44       1.0  0.6253363654200028  0.4899952185303466  0.4857337103446037  1.0000
  C   C45       1.0  0.6551108087837395  0.5047681857717947  0.5043793366604337  1.0000
  C   C46       1.0  0.6595029407617206  0.488824437293117  0.5330819986601886  1.0000
  C   C47       1.0  0.6343280418235795  0.45721422890051344  0.5419457180763153  1.0000
  C   C48       1.0  0.6046538760985263  0.4420048666472278  0.5226585935906972  1.0000
  H   H29       1.0  0.6372616656933977  0.45862631576619406  0.9779575740781499  1.0000
  H   H30       1.0  0.6626127185896856  0.49843951217759447  0.028123477137018016  1.0000
  H   H31       1.0  0.63762315179711  0.44469679853597954  0.5640990523264803  1.0000
  H   H32       1.0  0.5851380144868499  0.4177936782754157  0.5298686392591548  1.0000
  C   C49       1.0  0.2692597076453612  0.4378041953238391  0.4168914288102003  1.0000
  C   C50       1.0  0.25642633432122064  0.4311002479430448  0.4518360625781198  1.0000
  C   C51       1.0  0.24508013395781297  0.4497591708533498  0.4673046664250521  1.0000
  C   C52       1.0  0.24632522833848933  0.47498101354195266  0.44767706387246303  1.0000
  C   C53       1.0  0.25889501499400197  0.4814675051027396  0.4126905987924659  1.0000
  C   C54       1.0  0.27026826768906587  0.46288427527949244  0.3972932345651085  1.0000
  H   H33       1.0  0.2557100333859514  0.4117400095451736  0.46714895243844046  1.0000
  H   H34       1.0  0.2357620072553114  0.4448551969821129  0.4945008466077712  1.0000
  H   H35       1.0  0.25968760340952657  0.5008443790224169  0.39734237565804803  1.0000
  H   H36       1.0  0.2796370044810994  0.46789091884268785  0.37020144631836  1.0000
  C   C55       1.0  0.27908203270278364  0.44200579502650217  0.19428777994143356  1.0000
  C   C56       1.0  0.26205324480581754  0.4302063024917463  0.161432011278216  1.0000
  C   C57       1.0  0.246657570793073  0.4449883448379579  0.14537164293429553  1.0000
  C   C58       1.0  0.24833576866786136  0.4717366712034832  0.1621005896777304  1.0000
  C   C59       1.0  0.26545646434565623  0.4835713284496657  0.19487660287043568  1.0000
  C   C60       1.0  0.2807635098108601  0.4687678024187169  0.21094586992738715  1.0000
  H   H37       1.0  0.260626767368021  0.409490818261982  0.14841363667150523  1.0000
  H   H38       1.0  0.23350753567157784  0.4356967397908611  0.12012820198885896  1.0000
  H   H39       1.0  0.2668971357482232  0.5042785406397815  0.20792234475586296  1.0000
  H   H40       1.0  0.2939322863866923  0.4781388604905096  0.23613082656203171  1.0000
  C   C61       1.0  0.43338668663652863  0.5719673909434201  0.2936012270281614  1.0000
  C   C62       1.0  0.42737516594366187  0.5600690552539475  0.25818763896940955  1.0000
  C   C63       1.0  0.4491846235782212  0.578548484917513  0.2306826846844646  1.0000
  C   C64       1.0  0.47726024505840003  0.6088459574550253  0.23850641624451369  1.0000
  C   C65       1.0  0.4832593490604771  0.6209032099351875  0.2738685215597079  1.0000
  C   C66       1.0  0.4612069980558466  0.6025602179666256  0.3013278382119452  1.0000
  H   H41       1.0  0.405683332694743  0.5368437085610419  0.2518526472463489  1.0000
  H   H42       1.0  0.44433853487978986  0.5692447579856942  0.20332225523671665  1.0000
  H   H43       1.0  0.5048408006363265  0.6443188357126004  0.2800750806946589  1.0000
  H   H44       1.0  0.46591970992214027  0.6119165400644977  0.3286541559205605  1.0000
  C   C67       1.0  0.40690205289190173  0.3896997187727573  0.34147103143671675  1.0000
  C   C68       1.0  0.3817523311073568  0.3734015359462599  0.3664148439252773  1.0000
  C   C69       1.0  0.38369432383226415  0.3537490105996729  0.39296090456850713  1.0000
  C   C70       1.0  0.4111523318420629  0.35100032666764713  0.39536384479008335  1.0000
  C   C71       1.0  0.43662177333917435  0.36792803555131903  0.37093350455148616  1.0000
  C   C72       1.0  0.43428426834909406  0.3868493885473662  0.3437946406275944  1.0000
  H   H45       1.0  0.36047674500253923  0.3753207594170497  0.3647488508652962  1.0000
  H   H46       1.0  0.3638636302819157  0.34068100281389535  0.4116962696807416  1.0000
  H   H47       1.0  0.45776208163492516  0.36581733579377695  0.37238014714100137  1.0000
  H   H48       1.0  0.4537929370990164  0.39936535239870397  0.32457499767075515  1.0000
  C   C73       1.0  0.26289867118890786  0.8375008355429273  0.5030700508965998  1.0000
  C   C74       1.0  0.2464686637077088  0.8314867054345464  0.5359304836173773  1.0000
  C   C75       1.0  0.22100038517215795  0.799898976885156  0.5447918239017856  1.0000
  C   C76       1.0  0.21134894769198662  0.7743022917819473  0.5203508606691567  1.0000
  C   C77       1.0  0.22718638487517162  0.7804031572699334  0.487127344664495  1.0000
  C   C78       1.0  0.2530104136764228  0.8118700302030156  0.4785962700200429  1.0000
  H   H49       1.0  0.25320980831765205  0.8514442798060821  0.5542706602381916  1.0000
  H   H50       1.0  0.27827929456139555  0.7957402456106496  0.04933235502727642  1.0000
  H   H51       1.0  0.2195606005153894  0.7607732095232493  0.46792901231467565  1.0000
  H   H52       1.0  0.2651949812574316  0.8162163340767373  0.45309664969628455  1.0000
  C   C79       1.0  0.2653191252197594  0.8340663643999805  0.2836614416273577  1.0000
  C   C80       1.0  0.2471687162605597  0.8270290202895042  0.2516177810720426  1.0000
  C   C81       1.0  0.2437808523472372  0.8026404626019636  0.2281216729426047  1.0000
  C   C82       1.0  0.25801613319220257  0.7848345357924282  0.23706230940588377  1.0000
  C   C83       1.0  0.2761807466378548  0.7919477011723275  0.26907758263118114  1.0000
  C   C84       1.0  0.2800758409844471  0.8167205795098321  0.2922240876804857  1.0000
  H   H53       1.0  0.2358424746362746  0.8405434565784442  0.24488096006914045  1.0000
  H   H54       1.0  0.2300651332605325  0.7975541841926665  0.20326362577138563  1.0000
  H   H55       1.0  0.28728312255193306  0.7782518090933752  0.27603025513765755  1.0000
  H   H56       1.0  0.2941684256810684  0.8220983265178544  0.31688276226330486  1.0000
  C   C85       1.0  0.49067227825982135  0.23114332332436732  0.32256094042200084  1.0000
  C   C86       1.0  0.47513899845333324  0.2431935141476022  0.34328493826675194  1.0000
  C   C87       1.0  0.49290781260218064  0.26824818330126354  0.3685504700126232  1.0000
  C   C88       1.0  0.5263449289693384  0.2813853922099137  0.37319454286211223  1.0000
  C   C89       1.0  0.5420223639790169  0.26964630225732733  0.3521234458937797  1.0000
  C   C90       1.0  0.5242054301463027  0.2445042688071345  0.32682922461294966  1.0000
  H   H57       1.0  0.44920509830512967  0.23294817253543754  0.3399925930451473  1.0000
  H   H58       1.0  0.4806805202180392  0.2772845078649948  0.38451220584746587  1.0000
  H   H59       1.0  0.5678964339670406  0.2797261076810776  0.35567082689627677  1.0000
  H   H60       1.0  0.5363249196950409  0.23527686976170212  0.3109328061988985  1.0000
  C   C91       1.0  0.4664934774994929  0.2548266834410741  0.0854748024443586  1.0000
  C   C92       1.0  0.4482873783019304  0.22800263637622034  0.10803709774303495  1.0000
  C   C93       1.0  0.460281619042998  0.208277941343484  0.11813799362102105  1.0000
  C   C94       1.0  0.49094322781063016  0.215772529218323  0.10647385871661777  1.0000
  C   C95       1.0  0.5088424301703283  0.24217976703266886  0.08326154883355454  1.0000
  C   C96       1.0  0.4967032673620232  0.2617152292044401  0.0728394040579573  1.0000
  H   H61       1.0  0.424677701327867  0.22227626838937442  0.11746444109738442  1.0000
  H   H62       1.0  0.44588144179251743  0.1873026689199041  0.13509383191606233  1.0000
  H   H63       1.0  0.5324056153338634  0.247821044219733  0.07373193203622018  1.0000
  H   H64       1.0  0.5110589730461497  0.28248273053629547  0.05565827360220541  1.0000
  C   C97       1.0  0.4400038896569246  0.04540278212663466  0.2723062537634348  1.0000
  C   C98       1.0  0.43820819774763375  0.06388885039450672  0.3001431897657526  1.0000
  C   C99       1.0  0.42346950889194784  0.04913779668324292  0.33297278425418064  1.0000
  C   C100      1.0  0.4102372481502132  0.015802246576232637  0.33815885490509445  1.0000
  C   C101      1.0  0.4121346293963413  0.9973186308236084  0.3103407028832965  1.0000
  C   C102      1.0  0.42697227260513876  0.01206318025162112  0.27752569477934413  1.0000
  H   H65       1.0  0.4479337319863459  0.08955281398136508  0.29634411711576697  1.0000
  H   H66       1.0  0.4221096219017894  0.06364264189460433  0.35433110789250466  1.0000
  H   H67       1.0  0.40237172576375246  0.9717558462180386  0.3141066964132236  1.0000
  H   H68       1.0  0.4283147905372978  0.997648904886876  0.2560726213729324  1.0000
  C   C103      1.0  0.5877426042277691  0.8248414848100669  0.36499676012525406  1.0000
  C   C104      1.0  0.5735571787305196  0.805796931588017  0.3339359206257862  1.0000
  C   C105      1.0  0.5795322132059464  0.7813538719842811  0.3245930742913029  1.0000
  C   C106      1.0  0.599496787810242  0.7754883063997468  0.3464582106611928  1.0000
  C   C107      1.0  0.6142506470207686  0.7949089227352456  0.3772547901500981  1.0000
  C   C108      1.0  0.6088149412564026  0.8199168267054092  0.38617962164143443  1.0000
  H   H69       1.0  0.55760752370077  0.8097825029788329  0.31714585996656663  1.0000
  H   H70       1.0  0.5682041030561475  0.76675420529008  0.30072987916078364  1.0000
  H   H71       1.0  0.6301641782139066  0.7908571550505404  0.39398370151887435  1.0000
  H   H72       1.0  0.6209490512828604  0.8354213494779406  0.40933199202559173  1.0000
  C   C109      1.0  0.5723841444560205  0.7846132361299084  0.0536950248998494  1.0000
  C   C110      1.0  0.5688281750092132  0.8060954202498953  0.07545254670600003  1.0000
  C   C111      1.0  0.5729850557649951  0.8061437470391678  0.11291505488980898  1.0000
  C   C112      1.0  0.581046804898325  0.7850058684744474  0.12860066744100151  1.0000
  C   C113      1.0  0.5839995870449988  0.7631117243855443  0.10693418330216342  1.0000
  C   C114      1.0  0.579436879327128  0.7627737717658615  0.06951310742181997  1.0000
  H   H73       1.0  0.5629548041667894  0.8226888447100645  0.06342727475467327  1.0000
  H   H74       1.0  0.5704714302014283  0.822967018502482  0.12974372042233603  1.0000
  H   H75       1.0  0.5904946385726293  0.7469469331232258  0.1188190957915232  1.0000
  H   H76       1.0  0.582283270222706  0.7461795212822375  0.052653071820587385  1.0000
  C   C115      1.0  0.4901863066622896  0.9086366203548715  0.45823190806478437  1.0000
  C   C116      1.0  0.48783784667376284  0.8898218072404374  0.42832710348223674  1.0000
  C   C117      1.0  0.46012125612640614  0.8761793212803966  0.40575133327608787  1.0000
  C   C118      1.0  0.4346018570859043  0.8810758241588941  0.4131740857629964  1.0000
  C   C119      1.0  0.4365086303112513  0.898779914615173  0.44393749716025854  1.0000
  C   C120      1.0  0.4644070215900536  0.9129264229072983  0.46608989114361815  1.0000
  H   H77       1.0  0.5076818115777473  0.8864253582444925  0.42205263984766894  1.0000
  H   H78       1.0  0.4587604982774882  0.8623488427655115  0.3821094690944178  1.0000
  H   H79       1.0  0.41661581642740103  0.9017744544570436  0.45064752418862597  1.0000
  H   H80       1.0  0.46591420788781224  0.9270848094270757  0.48945622853729714  1.0000
  C   C121      1.0  0.8220263913437474  0.20884691423498858  0.5350999265657237  1.0000
  C   C122      1.0  0.8516542052984714  0.22723804617357804  0.5167949294864266  1.0000
  C   C123      1.0  0.8523538288417715  0.23880059486748703  0.4818693540541574  1.0000
  C   C124      1.0  0.8232586181846465  0.23120107067310708  0.46478141094763714  1.0000
  C   C125      1.0  0.7936321658114084  0.21279208162036953  0.48308476151414914  1.0000
  C   C126      1.0  0.793052378316179  0.2020877688305127  0.518390558603211  1.0000
  H   H81       1.0  0.8741369303025606  0.23251898940107082  0.5296196999871664  1.0000
  H   H82       1.0  0.8752648493086692  0.25285575775668406  0.46783057680930246  1.0000
  H   H83       1.0  0.7710819810949677  0.20692493409887944  0.4699701953792993  1.0000
  H   H84       1.0  0.770135785133384  0.18808204016808372  0.5323510082838773  1.0000
  C   C127      1.0  0.7977245433016831  0.1985620259164872  0.22925869987521735  1.0000
  C   C128      1.0  0.8059615348463655  0.22509831445698789  0.20706996828988108  1.0000
  C   C129      1.0  0.8317896798810933  0.25640220594386587  0.2168671016463426  1.0000
  C   C130      1.0  0.8489617823742046  0.26147027464886946  0.2493262372755755  1.0000
  C   C131      1.0  0.840798128664393  0.23495793209337149  0.2714785419528152  1.0000
  C   C132      1.0  0.815606305932305  0.20353827021404325  0.2611354081043864  1.0000
  H   H85       1.0  0.7922724879215095  0.2216446272663917  0.18259727421808655  1.0000
  H   H86       1.0  0.8379905374192798  0.2768498171432392  0.19963711183728944  1.0000
  H   H87       1.0  0.8542505673074895  0.23860487317731074  0.296311263449568  1.0000
  H   H88       1.0  0.8098612377232164  0.18299830636472136  0.2779942685078539  1.0000
  C   C133      1.0  0.6503587353727294  0.18507227142100716  0.14395986215420337  1.0000
  C   C134      1.0  0.6630651047750199  0.18447080785677752  0.1777712339396007  1.0000
  C   C135      1.0  0.6493795608543119  0.18833836296319306  0.20928818114589393  1.0000
  C   C136      1.0  0.6226626484283725  0.19223247216828723  0.20699192299618624  1.0000
  C   C137      1.0  0.6108198113979566  0.1940041055099592  0.17314748279831635  1.0000
  C   C138      1.0  0.6248449615991273  0.19074009564504427  0.14171794869918808  1.0000
  H   H89       1.0  0.6830174938276341  0.18047312485909647  0.1796388932860888  1.0000
  H   H90       1.0  0.6586813697339744  0.18709367601736987  0.23543580061410682  1.0000
  H   H91       1.0  0.5907381383604894  0.19779217059691953  0.17113359419012525  1.0000
  H   H92       1.0  0.6152297698418624  0.1916446225587831  0.11560409443091567  1.0000
  C   C139      1.0  0.6595345026077484  0.014012067699327613  0.07577875652968903  1.0000
  C   C140      1.0  0.6934923386131259  0.04840690011184843  0.5614346602916602  1.0000
  C   C141      1.0  0.6918437860222202  0.030965710715278538  0.5303180127844479  1.0000
  C   C142      1.0  0.6803717827593957  0.9977042615486078  0.5323456241915334  1.0000
  C   C143      1.0  0.6366612022310519  0.9615919990943379  0.04511751974387239  1.0000
  C   C144      1.0  0.6349600434462471  0.9810203406145852  0.072162014742668  1.0000
  H   H93       1.0  0.7015468977111345  0.07385010107402461  0.5597293274870128  1.0000
  H   H94       1.0  0.6987728224588148  0.042971398876491713  0.5044614428552027  1.0000
  H   H95       1.0  0.6174598753463479  0.9363324361282261  0.042596862247162644  1.0000
  H   H96       1.0  0.614358297510264  0.9705293973615255  0.09020604809350376  1.0000
  Fe  Fe49      1.0  0.7165474380995415  0.1079449055244607  0.6357145504289823  1.0000
  S   S97       1.0  0.7240262861904155  0.14250561776349954  0.5911339983727634  1.0000
  S   S98       1.0  0.6841000348711366  0.05322204361455433  0.6337009678298866  1.0000
  Fe  Fe50      1.0  0.7578990305161688  0.1625526592913877  0.6902655195810468  1.0000
  S   S99       1.0  0.768627257842239  0.20158270913591367  0.6503771021569645  1.0000
  S   S100      1.0  0.7712918364210767  0.17110664617743981  0.7494899879888505  1.0000
  Fe  Fe51      1.0  0.7158539259042791  0.1700041732741565  0.6344633834077384  1.0000
  S   S101      1.0  0.6853974208316926  0.19244044221947432  0.6294466573619157  1.0000
  Fe  Fe52      1.0  0.7760700124353495  0.17082711792957703  0.6110502078471608  1.0000
  S   S102      1.0  0.8216750612543384  0.1924825488023329  0.5775646291051602  1.0000
  S   S103      1.0  0.7044829339854101  0.13336238824296384  0.6774425918265684  1.0000
  S   S104      1.0  0.7692346041200255  0.13379971336988314  0.6523929886935794  1.0000
  Fe  Fe53      1.0  0.6208904813447241  0.9035207018461658  0.9698813416779581  1.0000
  S   S105      1.0  0.5792990927827035  0.8740132796213863  0.007315922897143778  1.0000
  S   S106      1.0  0.6659598962621938  0.951117106959709  0.9872781214602119  1.0000
  Fe  Fe54      1.0  0.5853349227508384  0.8572760644461875  0.9056992934307282  1.0000
  S   S107      1.0  0.540570759928261  0.8254015432122215  0.9382791555906058  1.0000
  S   S108      1.0  0.5833885820491244  0.8453354452020471  0.8464034886751236  1.0000
  Fe  Fe55      1.0  0.5483585054482802  0.8720255537547119  0.9607208051027325  1.0000
  S   S109      1.0  0.5091343763757169  0.8825953930772144  0.9722098184452713  1.0000
  Fe  Fe56      1.0  0.5760823887680017  0.8306125330640063  0.9810302821995439  1.0000
  S   S110      1.0  0.5697530889461706  0.7855386056436222  0.006635874677400233  1.0000
  S   S111      1.0  0.5901863258972695  0.9037648205156388  0.9245246404900724  1.0000
  S   S112      1.0  0.620770017320462  0.8602403720025161  0.9472480985841338  1.0000
  Fe  Fe57      1.0  0.5114051086104252  0.1941115841264781  0.7572931551330997  1.0000
  S   S113      1.0  0.4700507264265832  0.1783369398362294  0.7176111983757332  1.0000
  S   S114      1.0  0.5331858547721466  0.23741926463527835  0.7948360878950272  1.0000
  Fe  Fe58      1.0  0.5313007140105244  0.14927848223607112  0.7258421540822171  1.0000
  S   S115      1.0  0.4926448159351063  0.13066651340384694  0.6831709465028057  1.0000
  S   S116      1.0  0.5614533219458576  0.1264914397286459  0.7293705289429436  1.0000
  Fe  Fe59      1.0  0.5059371503801849  0.1822407549012702  0.6766528213702455  1.0000
  S   S117      1.0  0.5182353724958328  0.20569577323963908  0.6216921037867488  1.0000
  Fe  Fe60      1.0  0.46020371149945977  0.1279604971559419  0.7277741445721919  1.0000
  S   S118      1.0  0.4117006925416957  0.08048992722350064  0.7268277814439674  1.0000
  S   S119      1.0  0.5478832684907936  0.20117445128818476  0.7154356659965652  1.0000
  S   S120      1.0  0.49826377218614376  0.14339291561644227  0.7712380086957519  1.0000
  Fe  Fe61      1.0  0.4170403383056462  0.9241298561543481  0.8510192334786272  1.0000
  S   S121      1.0  0.39455247261392834  0.9334175918573482  0.8981642667669011  1.0000
  S   S122      1.0  0.4707311258366463  0.9438085248186264  0.8465313456547345  1.0000
  Fe  Fe62      1.0  0.3516828296269882  0.8827931019395829  0.8119610584260151  1.0000
  S   S123      1.0  0.3234431777457764  0.8891082719663687  0.8559246286689783  1.0000
  S   S124      1.0  0.33392860243291494  0.8510461577836956  0.7620984637194073  1.0000
  Fe  Fe63      1.0  0.3659171032574648  0.9414737977655929  0.8561130410104406  1.0000
  S   S125      1.0  0.36719691209008776  0.9883777860846906  0.8630103155147646  1.0000
  Fe  Fe64      1.0  0.35471115048671337  0.8806457620071068  0.894032300687599  1.0000
  S   S126      1.0  0.34186206609337166  0.8461997478479975  0.9411930290622189  1.0000
  S   S127      1.0  0.39127860788097535  0.9355977251809677  0.809054446974553  1.0000
  S   S128      1.0  0.38001911276612815  0.8708686904466129  0.8498800792798583  1.0000
  Fe  Fe65      1.0  0.37930863567091583  0.5094769071622005  0.8058055805742845  1.0000
  S   S129      1.0  0.38832227872140374  0.4822703364337874  0.7633564295294238  1.0000
  S   S130      1.0  0.40734137309315777  0.5642775838498231  0.8093200339859301  1.0000
  Fe  Fe66      1.0  0.3226384104901479  0.44789105748355584  0.8375630402444445  1.0000
  S   S131      1.0  0.32694129413143014  0.4159927541804435  0.7968936202615114  1.0000
  S   S132      1.0  0.2857826641102685  0.42201167881964946  0.8815614918756585  1.0000
  Fe  Fe67      1.0  0.3806908140065374  0.4475640058846294  0.8079379570546581  1.0000
  S   S133      1.0  0.4101432520530524  0.4237335562802326  0.8130374671774495  1.0000
  Fe  Fe68      1.0  0.3337773533689633  0.453473235680069  0.756454622702245  1.0000
  S   S134      1.0  0.3136660819945785  0.4419396944633708  0.6992738062512964  1.0000
  S   S135      1.0  0.3760929487844087  0.477239912397318  0.8512028124369844  1.0000
  S   S136      1.0  0.32509626164018035  0.4829469103819774  0.7963070781807206  1.0000
  Fe  Fe69      1.0  0.46781582250396747  0.3077043816299784  0.021667632961372307  1.0000
  S   S137      1.0  0.5020441892564224  0.3048755473857483  0.9834565000261799  1.0000
  S   S138      1.0  0.4508114857159943  0.279185715990247  0.0736742524703069  1.0000
  Fe  Fe70      1.0  0.4575252415929514  0.3520415279195044  0.9709245890988543  1.0000
  S   S139      1.0  0.4902877193312485  0.35146860311620454  0.9289530626074851  1.0000
  S   S140      1.0  0.43701865441427157  0.38453074224762746  0.9665136427320523  1.0000
  Fe  Fe71      1.0  0.46577154221830963  0.2982368967778577  0.9408140588459512  1.0000
  S   S141      1.0  0.4426972031980478  0.25678179595791784  0.9006555628841272  1.0000
  Fe  Fe72      1.0  0.5230783967165372  0.3584867251349021  0.9759768142101605  1.0000
  S   S142      1.0  0.5762716700061531  0.3978069623564519  0.9711063346013529  1.0000
  S   S143      1.0  0.4301202667266994  0.2980627641575774  0.9794946743858757  1.0000
  S   S144      1.0  0.49154208857903225  0.3618588283944381  0.01748738733123467  1.0000
  Fe  Fe73      1.0  0.729506361123216  0.579060431503187  0.01964511970032401  1.0000
  S   S145      1.0  0.7332777617884781  0.5525296723811739  0.06719196603383848  1.0000
  S   S146      1.0  0.7363813615004009  0.564395147091758  0.9640998757429555  1.0000
  Fe  Fe74      1.0  0.7429525344609546  0.6291664028120456  0.5474116833772862  1.0000
  S   S147      1.0  0.7458993950725106  0.5989398421010654  0.5911872162895013  1.0000
  S   S148      1.0  0.7179521728955558  0.6574476509932142  0.5511487505544179  1.0000
  Fe  Fe75      1.0  0.7971103691626055  0.6192693943518587  0.5719732262459086  1.0000
  S   S149      1.0  0.842549363180664  0.6408605451091812  0.6064868043154202  1.0000
  Fe  Fe76      1.0  0.6853152707373998  0.5453663991281962  0.08341435934345443  1.0000
  S   S150      1.0  0.6409413685377735  0.4983315103512765  0.10091164882194792  1.0000
  S   S151      1.0  0.7953443132346165  0.6525746337361144  0.5314223134146828  1.0000
  S   S152      1.0  0.6797569440320671  0.5682727146030917  0.03411159710934686  1.0000
  Fe  Fe77      1.0  0.6110093953665251  0.7327383447267529  0.6637385685293075  1.0000
  S   S153      1.0  0.6400880516362835  0.7264931521411006  0.706751172108973  1.0000
  S   S154      1.0  0.6384190887763195  0.7762895461992898  0.627670975557888  1.0000
  Fe  Fe78      1.0  0.5478240246883136  0.6726766766684036  0.6863863229583463  1.0000
  S   S155      1.0  0.5716586039201728  0.6614752432297398  0.7311162865866654  1.0000
  S   S156      1.0  0.49375486495448057  0.6417075556630638  0.6755327129245969  1.0000
  Fe  Fe79      1.0  0.5983502063490761  0.7151088673839122  0.7428833542648942  1.0000
  S   S157      1.0  0.6077144925255908  0.7339513074852702  0.8003549820507437  1.0000
  Fe  Fe80      1.0  0.6111081881261471  0.6738354601706777  0.6907862122490875  1.0000
  S   S158      1.0  0.634135078144196  0.6436605683784534  0.6884883438388123  1.0000
  S   S159      1.0  0.5714327506345454  0.725528926558733  0.7011990232337695  1.0000
  S   S160      1.0  0.5850119052474592  0.680780097515099  0.6447745147517274  1.0000
  Fe  Fe81      1.0  0.909771843011004  0.3223670530446382  0.8509719840194011  1.0000
  S   S161      1.0  0.8905931747408227  0.34795188755823736  0.882707335876432  1.0000
  S   S162      1.0  0.8974773906761404  0.3058415870109461  0.7930487252568805  1.0000
  Fe  Fe82      1.0  0.9599832807558599  0.33387251191426415  0.9080359151738295  1.0000
  S   S163      1.0  0.9456376483459182  0.3608397275459661  0.9452089175840749  1.0000
  S   S164      1.0  0.9971951491168679  0.3193808508703426  0.9124689044991182  1.0000
  Fe  Fe83      1.0  0.8941374822496336  0.3217648020517922  0.9306548979019209  1.0000
  S   S165      1.0  0.8537744152139183  0.3056539521972558  0.9711007760585681  1.0000
  Fe  Fe84      1.0  0.9429524485534764  0.3852985911596023  0.8949772851095337  1.0000
  S   S166      1.0  0.9633173657843718  0.4393668912559775  0.8941733147170307  1.0000
  S   S167      1.0  0.9083702078252527  0.29238584202919476  0.897629839301897  1.0000
  S   S168      1.0  0.9621242255195815  0.3620572851215582  0.8593065199691173  1.0000
  Fe  Fe85      1.0  0.1859858252761351  0.4663520718434445  0.5928241467607802  1.0000
  S   S169      1.0  0.20650497517166752  0.5127228859901631  0.5611513516112862  1.0000
  S   S170      1.0  0.2033503239228378  0.4680972020190677  0.6501930796401971  1.0000
  Fe  Fe86      1.0  0.1442853083548547  0.42485679969802653  0.04262521856912338  1.0000
  S   S171      1.0  0.14941664212886338  0.46229082239089564  0.003519863613296925  1.0000
  S   S172      1.0  0.10799096647841314  0.3715165763431977  0.0327827166203285  1.0000
  Fe  Fe87      1.0  0.20304395378405196  0.4820425937836975  0.008843667678876788  1.0000
  S   S173      1.0  0.23387748177333473  0.5021186633615742  0.9590591432349419  1.0000
  Fe  Fe88      1.0  0.1543623108927548  0.49755160251745617  0.5522939522845942  1.0000
  S   S174      1.0  0.12977248837603603  0.5261388958071685  0.5520237220722175  1.0000
  S   S175      1.0  0.19786914649249596  0.4425072902794873  0.04494826772851224  1.0000
  S   S176      1.0  0.13416186637790076  0.45375395546002123  0.5873891627598499  1.0000
  Fe  Fe89      1.0  0.17138423442714523  0.7446255396850895  0.6671462452432271  1.0000
  S   S177      1.0  0.13727354801607936  0.7404595780411879  0.6229729376752564  1.0000
  S   S178      1.0  0.18907333077128619  0.7865642675623431  0.7062249471675641  1.0000
  Fe  Fe90      1.0  0.16475761405236414  0.680630013075848  0.6460886332021353  1.0000
  S   S179      1.0  0.1295570848719608  0.6714121466097552  0.601290525408914  1.0000
  S   S180      1.0  0.1841976377799645  0.6480240597569341  0.6561709652324725  1.0000
  Fe  Fe91      1.0  0.16394778256397569  0.7240450608031699  0.588491227432269  1.0000
  S   S181      1.0  0.17953061918098218  0.7344991987005065  0.5305082069929992  1.0000
  Fe  Fe92      1.0  0.10642949817818649  0.6883328701223272  0.6404828358457099  1.0000
  S   S182      1.0  0.05166800773384076  0.6645451872766182  0.6444204443821479  1.0000
  S   S183      1.0  0.20073612575906416  0.7325858835703153  0.6311121826162166  1.0000
  S   S184      1.0  0.13904954717683418  0.6935360420032991  0.6867591330599776  1.0000
  Fe  Fe93      1.0  0.8838415718847236  0.5913574799900924  0.8551893364223027  1.0000
  S   S185      1.0  0.8434482070700261  0.5440330921383518  0.8327006363389909  1.0000
  S   S186      1.0  0.8768231923712793  0.6202168507922229  0.8983850598813294  1.0000
  Fe  Fe94      1.0  0.9342737501616502  0.5912400793069091  0.8065615272985825  1.0000
  S   S187      1.0  0.8976370322045049  0.5438792732798376  0.7798820340861492  1.0000
  S   S188      1.0  0.988417231693568  0.6147679674112994  0.7979740646027599  1.0000
  Fe  Fe95      1.0  0.8654229069997865  0.5642551422528524  0.7788665340436414  1.0000
  S   S189      1.0  0.8261960379128522  0.5499933779427405  0.7369886777756706  1.0000
  Fe  Fe96      1.0  0.8787372630149317  0.5276285625375972  0.8356827016032503  1.0000
  S   S190      1.0  0.8602937927185459  0.47610812127487945  0.8517971570407318  1.0000
  S   S191      1.0  0.9037087776897188  0.6134431867140271  0.8008319517883593  1.0000
  S   S192      1.0  0.917670970903639  0.5732207800952841  0.8629266103134813  1.0000
  C   C145      1.0  0.033224217015733984  0.6484712596768993  0.6863451586332353  1.0000
  C   C146      1.0  0.05063646958294887  0.6450313680807012  0.7143271972980457  1.0000
  C   C147      1.0  0.03652586578008932  0.634610458610123  0.7484092914152883  1.0000
  C   C148      1.0  0.004577428066264044  0.6267652544905351  0.7545142948098783  1.0000
  C   C149      1.0  0.9865848652507696  0.628986698770075  0.7262593749540993  1.0000
  C   C150      1.0  0.0010008314114715955  0.640025252957667  0.6922567532209258  1.0000
  H   H97       1.0  0.07498491087826276  0.6503732913265465  0.7097411782547886  1.0000
  H   H98       1.0  0.0504027658749957  0.6325493578493424  0.7700963268609088  1.0000
  H   H99       1.0  0.9618413707334038  0.62283628136158  0.7307436953191094  1.0000
  H   H100      1.0  0.9872923672015359  0.6424183733024662  0.6706166540401919  1.0000
  C   C151      1.0  0.14394640175378023  0.558221987850107  0.5833212924445454  1.0000
  C   C152      1.0  0.12698120465257445  0.5741879593908287  0.5867488009947512  1.0000
  C   C153      1.0  0.13867545749418342  0.6011333454817676  0.6098837563389755  1.0000
  C   C154      1.0  0.1675706959183428  0.6124998512249008  0.6294969359329806  1.0000
  C   C155      1.0  0.18404664292996226  0.5959125881410677  0.626899189471254  1.0000
  C   C156      1.0  0.17225239390822492  0.5687704925126079  0.6038460968780887  1.0000
  H   H101      1.0  0.1048555678448158  0.5658862747529931  0.5712667057504333  1.0000
  H   H102      1.0  0.125080810626675  0.612824435325046  0.6127644931197589  1.0000
  H   H103      1.0  0.20620609542106694  0.604322761905221  0.6423765442872691  1.0000
  H   H104      1.0  0.19404168088581825  0.5601329722331445  0.02728324371749724  1.0000
  C   C157      1.0  0.9356707074286805  0.4503607865493458  0.8804175762445013  1.0000
  C   C158      1.0  0.907364009065628  0.42843779556567657  0.8612308347570765  1.0000
  C   C159      1.0  0.8843986160726022  0.4366476855268865  0.852438760811303  1.0000
  C   C160      1.0  0.8902101625236724  0.46730071599428336  0.861634189915699  1.0000
  C   C161      1.0  0.9190730599152015  0.48980804030771813  0.8796808254793764  1.0000
  C   C162      1.0  0.9416215478759684  0.4811591722798209  0.8894423088552267  1.0000
  H   H105      1.0  0.9032844753224806  0.40529627706836935  0.8526962280938545  1.0000
  H   H106      1.0  0.8622530970698165  0.4193547524771528  0.8380595886507377  1.0000
  H   H107      1.0  0.9235175927456385  0.5134429442534364  0.8870978734876316  1.0000
  H   H108      1.0  0.9635038165146486  0.4981830771430489  0.9043878230997537  1.0000
  C   C163      1.0  0.07727260436572991  0.3588081224646562  0.9994792752634927  1.0000
  C   C164      1.0  0.06527114181423722  0.378208607650646  0.9882026088302688  1.0000
  C   C165      1.0  0.03999039035846996  0.3662640979699846  0.962065545921087  1.0000
  C   C166      1.0  0.027433724236968438  0.33531839835596283  0.9466403960605445  1.0000
  C   C167      1.0  0.0401831136889097  0.3165708375477957  0.9573709669603369  1.0000
  C   C168      1.0  0.06453658237774795  0.3280094036107539  0.9839868027042797  1.0000
  H   H109      1.0  0.0748401653632988  0.4019728850324301  0.0002596224012236803  1.0000
  H   H110      1.0  0.0304126749992375  0.38101471002561166  0.9537329192488765  1.0000
  H   H111      1.0  0.030759877971133553  0.2927539032574824  0.9455257973373441  1.0000
  H   H112      1.0  0.07364028666053782  0.31290693829304683  0.9925760045695523  1.0000
  C   C169      1.0  0.8383510707340052  0.6158453832797983  0.6428679250812476  1.0000
  C   C170      1.0  0.8097165205878731  0.5854332112123846  0.6467174816993085  1.0000
  C   C171      1.0  0.8065082140625651  0.5654536979515608  0.6756678827740349  1.0000
  C   C172      1.0  0.8318907958842596  0.5757262111428069  0.7008551103827791  1.0000
  C   C173      1.0  0.8605522307479877  0.6062280430005885  0.6972311298032853  1.0000
  C   C174      1.0  0.8637884306480437  0.6262731123997578  0.6681388853540351  1.0000
  H   H113      1.0  0.7900785545420441  0.5771547013477134  0.6272425402307861  1.0000
  H   H114      1.0  0.7843111333845595  0.5418477521658503  0.6784018168011134  1.0000
  H   H115      1.0  0.8802073771926033  0.6142672699908386  0.7166297675070262  1.0000
  H   H116      1.0  0.8859845015671682  0.649818205683702  0.6651833663168988  1.0000
  C   C175      1.0  0.7753549987333292  0.5809862690228358  0.9454397365773834  1.0000
  C   C176      1.0  0.8012592768641803  0.6121627201648415  0.9547386228362487  1.0000
  C   C177      1.0  0.8322804324069952  0.624162553720794  0.9398558889832378  1.0000
  C   C178      1.0  0.8375330462243361  0.6050137926573649  0.9157949449194823  1.0000
  C   C179      1.0  0.8115699752574563  0.5739258266561248  0.906554993060018  1.0000
  C   C180      1.0  0.7804905601698038  0.5621478229620684  0.9208850483780596  1.0000
  H   H117      1.0  0.7973178894541902  0.6270685718941956  0.9732043469979448  1.0000
  H   H118      1.0  0.8522593256083826  0.6483341919504475  0.947012022758222  1.0000
  H   H119      1.0  0.8154621966810086  0.5586406240628445  0.8889249145653542  1.0000
  H   H120      1.0  0.7605330441780659  0.5379518684702831  0.9137332567329924  1.0000
  C   C181      1.0  0.6592379201943932  0.6498386878397056  0.6512667093588295  1.0000
  C   C182      1.0  0.6787604251421596  0.6363820979915145  0.6515386380971558  1.0000
  C   C183      1.0  0.697754001692406  0.6395088207041685  0.6214475355287755  1.0000
  C   C184      1.0  0.6969677227421573  0.6557395830959283  0.5906788995116791  1.0000
  C   C185      1.0  0.6778609034921381  0.6696600944975742  0.5906614204727306  1.0000
  C   C186      1.0  0.6591334296459721  0.6668365309059637  0.6209008420779034  1.0000
  H   H121      1.0  0.679211563773037  0.6235589136124541  0.6751519956021833  1.0000
  H   H122      1.0  0.7128353443315334  0.6292323027244486  0.622041431381178  1.0000
  H   H123      1.0  0.6772864644339934  0.6824255573466894  0.5670461545486482  1.0000
  H   H124      1.0  0.6443137633018782  0.6774609371943535  0.6205023487735596  1.0000
  C   C187      1.0  0.5948226784702682  0.42446761248776393  0.008213773915463962  1.0000
  C   C188      1.0  0.6249985145085862  0.453487248122355  0.003633419463575871  1.0000
  C   C189      1.0  0.63932586719265  0.4761504915658834  0.03202206460165402  1.0000
  C   C190      1.0  0.6236827640934871  0.4697873666207043  0.06532301180909061  1.0000
  C   C191      1.0  0.5937770151020384  0.4405244126662176  0.07014606087629804  1.0000
  C   C192      1.0  0.579387237492142  0.4179109815116261  0.04167523759370462  1.0000
  H   H125      1.0  0.6219262434823501  0.502873083590566  0.4640671693085077  1.0000
  H   H126      1.0  0.6744729442678259  0.528615985848854  0.4966495184509775  1.0000
  H   H127      1.0  0.5817522354412764  0.43529013432101166  0.09595485022003869  1.0000
  H   H128      1.0  0.5565814109283614  0.3952753503111315  0.045827178066355945  1.0000
  C   C193      1.0  0.27315909255709275  0.4453771753936063  0.9040976530081719  1.0000
  C   C194      1.0  0.25553332151304065  0.43372598210306224  0.9361654229079102  1.0000
  C   C195      1.0  0.2445655681046369  0.4516534476818574  0.9541697398218572  1.0000
  C   C196      1.0  0.25046382984411547  0.4808957144613615  0.9396584513058824  1.0000
  C   C197      1.0  0.2682887693734959  0.4926126399361931  0.9077268007085703  1.0000
  C   C198      1.0  0.2798264921985036  0.475022235681891  0.8901028710852049  1.0000
  H   H129      1.0  0.2505507157946931  0.410922722178528  0.9472567176779016  1.0000
  H   H130      1.0  0.23139609447679868  0.44270005831782966  0.9791025469600227  1.0000
  H   H131      1.0  0.2729706967181129  0.5152486693849159  0.8964071499892949  1.0000
  H   H132      1.0  0.2934587525562749  0.48421503495735707  0.8654389013674098  1.0000
  C   C199      1.0  0.2821358724267263  0.44809065258753794  0.6860657384617175  1.0000
  C   C200      1.0  0.27324594870534985  0.44520673938279265  0.6494477358862643  1.0000
  C   C201      1.0  0.24915477414888113  0.4512912385159069  0.6379048786517313  1.0000
  C   C202      1.0  0.23366574708742097  0.46009828630492344  0.6630345766657733  1.0000
  C   C203      1.0  0.24255582425801536  0.46292774536566617  0.6996162009380098  1.0000
  C   C204      1.0  0.2667012984156408  0.45699134132655667  0.711113366423983  1.0000
  H   H133      1.0  0.28503080039016154  0.4382294097303913  0.6299301274541642  1.0000
  H   H134      1.0  0.2423848901090807  0.44893218206527197  0.6096911229906933  1.0000
  H   H135      1.0  0.23058919375665785  0.4696461883200221  0.7191932418153669  1.0000
  H   H136      1.0  0.2731338776416664  0.45907548601102344  0.7393729952623846  1.0000
  C   C205      1.0  0.43168284671678697  0.5853111543525275  0.7721274492343819  1.0000
  C   C206      1.0  0.44787239611381624  0.5733421572940242  0.7525913999943529  1.0000
  C   C207      1.0  0.4678990493546398  0.5911759680110995  0.7235321975469354  1.0000
  C   C208      1.0  0.4714708514328765  0.620808284616031  0.7137987243864348  1.0000
  C   C209      1.0  0.4551859086585886  0.632659796808059  0.7332946195798126  1.0000
  C   C210      1.0  0.43572044957482653  0.6151709802023537  0.7627071198055311  1.0000
  H   H137      1.0  0.4453588413051204  0.550590274074658  0.760152429284568  1.0000
  H   H138      1.0  0.4802904055089277  0.5818338667344645  0.7083208551970127  1.0000
  H   H139      1.0  0.45764697085340533  0.6553915609205834  0.7256222244503772  1.0000
  H   H140      1.0  0.42337086538360325  0.624580660894105  0.7778759247237695  1.0000
  C   C211      1.0  0.41972270051749494  0.414855197630013  0.8557325724754936  1.0000
  C   C212      1.0  0.4165118565901465  0.42871953929531953  0.8873094558702544  1.0000
  C   C213      1.0  0.4224145533735293  0.41959258065793026  0.9211013928617608  1.0000
  C   C214      1.0  0.43138958983338443  0.3964592073729397  0.9235604394361657  1.0000
  C   C215      1.0  0.435242740860055  0.38307413692496  0.891972225593478  1.0000
  C   C216      1.0  0.4295978342497049  0.39239931029867026  0.8581741893903354  1.0000
  H   H141      1.0  0.4093298760151  0.4463432203058726  0.8857070985595519  1.0000
  H   H142      1.0  0.4196578776943677  0.43024654981470467  0.9454436922959798  1.0000
  H   H143      1.0  0.4419591747334832  0.36508110418163126  0.8935146131917929  1.0000
  H   H144      1.0  0.4321145783117871  0.38156825314908704  0.8338305386632124  1.0000
  C   C217      1.0  0.3088381653558417  0.8355754215378752  0.9700837599940558  1.0000
  C   C218      1.0  0.3065433493171797  0.8192444341504994  0.0021421870552655875  1.0000
  C   C219      1.0  0.27941980321137766  0.8079104551383745  0.024652349684957553  1.0000
  C   C220      1.0  0.25421026537293484  0.8127327000290213  0.015406619586266768  1.0000
  C   C221      1.0  0.2567746954524896  0.8296500023159213  0.9836203044979653  1.0000
  C   C222      1.0  0.2840076456627537  0.8410447132157132  0.9609592625291655  1.0000
  H   H145      1.0  0.32578014730723875  0.8151917127157571  0.009591567845540494  1.0000
  H   H146      1.0  0.20831975451581625  0.7954185469328285  0.5700878559533135  1.0000
  H   H147      1.0  0.2374974759896995  0.8337049589196589  0.9763330778099211  1.0000
  H   H148      1.0  0.28554487520636607  0.8536396429944396  0.9362815797753729  1.0000
  C   C223      1.0  0.29228147972702556  0.8307975443961828  0.7510689620341006  1.0000
  C   C224      1.0  0.27883237285021584  0.8034718552299964  0.7282965842118204  1.0000
  C   C225      1.0  0.24657130404354227  0.788777263339237  0.7158026467593662  1.0000
  C   C226      1.0  0.22790528249214834  0.8018619694975867  0.7253525374458228  1.0000
  C   C227      1.0  0.2410946776705184  0.8287992128968766  0.7487154593270905  1.0000
  C   C228      1.0  0.27320971623428  0.8431419520537478  0.7618019036722347  1.0000
  H   H149      1.0  0.29354330020425623  0.7938400347567655  0.720017483445192  1.0000
  H   H150      1.0  0.23645256471504533  0.7677938750106577  0.6981510714781296  1.0000
  H   H151      1.0  0.2267272153022328  0.8390306497972179  0.7561497279906705  1.0000
  H   H152      1.0  0.283565932482724  0.8644033391851598  0.7791322631831563  1.0000
  C   C229      1.0  0.5077477798966169  0.24199735155531815  0.8245863926697237  1.0000
  C   C230      1.0  0.4739722191024541  0.2203124261563133  0.823964093833134  1.0000
  C   C231      1.0  0.4541979743019177  0.22517948375555885  0.8473969189272376  1.0000
  C   C232      1.0  0.4681280611955969  0.25166711753297877  0.8714623834141976  1.0000
  C   C233      1.0  0.5019147179851949  0.2732756580206539  0.8721742551907071  1.0000
  C   C234      1.0  0.5216745157945841  0.2684721773262179  0.84866450941873  1.0000
  H   H153      1.0  0.4630806833280869  0.19987103504066878  0.8054094792891624  1.0000
  H   H154      1.0  0.428024670770542  0.208418487530164  0.8467996749832003  1.0000
  H   H155      1.0  0.5128015417219597  0.29372885202664145  0.8907176739748415  1.0000
  H   H156      1.0  0.5478379626151667  0.28528158929210434  0.8492201969847981  1.0000
  C   C235      1.0  0.4836786611904953  0.2718264040762331  0.5812903744889852  1.0000
  C   C236      1.0  0.5066536409937684  0.26875380001642507  0.561997737707331  1.0000
  C   C237      1.0  0.516964617898694  0.24833471517059436  0.5747522695382137  1.0000
  C   C238      1.0  0.5044243485645878  0.23090349793172985  0.6068471215765422  1.0000
  C   C239      1.0  0.48133631226337553  0.23384374466010405  0.6261332058645664  1.0000
  C   C240      1.0  0.4709712525811516  0.2542732036156697  0.6133402015176214  1.0000
  H   H157      1.0  0.5164849776640447  0.2821024177864731  0.5372160976358052  1.0000
  H   H158      1.0  0.534716700258271  0.24605616622435103  0.5596051387346044  1.0000
  H   H159      1.0  0.4710888907624974  0.21995559283747365  0.6504765059442623  1.0000
  H   H160      1.0  0.4529452804481644  0.25635028698931406  0.6281718404804716  1.0000
  C   C241      1.0  0.39979925300091823  0.055348949210893436  0.7650085492205282  1.0000
  C   C242      1.0  0.40862444953233906  0.06848724456994555  0.7998353540653813  1.0000
  C   C243      1.0  0.39788357487105624  0.04775570778081972  0.829847936464489  1.0000
  C   C244      1.0  0.37945436456511167  0.013853450242012011  0.8250922823572168  1.0000
  C   C245      1.0  0.3713978892207706  0.0007468046724441457  0.7902215802934878  1.0000
  C   C246      1.0  0.3809874050106297  0.021471058805208276  0.7603081984376895  1.0000
  H   H161      1.0  0.42287526445713186  0.09460113903995582  0.8036549408262953  1.0000
  H   H162      1.0  0.4040639805189041  0.05796372779266501  0.8568067805755918  1.0000
  H   H163      1.0  0.3569564586800319  0.9746377552151912  0.7863882806629767  1.0000
  H   H164      1.0  0.37396201955661496  0.011232058378201293  0.7334169593675761  1.0000
  C   C247      1.0  0.5876311026757577  0.8123952478435112  0.835318630130775  1.0000
  C   C248      1.0  0.6039808858331241  0.8028281881475715  0.8584152910617758  1.0000
  C   C249      1.0  0.6095839466952078  0.7783889855528009  0.847594614718549  1.0000
  C   C250      1.0  0.5986205393992124  0.7631821748595209  0.8138176296560651  1.0000
  C   C251      1.0  0.5809506695079152  0.7716737241727893  0.7914328012488216  1.0000
  C   C252      1.0  0.5757874967555948  0.7964776047006918  0.8019798193790074  1.0000
  H   H165      1.0  0.6131179122657591  0.8148763035836513  0.8842053753070195  1.0000
  H   H166      1.0  0.6229990922899593  0.7717052113547843  0.8652330831687423  1.0000
  H   H167      1.0  0.5714277402624871  0.7593001769659254  0.7659555505159281  1.0000
  H   H168      1.0  0.5626862388258108  0.8034772553410902  0.7842689924687232  1.0000
  C   C253      1.0  0.5767099145237433  0.8095991992915837  0.5722203804718988  1.0000
  C   C254      1.0  0.5618200420285714  0.7818141759398237  0.5938792197597718  1.0000
  C   C255      1.0  0.5805435295882921  0.7709522896319  0.6102533631593324  1.0000
  C   C256      1.0  0.614281981369165  0.7880899736420952  0.6052981255375176  1.0000
  C   C257      1.0  0.6291767567087034  0.8157808343658848  0.58343986956408  1.0000
  C   C258      1.0  0.6103798372045487  0.8264763529788078  0.566740742713681  1.0000
  H   H169      1.0  0.5357357092577257  0.7686705489578574  0.5980701870553026  1.0000
  H   H170      1.0  0.5688757879635264  0.7494406441291089  0.6268685254869041  1.0000
  H   H171      1.0  0.6553045854498253  0.8290574971354846  0.5795616063089138  1.0000
  H   H172      1.0  0.6219896500660995  0.847958943514868  0.5500606649360266  1.0000
  C   C259      1.0  0.5014821237860976  0.902694565950586  0.9379668928420195  1.0000
  C   C260      1.0  0.5156314998532718  0.9075051691476612  0.9039422081071409  1.0000
  C   C261      1.0  0.5071153088143237  0.9213940746808151  0.8762220580065497  1.0000
  C   C262      1.0  0.48372714071005096  0.9295629339261489  0.8821797931980498  1.0000
  C   C263      1.0  0.4700403323276691  0.925268430266164  0.9163658339496626  1.0000
  C   C264      1.0  0.4793777642060684  0.912444961693686  0.9443686301237159  1.0000
  H   H173      1.0  0.5322244258372543  0.8995104455597206  0.8984668074113809  1.0000
  H   H174      1.0  0.5176111680086674  0.9244991374370687  0.8497162365099643  1.0000
  H   H175      1.0  0.45222880139714217  0.9318425729587644  0.9212630198408192  1.0000
  H   H176      1.0  0.46864876128835975  0.9091857524182749  0.9707574047103045  1.0000
  C   C265      1.0  0.8100342112368798  0.20603924390284795  0.023886635722888627  1.0000
  C   C266      1.0  0.8365395581787826  0.21729279506960894  0.0004941696110225546  1.0000
  C   C267      1.0  0.8502283353166645  0.2478847110763843  0.9841289940192477  1.0000
  C   C268      1.0  0.8374431220210033  0.26731112269957236  0.9912136319457537  1.0000
  C   C269      1.0  0.8111323851098058  0.25615962224688094  0.014872466507528603  1.0000
  C   C270      1.0  0.7974181152140403  0.22556498214003953  0.031174860648074176  1.0000
  H   H177      1.0  0.8463848667964132  0.20224526658537742  0.9948401944877361  1.0000
  H   H178      1.0  0.87059953195052  0.2563838323709905  0.9660567893191067  1.0000
  H   H179      1.0  0.801116353897234  0.27107481232105723  0.02038757422128512  1.0000
  H   H180      1.0  0.7768923852424808  0.21699566175463414  0.04905107706426248  1.0000
  C   C271      1.0  0.8062078135780469  0.20872615144000778  0.7614983075831652  1.0000
  C   C272      1.0  0.8267075207915828  0.23026775907916408  0.7351063269165052  1.0000
  C   C273      1.0  0.8543777076164001  0.2602033911039144  0.7452237248240556  1.0000
  C   C274      1.0  0.8615207648099328  0.2689159709428479  0.7817136032393583  1.0000
  C   C275      1.0  0.8408610553655618  0.24753986334381167  0.8081947558639389  1.0000
  C   C276      1.0  0.8133591685324992  0.2173744808879141  0.7980664493626934  1.0000
  H   H181      1.0  0.8215750231193419  0.223713551559965  0.7068877916318567  1.0000
  H   H182      1.0  0.8703995177447544  0.2766102417123542  0.7246540501718937  1.0000
  H   H183      1.0  0.8462462257473946  0.2540738401313072  0.8364181960312179  1.0000
  H   H184      1.0  0.7976021998323134  0.20070399583723733  0.8186081714358941  1.0000
  C   C277      1.0  0.6513370017737404  0.17408068039252175  0.6576964780875665  1.0000
  C   C278      1.0  0.6357818462226502  0.14109259393373552  0.6662227568160193  1.0000
  C   C279      1.0  0.6085282990235322  0.12678560958817156  0.6888240309279287  1.0000
  C   C280      1.0  0.5962637238802414  0.14522204835939723  0.70223298466933  1.0000
  C   C281      1.0  0.6118036769545029  0.17823505665714162  0.6936749378276569  1.0000
  C   C282      1.0  0.6393848626432184  0.1926481708057006  0.6715171893712457  1.0000
  H   H185      1.0  0.6443429612595429  0.12639714196774204  0.6549064136684019  1.0000
  H   H186      1.0  0.5965418257391856  0.10122144288939555  0.6953301776833458  1.0000
  H   H187      1.0  0.6028201210107542  0.19273413887995838  0.7044750348575795  1.0000
  H   H188      1.0  0.6517985402118252  0.21833226334822264  0.66551276540101  1.0000
  C   C283      1.0  0.683915073775936  0.03261611485008009  0.5946410564213384  1.0000
  C   C284      1.0  0.6862264947639947  0.027333080163439494  0.05254177322498177  1.0000
  C   C285      1.0  0.688148111594789  0.007729880038610082  0.025780594733976203  1.0000
  C   C286      1.0  0.6632319367498802  0.9748787296893018  0.02172802587574596  1.0000
  C   C287      1.0  0.670589222461573  0.981890139351111  0.565530015479775  1.0000
  C   C288      1.0  0.6723589196602477  0.999341401587114  0.5966134672663447  1.0000
  H   H189      1.0  0.7053259954810062  0.052754322988996495  0.05509652299833934  1.0000
  H   H190      1.0  0.7088673770430822  0.018205167819288715  0.007895822146450682  1.0000
  H   H191      1.0  0.6617914582229865  0.9562259072657646  0.5672227448582  1.0000
  H   H192      1.0  0.6648078511975161  0.9870257484029368  0.6222802611897352  1.0000
  N   N1        1.0  0.40768044992216224  0.8160888545913341  0.9217711218412219  1.0000
  C   C289      1.0  0.4138391994537806  0.7913664410218687  0.9360943916866851  1.0000
  C   C290      1.0  0.43171080066896517  0.8349999354624424  0.8934099043672814  1.0000
  C   C291      1.0  0.4108569836982473  0.8381281958950043  0.9513529827261835  1.0000
  C   C292      1.0  0.37437604376352507  0.7998912711491278  0.9062944745149636  1.0000
  H   H193      1.0  0.3962560840844688  0.7767479692823955  0.9576865786231046  1.0000
  H   H194      1.0  0.4388867676979068  0.8029947644393584  0.9479651482361638  1.0000
  H   H195      1.0  0.4117928822244668  0.7743691284223426  0.9144957397315369  1.0000
  H   H196      1.0  0.4292856497621547  0.85533506700688  0.8835505397265478  1.0000
  H   H197      1.0  0.45709614503631335  0.845854662078388  0.9036291818874221  1.0000
  H   H198      1.0  0.42880661523255414  0.8195396721953934  0.8697053708399644  1.0000
  H   H199      1.0  0.43487105395631054  0.8489870239808412  0.9653573593062674  1.0000
  H   H200      1.0  0.39156363167997527  0.8252002384713745  0.9719682963326232  1.0000
  H   H201      1.0  0.4085381731577871  0.8584405943170947  0.9411454458967536  1.0000
  H   H202      1.0  0.3691790998460338  0.8180063748799786  0.8952275522744669  1.0000
  H   H203      1.0  0.3555706593423771  0.7859456327953314  0.9270867447723047  1.0000
  H   H204      1.0  0.37092626510220905  0.7829627702632269  0.8839480745039673  1.0000
  N   N2        1.0  0.3170819675810019  0.3586297249686842  0.8951207417440818  1.0000
  C   C293      1.0  0.33865535670031194  0.3553369082950416  0.8697483312547694  1.0000
  C   C294      1.0  0.3337390546682333  0.3924599524949912  0.9087697920105322  1.0000
  C   C295      1.0  0.3093899786996115  0.3362920400105821  0.925743293229884  1.0000
  C   C296      1.0  0.28658997990540774  0.35049674324945257  0.8762907435079301  1.0000
  H   H205      1.0  0.32657820131814275  0.33042703125963285  0.8579624048853742  1.0000
  H   H206      1.0  0.36144424686817106  0.3603153666524268  0.8833904274711853  1.0000
  H   H207      1.0  0.3459811920140224  0.37273618871673114  0.8469190081098629  1.0000
  H   H208      1.0  0.31763260328721465  0.396281180457966  0.9266948851727325  1.0000
  H   H209      1.0  0.3561032899207061  0.39905321952308054  0.9244346066980937  1.0000
  H   H210      1.0  0.3410356911703798  0.41009745375064327  0.8862570027193059  1.0000
  H   H211      1.0  0.29329730989447683  0.33835344385583216  0.9454891514736485  1.0000
  H   H212      1.0  0.33199504593738155  0.34182175534953985  0.9404314484919628  1.0000
  H   H213      1.0  0.29676262459415326  0.31051597627857513  0.9164640642721004  1.0000
  H   H214      1.0  0.26993538020424857  0.3532459298624096  0.8944946127280021  1.0000
  H   H215      1.0  0.27323281408497674  0.32515020521294824  0.8656218468569792  1.0000
  H   H216      1.0  0.2916247644927031  0.367035371388438  0.8531274774412839  1.0000
  N   N3        1.0  0.5211693242357147  0.6541909268251689  0.8321375649867042  1.0000
  C   C297      1.0  0.5175521405264019  0.6651210336274953  0.7962344455639107  1.0000
  C   C298      1.0  0.49001010557232283  0.6246175271745236  0.8423103193686996  1.0000
  C   C299      1.0  0.5300082753420077  0.6802795175086452  0.8589608105539033  1.0000
  C   C300      1.0  0.5470967398072311  0.6467031535874617  0.8308839579476291  1.0000
  H   H217      1.0  0.5403782350574932  0.6876748111679131  0.7878614752356826  1.0000
  H   H218      1.0  0.49779151912498165  0.6704085329629178  0.7958779313752421  1.0000
  H   H219      1.0  0.5116193195041095  0.6462903614620487  0.7752683168856279  1.0000
  H   H220      1.0  0.4914156552338636  0.6160787029924899  0.8696768957809439  1.0000
  H   H221      1.0  0.4695100576411345  0.6288846970894622  0.8422119243309557  1.0000
  H   H222      1.0  0.4831316778934859  0.6042043394016309  0.8231195778491911  1.0000
  H   H223      1.0  0.532864338581905  0.6729227704955404  0.8864514403022055  1.0000
  H   H224      1.0  0.5111619636011511  0.6868199918470107  0.8602355392903231  1.0000
  H   H225      1.0  0.5535616651074436  0.7028389503659038  0.8521216460874641  1.0000
  H   H226      1.0  0.5505244966493147  0.6383405148604182  0.8574964690168116  1.0000
  H   H227      1.0  0.5709759937427326  0.668469424309922  0.8232680487654621  1.0000
  H   H228      1.0  0.5413464793090925  0.6273531525607161  0.8105812315248226  1.0000
  N   N4        1.0  0.5842462278678037  0.9902917271074801  0.980960102174944  1.0000
  C   C301      1.0  0.6140432967908195  0.02039836833600539  0.9936601643013371  1.0000
  C   C302      1.0  0.564579552956166  0.9986644567201951  0.9581168236179481  1.0000
  C   C303      1.0  0.564768208601642  0.971208389897596  0.012274590933283758  1.0000
  C   C304      1.0  0.5935253015509554  0.9706766318499972  0.9596781624848488  1.0000
  H   H229      1.0  0.6296425430974476  0.014797801486376105  0.010320806516751713  1.0000
  H   H230      1.0  0.6081640703699599  0.0355910417315517  0.01059257425606619  1.0000
  H   H231      1.0  0.6292170782524528  0.03550335064678234  0.9707272260000984  1.0000
  H   H232      1.0  0.5420164436018085  0.9763791124935752  0.9479353574312589  1.0000
  H   H233      1.0  0.5569612771498942  0.013342008939821737  0.9733335708383307  1.0000
  H   H234      1.0  0.5784764999142954  0.012914716505210366  0.9341146553525337  1.0000
  H   H235      1.0  0.5419055559040289  0.9484958618960285  0.0035635306177053128  1.0000
  H   H236      1.0  0.5578332317190975  0.9853966953117759  0.029473020031818065  1.0000
  H   H237      1.0  0.5785599695628286  0.9637406611117199  0.029547923180480717  1.0000
  H   H238      1.0  0.608230872334451  0.9840801681217314  0.935711825073364  1.0000
  H   H239      1.0  0.5715565764352344  0.9477676214264353  0.9499097535832344  1.0000
  H   H240      1.0  0.6083431238204838  0.9637695373060643  0.9759811711140349  1.0000
  N   N5        1.0  0.9269860710823994  0.4095758213042514  0.23962512760312585  1.0000
  C   C305      1.0  0.9211509664483747  0.42145482478937973  0.20548502410699995  1.0000
  C   C306      1.0  0.8998550992524079  0.40079540250240986  0.2646397906531826  1.0000
  C   C307      1.0  0.9580444270217298  0.4354498664611041  0.2560005521622523  1.0000
  C   C308      1.0  0.9288908936406933  0.3806325320576323  0.23234364453870812  1.0000
  H   H241      1.0  0.9412212405843372  0.42842813930927237  0.18600214119511818  1.0000
  H   H242      1.0  0.9195607233702429  0.4433115945180915  0.21019260812081708  1.0000
  H   H243      1.0  0.8979060879098117  0.40250252006581805  0.19237642299343427  1.0000
  H   H244      1.0  0.9035692616952774  0.3921257036788256  0.29091502056292523  1.0000
  H   H245      1.0  0.8974922341650471  0.42199309914079364  0.27046738779515644  1.0000
  H   H246      1.0  0.8761125882896991  0.3808875451190898  0.253444617032218  1.0000
  H   H247      1.0  0.9580370253232439  0.4582050374645098  0.2603056093714306  1.0000
  H   H248      1.0  0.9791975248717583  0.4417437726942981  0.23850460322002098  1.0000
  H   H249      1.0  0.9625090054678404  0.42784860648447315  0.28265069331554105  1.0000
  H   H250      1.0  0.9331860957471514  0.3710024047187849  0.2576224590750132  1.0000
  H   H251      1.0  0.9490505568628563  0.3861948333717829  0.21357844778021415  1.0000
  H   H252      1.0  0.9058012722977423  0.360490879023103  0.2201349579862119  1.0000
  N   N6        1.0  0.5782869937347388  0.9865154058930582  0.5727549934973779  1.0000
  C   C309      1.0  0.5601416798613559  0.9518164545387677  0.5830468401315503  1.0000
  C   C310      1.0  0.6001720660796672  0.9916573305491677  0.542406671236292  1.0000
  C   C311      1.0  0.5978528137777002  0.0066534652815124495  0.6039572975947594  1.0000
  C   C312      1.0  0.5549726853425249  0.9958513835316042  0.5615280551375821  1.0000
  H   H253      1.0  0.5432693224841073  0.9469771855654484  0.6057700086834389  1.0000
  H   H254      1.0  0.5770108656296649  0.9438964182890098  0.5915636601711238  1.0000
  H   H255      1.0  0.5452171446199265  0.9358456451214058  0.5600785502899503  1.0000
  H   H256      1.0  0.6171419492632375  0.9836373666045862  0.5494242171781656  1.0000
  H   H257      1.0  0.5862532267450897  0.9775455271694841  0.5180188651201922  1.0000
  H   H258      1.0  0.6152775607382601  0.01773121846171155  0.5347540915239968  1.0000
  H   H259      1.0  0.6131465001782173  0.03290470812492852  0.5969185607254947  1.0000
  H   H260      1.0  0.6148448058323244  0.9993398608521292  0.6138298201116354  1.0000
  H   H261      1.0  0.5821586083664371  0.0042951853333779155  0.6270258927282518  1.0000
  H   H262      1.0  0.5379441405638872  0.9922022408461809  0.5836717676696282  1.0000
  H   H263      1.0  0.5398615283426994  0.9808893791144392  0.5380392385358045  1.0000
  H   H264      1.0  0.5678735318504662  0.021835724917227406  0.5533977708975852  1.0000
  N   N7        1.0  0.48294632492667183  0.6985012713720464  0.15933581396042326  1.0000
  C   C313      1.0  0.5077866540516397  0.6926667279796911  0.14474511548673497  1.0000
  C   C314      1.0  0.45810866443225784  0.6910279012818649  0.13119057336200002  1.0000
  C   C315      1.0  0.4987776793965321  0.73300201789584  0.17045408078721166  1.0000
  C   C316      1.0  0.4672253490807294  0.6772969865062729  0.19085305382152742  1.0000
  H   H265      1.0  0.5198470153417469  0.7077899545353559  0.12054841830531775  1.0000
  H   H266      1.0  0.4970416688693646  0.666650118429846  0.1371455965573126  1.0000
  H   H267      1.0  0.5271278669122728  0.6987424187175766  0.1651229411486974  1.0000
  H   H268      1.0  0.4389248554466661  0.6951441990894801  0.14125284789075288  1.0000
  H   H269      1.0  0.4692723175343627  0.7066120759943647  0.10702352745414608  1.0000
  H   H270      1.0  0.4458473050859879  0.665185451396353  0.12214595157787397  1.0000
  H   H271      1.0  0.511164045687465  0.7496773208204229  0.14737830296911494  1.0000
  H   H272      1.0  0.5178495068571264  0.7395577263544592  0.19152700267263564  1.0000
  H   H273      1.0  0.4808889779910313  0.7384494934297949  0.18168743419668007  1.0000
  H   H274      1.0  0.4483211237500671  0.680956098082525  0.2027225101956206  1.0000
  H   H275      1.0  0.48535202791319365  0.6821122794266954  0.21249193104194025  1.0000
  H   H276      1.0  0.4553927011694848  0.6510679454249869  0.18350832576013995  1.0000
  N   N8        1.0  0.7923377891561524  0.5956743498718595  0.8033454925919106  1.0000
  C   C317      1.0  0.7753971243723682  0.560228106803614  0.8094589785324594  1.0000
  C   C318      1.0  0.827947952705294  0.610371723602885  0.806637852320972  1.0000
  C   C319      1.0  0.7817004636875677  0.6104568373395816  0.8305318360339765  1.0000
  C   C320      1.0  0.7844090844258583  0.6016062517767009  0.7667042681666654  1.0000
  H   H277      1.0  0.7484752406278036  0.5482988897829949  0.8069893176731888  1.0000
  H   H278      1.0  0.7808490695660444  0.554777727919865  0.8367521597570731  1.0000
  H   H279      1.0  0.783028126394684  0.5483087971423718  0.7895731064427026  1.0000
  H   H280      1.0  0.8368348232104764  0.600199205824153  0.7860620244089641  1.0000
  H   H281      1.0  0.8415605988949341  0.6371818607186649  0.8027906682940121  1.0000
  H   H282      1.0  0.8348728317065226  0.6058187147426691  0.8336340348093642  1.0000
  H   H283      1.0  0.793848188764208  0.6371743308932499  0.8265836371445379  1.0000
  H   H284      1.0  0.7877455048219847  0.6066645146566316  0.8584304713408192  1.0000
  H   H285      1.0  0.7548689157081372  0.5997032100458819  0.8291931897780219  1.0000
  H   H286      1.0  0.7972254358874121  0.6280839743453486  0.7607908306112117  1.0000
  H   H287      1.0  0.7577647307158053  0.5911159163636434  0.7631898319922208  1.0000
  H   H288      1.0  0.7918966524059847  0.5903614287719285  0.7457033653709902  1.0000
  N   N9        1.0  0.14876973937914695  0.411512218394578  0.9118237789509566  1.0000
  C   C321      1.0  0.1606200262371258  0.40963404115319296  0.9479763810702565  1.0000
  C   C322      1.0  0.17627021065635481  0.42554122010624895  0.8862773613795444  1.0000
  C   C323      1.0  0.13507439796505136  0.43246761722054844  0.9135249154973265  1.0000
  C   C324      1.0  0.12313208969176062  0.37848520306685185  0.8997880099035483  1.0000
  H   H289      1.0  0.14049733029224734  0.3986955410753021  0.9678143746970289  1.0000
  H   H290      1.0  0.1792508358930926  0.4341984459899829  0.9583248937052226  1.0000
  H   H291      1.0  0.17186623728529843  0.39468647674890983  0.9478034713293341  1.0000
  H   H292      1.0  0.16817540796676786  0.4265002447488046  0.8584155642112578  1.0000
  H   H293      1.0  0.19543794695607966  0.4508820388956869  0.8942107109380492  1.0000
  H   H294      1.0  0.18823969864121765  0.41123864116860415  0.88546697890854  1.0000
  H   H295      1.0  0.12561898986310766  0.43427261591431876  0.8867824657288189  1.0000
  H   H296      1.0  0.15391081330872028  0.45765897267783234  0.9224173545728891  1.0000
  H   H297      1.0  0.11454925259036368  0.4228256858121183  0.932995367022212  1.0000
  H   H298      1.0  0.11350756000667094  0.3788784146898371  0.8725887179073186  1.0000
  H   H299      1.0  0.10209051941079375  0.3674617789377421  0.9186627645414117  1.0000
  H   H300      1.0  0.13257949057815058  0.36197071928222924  0.89857517296692  1.0000
  N   N10       1.0  0.6203540333119824  0.41833652009686684  0.40063507116256314  1.0000
  C   C325      1.0  0.6094874333108341  0.40401653756638  0.4367763862458754  1.0000
  C   C326      1.0  0.6007558618970597  0.39341393499640726  0.3728549728196909  1.0000
  C   C327      1.0  0.655208639717993  0.4297777151144667  0.3963817324118795  1.0000
  C   C328      1.0  0.6158360245883383  0.446066123219586  0.3967099470007255  1.0000
  H   H301      1.0  0.624703293989118  0.4215353683105324  0.458526085950779  1.0000
  H   H302      1.0  0.6103718449795993  0.38164452320562714  0.44004127329703474  1.0000
  H   H303      1.0  0.5839160019326205  0.39705658760600987  0.4414522573210622  1.0000
  H   H304      1.0  0.603911934913497  0.37228813073932165  0.37477135467137496  1.0000
  H   H305      1.0  0.57420135338816  0.3835313000501174  0.37612340092288  1.0000
  H   H306      1.0  0.6076616292204523  0.4034182594919858  0.34516477437167853  1.0000
  H   H307      1.0  0.6594085011175931  0.40942944260756947  0.3996340415920876  1.0000
  H   H308      1.0  0.6706161576022005  0.44874289053820815  0.41691214866040094  1.0000
  H   H309      1.0  0.6642262661265788  0.4405681727435593  0.36929159781711923  1.0000
  H   H310      1.0  0.6239120874135053  0.45770181947140354  0.3698535222608758  1.0000
  H   H311      1.0  0.6299086649728249  0.4650672340614167  0.41764108001728656  1.0000
  H   H312      1.0  0.589729287352795  0.43821851719044624  0.39986431221533647  1.0000
  N   N11       1.0  0.3773339698992882  0.25598849332145707  0.5121530363777113  1.0000
  C   C329      1.0  0.3984909575689512  0.2913897608616477  0.5185532009595382  1.0000
  C   C330      1.0  0.39365799594046985  0.23959121973723882  0.5262413176098425  1.0000
  C   C331      1.0  0.37127068104942673  0.24962679762910067  0.4729767304639958  1.0000
  C   C332      1.0  0.3460166330493669  0.24352474230387114  0.5308419627502334  1.0000
  H   H313      1.0  0.40423940573883177  0.2973191983777658  0.5477274484289176  1.0000
  H   H314      1.0  0.38724200883241056  0.304783046654553  0.5080338898678188  1.0000
  H   H315      1.0  0.4220607347849318  0.3013725170401033  0.504548749766441  1.0000
  H   H316      1.0  0.41751753338498293  0.24864822688851154  0.512867952836133  1.0000
  H   H317      1.0  0.3990192369357128  0.24427221538192503  0.5556634634650384  1.0000
  H   H318      1.0  0.37851959196860135  0.2128121063339463  0.5219110197181835  1.0000
  H   H319      1.0  0.35531401119214046  0.2231871044430098  0.4669264059906888  1.0000
  H   H320      1.0  0.3944679431947329  0.25892346054181026  0.4580294820334007  1.0000
  H   H321      1.0  0.35950585715730665  0.2621661597440019  0.4613515977637781  1.0000
  H   H322      1.0  0.32940496460642077  0.21683807171207548  0.5266270990194812  1.0000
  H   H323      1.0  0.33320282639873217  0.2555317604482749  0.5207867475503007  1.0000
  H   H324      1.0  0.3498469352094731  0.24813928455236017  0.560432962924237  1.0000
  N   N12       1.0  0.540966150074985  0.46090012719380813  0.9511785459193252  1.0000
  C   C333      1.0  0.5260464824327568  0.48045520567118244  0.9456038111185241  1.0000
  C   C334      1.0  0.5307624669768205  0.44448529836212647  0.9864365486006494  1.0000
  C   C335      1.0  0.5769343329979468  0.4821748190761292  0.9505256081964236  1.0000
  C   C336      1.0  0.5299936127704884  0.4362251297613186  0.9221660968544045  1.0000
  H   H325      1.0  0.5330795533904542  0.4930886286404383  0.9191500573938141  1.0000
  H   H326      1.0  0.5336879043614527  0.49926077319044854  0.9670933172281913  1.0000
  H   H327      1.0  0.4988609675093838  0.4647822650158858  0.9459060999970332  1.0000
  H   H328      1.0  0.5396001003932129  0.4622501385606468  0.009169583239546863  1.0000
  H   H329      1.0  0.5037297996287468  0.42876028860738624  0.988271959893588  1.0000
  H   H330      1.0  0.540611111203617  0.4286145683925788  0.9908443405990407  1.0000
  H   H331      1.0  0.5886469589562504  0.46777015697006624  0.9540845391645143  1.0000
  H   H332      1.0  0.5863156385618907  0.5006632196675356  0.9725975161257668  1.0000
  H   H333      1.0  0.5855900851387353  0.49526076113974515  0.9244689831237543  1.0000
  H   H334      1.0  0.5413292419648638  0.42143368090646505  0.9251930814524185  1.0000
  H   H335      1.0  0.5366240197102478  0.44761777329108177  0.8950588874173424  1.0000
  H   H336      1.0  0.503020248630646  0.4192261119243633  0.9224761354958863  1.0000
  N   N13       1.0  0.7575151822459473  0.2203531869253867  0.33041676939692166  1.0000
  C   C337      1.0  0.7589459124784829  0.24040457063893664  0.36134700477880727  1.0000
  C   C338      1.0  0.7753325994655463  0.20420679178398257  0.33976216802833936  1.0000
  C   C339      1.0  0.7726447598663099  0.24128678674112233  0.2985902908565457  1.0000
  C   C340      1.0  0.7231121541077228  0.19543210587347884  0.32192805166746513  1.0000
  H   H337      1.0  0.7462009972472486  0.2534059155339442  0.35526479787502496  1.0000
  H   H338      1.0  0.784588129631639  0.2589961841426679  0.3688675802825629  1.0000
  H   H339      1.0  0.7477330076964837  0.2253626912288459  0.3858234797248089  1.0000
  H   H340      1.0  0.7727092412680698  0.1869652340211708  0.31821443756878287  1.0000
  H   H341      1.0  0.8018930863999749  0.22227395065392394  0.3438149807424899  1.0000
  H   H342      1.0  0.7663170147457913  0.19026858069172586  0.3653015942835064  1.0000
  H   H343      1.0  0.7712187448218472  0.2267332499427724  0.2745882665434376  1.0000
  H   H344      1.0  0.7989217387086147  0.25980139536050956  0.30349688524188406  1.0000
  H   H345      1.0  0.7603539563208358  0.25449109203412534  0.2912647421740757  1.0000
  H   H346      1.0  0.7212446996645504  0.18003135690212194  0.2984906580051934  1.0000
  H   H347      1.0  0.7089066832992061  0.20677993882251403  0.3148627985065789  1.0000
  H   H348      1.0  0.7109904034164383  0.1789837265296748  0.3452044166352488  1.0000
  N   N14       1.0  0.6107890643366553  0.5661132050071901  0.14536144421508704  1.0000
  C   C341      1.0  0.5768535273199125  0.5571045845693335  0.15178421714151066  1.0000
  C   C342      1.0  0.6185312782196368  0.5737056995465557  0.10677737351734656  1.0000
  C   C343      1.0  0.6145464654679416  0.5387558765302999  0.15536231541903875  1.0000
  C   C344      1.0  0.6332809024616245  0.5949634363359426  0.16750540552752888  1.0000
  H   H349      1.0  0.5702338536459474  0.5514123121374075  0.18069476891033404  1.0000
  H   H350      1.0  0.5592170942693674  0.5353578545224328  0.1355384772691365  1.0000
  H   H351      1.0  0.573331482485955  0.5773400266268089  0.14441689672676122  1.0000
  H   H352      1.0  0.6439902067262872  0.5807729171614783  0.10097808717920173  1.0000
  H   H353      1.0  0.602332151836928  0.5524290428733293  0.08917878933692876  1.0000
  H   H354      1.0  0.6162776949191225  0.5944603624503737  0.09821863482244875  1.0000
  H   H355      1.0  0.6400346904610407  0.5449804885232253  0.15116244859259645  1.0000
  H   H356      1.0  0.5985091050805839  0.5166932819097539  0.13864069749628352  1.0000
  H   H357      1.0  0.608598987451158  0.5320294337116441  0.1841737151270812  1.0000
  H   H358      1.0  0.6591688116797308  0.6027088533035235  0.16295419458752242  1.0000
  H   H359      1.0  0.6284248219128639  0.5901534777941616  0.1968154647712192  1.0000
  H   H360      1.0  0.630933889354901  0.6160189457690166  0.16083505522141545  1.0000
  N   N15       1.0  0.36747114028447303  0.5289362530405383  0.4310764916945769  1.0000
  C   C345      1.0  0.36936244065896273  0.5525296502508917  0.45785298510504374  1.0000
  C   C346      1.0  0.3483795820631543  0.49574046586646453  0.44607258996400806  1.0000
  C   C347      1.0  0.40074745355456887  0.5369197966926634  0.42244633190385533  1.0000
  C   C348      1.0  0.3513287203767158  0.5306137409694841  0.39790657145797614  1.0000
  H   H361      1.0  0.38346673843724743  0.5777949581122717  0.44725154655991484  1.0000
  H   H362      1.0  0.38142581755041904  0.5519394686476131  0.483248973450004  1.0000
  H   H363      1.0  0.3445727030584565  0.5471059616686658  0.46490704279869527  1.0000
  H   H364      1.0  0.3452871930597118  0.4770727589691699  0.42607887537059336  1.0000
  H   H365      1.0  0.36034688008049953  0.4931316141073614  0.4704123982654256  1.0000
  H   H366      1.0  0.3234986974126145  0.48938354551263763  0.45393846714964536  1.0000
  H   H367      1.0  0.40017836488395464  0.5196647207012854  0.4021801025454964  1.0000
  H   H368      1.0  0.41380087739085075  0.5359492900146599  0.44674195301211  1.0000
  H   H369      1.0  0.41567079398478135  0.5616182457348364  0.41048946873555553  1.0000
  H   H370      1.0  0.3483531918315953  0.5122486972467536  0.3776241733577334  1.0000
  H   H371      1.0  0.36583001078611227  0.5548502958519355  0.3848378515511336  1.0000
  H   H372      1.0  0.32672393041136605  0.5261077701087484  0.4035581203848129  1.0000
  N   N16       1.0  0.6272838759231377  0.5502554696346761  0.580956046591978  1.0000
  C   C349      1.0  0.6139444566431643  0.5715554815673508  0.5809750405700924  1.0000
  C   C350      1.0  0.6028652291739856  0.5180790495939706  0.5655767127482023  1.0000
  C   C351      1.0  0.6354068317424928  0.5462089488809886  0.6182919544753605  1.0000
  C   C352      1.0  0.6571223886948822  0.5651987071202028  0.5589677111769771  1.0000
  H   H373      1.0  0.6317936609885916  0.5960027643061065  0.5924873699694689  1.0000
  H   H374      1.0  0.5914446665764138  0.5611791796586358  0.597431757280206  1.0000
  H   H375      1.0  0.6079493241102164  0.5754277830671349  0.5531497322931026  1.0000
  H   H376      1.0  0.6120389811440459  0.5013024789169422  0.5658531361792835  1.0000
  H   H377      1.0  0.5797446643956423  0.5062675810594666  0.5810483305018538  1.0000
  H   H378      1.0  0.5968476146370709  0.5200281730537927  0.5370126186313459  1.0000
  H   H379      1.0  0.6457265854529987  0.5303803717519064  0.6191034018729374  1.0000
  H   H380      1.0  0.6135363617675388  0.5351583426180345  0.6358364390616971  1.0000
  H   H381      1.0  0.6539434386094584  0.5700243927386637  0.6305611677062068  1.0000
  H   H382      1.0  0.6685580114653421  0.5504627390061473  0.5595654433493562  1.0000
  H   H383      1.0  0.6757449354347445  0.5898125315673453  0.5691604036260774  1.0000
  H   H384      1.0  0.652024177831061  0.567888290872886  0.5303082488479058  1.0000
  N   N17       1.0  0.3679046935265636  0.3975031806771646  0.19512649393577805  1.0000
  C   C353      1.0  0.363116400733064  0.42110028498364777  0.17523599530707076  1.0000
  C   C354      1.0  0.40125845989389647  0.4143449868250696  0.210618659064276  1.0000
  C   C355      1.0  0.36320559724699075  0.3714283897857995  0.17030649210019663  1.0000
  C   C356      1.0  0.3439296334993013  0.38310595527925323  0.22452526532556977  1.0000
  H   H385      1.0  0.33796396365096665  0.4093131267356201  0.16372640785377965  1.0000
  H   H386      1.0  0.3806796754972221  0.4325088344638324  0.15274797002939558  1.0000
  H   H387      1.0  0.3662903944729553  0.4410117768726389  0.19330422537178915  1.0000
  H   H388      1.0  0.42013476544619877  0.42536011093694204  0.18933210623762614  1.0000
  H   H389      1.0  0.4055572506936571  0.4342093138640983  0.22947947267777416  1.0000
  H   H390      1.0  0.4054492887966265  0.3974115720222252  0.22659137918177932  1.0000
  H   H391      1.0  0.3665629572227928  0.35320878319749793  0.1846131011215561  1.0000
  H   H392      1.0  0.3808875947977585  0.3813907754455058  0.14771827981407593  1.0000
  H   H393      1.0  0.33818197595367644  0.3582517807936149  0.15833646098979137  1.0000
  H   H394      1.0  0.34699845985309896  0.36554227985232657  0.24068115224070102  1.0000
  H   H395      1.0  0.31837196166720333  0.3704977612914373  0.21412697297417066  1.0000
  H   H396      1.0  0.34690626869389063  0.40223226374570664  0.24342545989418019  1.0000
  N   N18       1.0  0.4747859450373714  0.9726617412528653  0.36152115840113314  1.0000
  C   C357      1.0  0.4617967015488562  0.9500973103474454  0.3302990454915229  1.0000
  C   C358      1.0  0.49061310694391935  0.006611097717403425  0.3488993414282662  1.0000
  C   C359      1.0  0.4988671489464351  0.9682744455667809  0.38121923201763425  1.0000
  C   C360      1.0  0.44768049764136386  0.9654964505862424  0.38577517490972163  1.0000
  H   H397      1.0  0.44956939150475766  0.924235012625228  0.33910512559075334  1.0000
  H   H398      1.0  0.4815001264617525  0.9545656457939715  0.31137252795590653  1.0000
  H   H399      1.0  0.44333186367625244  0.952537217698259  0.31498596931363176  1.0000
  H   H400      1.0  0.5003018381511943  0.02413821033578789  0.37192475639432554  1.0000
  H   H401      1.0  0.5112248551963342  0.012940993481607377  0.3305053966990037  1.0000
  H   H402      1.0  0.4730932095412041  0.010765788109845298  0.3339749621696229  1.0000
  H   H403      1.0  0.5085088784271943  0.9841473937559532  0.40561284745607135  1.0000
  H   H404      1.0  0.5198978993343207  0.9737617239031806  0.3639245069625136  1.0000
  H   H405      1.0  0.48776103366638807  0.9427835513294281  0.39052621861506653  1.0000
  H   H406      1.0  0.45631025598617675  0.9813851188389127  0.4101905730120424  1.0000
  H   H407      1.0  0.4346534261929225  0.939832915276248  0.39488192639236225  1.0000
  H   H408      1.0  0.42934480083669224  0.9690683737360859  0.37203225345479446  1.0000
  N   N19       1.0  0.09541380002363789  0.7419866672381885  0.7463085367355525  1.0000
  C   C361      1.0  0.09549146333487447  0.7412217353956547  0.7064684184348249  1.0000
  C   C362      1.0  0.06134449547887767  0.7244741986230717  0.7590873645283359  1.0000
  C   C363      1.0  0.11274652942185516  0.7761652949058649  0.7589372658281798  1.0000
  C   C364      1.0  0.1121676462834507  0.7261174549703135  0.7606380911228694  1.0000
  H   H409      1.0  0.1207374988353777  0.755080183906359  0.6958217259954375  1.0000
  H   H410      1.0  0.08207305993502974  0.7519147536610409  0.6945920745320718  1.0000
  H   H411      1.0  0.08381371128769118  0.7159347410799533  0.69597285851229  1.0000
  H   H412      1.0  0.047439112916668476  0.69887175768362  0.749087333480102  1.0000
  H   H413      1.0  0.06017937471929781  0.7236503417526622  0.789065125632373  1.0000
  H   H414      1.0  0.048138164608284136  0.73614718309148  0.7493642655932375  1.0000
  H   H415      1.0  0.11304807477724446  0.7777313969774426  0.7888986841475126  1.0000
  H   H416      1.0  0.101108318694859  0.7890882320477681  0.7482249264601997  1.0000
  H   H417      1.0  0.13863580648837093  0.7898370389543212  0.749864477117262  1.0000
  H   H418      1.0  0.1378742527452708  0.73857204333844  0.7512486798908363  1.0000
  H   H419      1.0  0.0998179855909679  0.7003150907970781  0.7516723268579274  1.0000
  H   H420      1.0  0.11272705451659597  0.7263956774793541  0.7906333331672192  1.0000
  N   N20       1.0  0.7935284227159776  0.10391643095534409  0.530644168837083  1.0000
  C   C365      1.0  0.7737802504158858  0.11605936388390094  0.5149899581248784  1.0000
  C   C366      1.0  0.8284664363135462  0.1278513607197543  0.5240596986686413  1.0000
  C   C367      1.0  0.7840702010810197  0.07242878143071141  0.5136375008115476  1.0000
  C   C368      1.0  0.7878523697519911  0.09947795508268822  0.5699254430072562  1.0000
  H   H421      1.0  0.7787214451497443  0.12142733627143823  0.48575431597345375  1.0000
  H   H422      1.0  0.7791604255380749  0.1388673758114928  0.528600326832701  1.0000
  H   H423      1.0  0.7472741917793603  0.09815641261053386  0.5179995484872817  1.0000
  H   H424      1.0  0.8337081337444445  0.131834969995031  0.49470487405361674  1.0000
  H   H425      1.0  0.8362492753353106  0.15197653007871342  0.5362695908722664  1.0000
  H   H426      1.0  0.8442473701965247  0.11982769041530854  0.5359202558682723  1.0000
  H   H427      1.0  0.7989285670910796  0.06285946593862304  0.5243361657889865  1.0000
  H   H428      1.0  0.7872527790430404  0.07468854266471679  0.48386342955018596  1.0000
  H   H429      1.0  0.7580198963053858  0.053576786868632195  0.5187880433045972  1.0000
  H   H430      1.0  0.8020798506637837  0.09001824200362217  0.5826585003539732  1.0000
  H   H431      1.0  0.7616489220921027  0.08207753309962378  0.5760555740300493  1.0000
  H   H432      1.0  0.7952537399085033  0.12292499432517737  0.5835931229106942  1.0000
  N   N21       1.0  0.8946206933184223  0.6757728952717034  0.5113012335675614  1.0000
  C   C369      1.0  0.8779613594961356  0.6417527671240164  0.5238027937560105  1.0000
  C   C370      1.0  0.9293713076564681  0.6879114665724689  0.5048157526228046  1.0000
  C   C371      1.0  0.8919895332141171  0.6961036106956624  0.5392027685311943  1.0000
  C   C372      1.0  0.8791276055862499  0.6772284790520705  0.47743665345821146  1.0000
  H   H433      1.0  0.8515649949904566  0.6316921737695601  0.5281766050979161  1.0000
  H   H434      1.0  0.8881645991710455  0.6398034814325813  0.5500263600787992  1.0000
  H   H435      1.0  0.8800420086781583  0.6257618950887969  0.5038994010444936  1.0000
  H   H436      1.0  0.9427287803592359  0.7135639232017346  0.4953959360537288  1.0000
  H   H437      1.0  0.9416987886257667  0.6869629522704952  0.5298457099192577  1.0000
  H   H438      1.0  0.932129575317538  0.6730570597485456  0.48382100344016427  1.0000
  H   H439      1.0  0.9044383627989414  0.7220226552298489  0.5309779632389541  1.0000
  H   H440      1.0  0.9027557401662227  0.6949580063131483  0.5653961035347184  1.0000
  H   H441      1.0  0.8660488866874317  0.6875869605520772  0.5446680696237307  1.0000
  H   H442      1.0  0.8526327899145385  0.6674132032761637  0.48109254884145514  1.0000
  H   H443      1.0  0.8811462850912841  0.6626141210447002  0.45556776252533465  1.0000
  H   H444      1.0  0.8904750291739884  0.7025934805498123  0.4675623663714633  1.0000
  N   N22       1.0  0.040031873751208424  0.4370243122977771  0.5580311964363902  1.0000
  C   C373      1.0  0.056123476997061106  0.4615898041101105  0.5871171416466323  1.0000
  C   C374      1.0  0.06023535096747157  0.4486389783244383  0.5252584994298756  1.0000
  C   C375      1.0  0.007616891941045534  0.43184821503196563  0.5499717069554998  1.0000
  C   C376      1.0  0.036161248793805  0.4060021759159413  0.569633087220222  1.0000
  H   H445      1.0  0.041729280117004164  0.45369224348957926  0.6123854099740595  1.0000
  H   H446      1.0  0.059766454103934  0.48544479785109074  0.5791462175427384  1.0000
  H   H447      1.0  0.08078794371423381  0.46627034204196277  0.5935709385666493  1.0000
  H   H448      1.0  0.0480586085101522  0.43152946249022167  0.502218164227092  1.0000
  H   H449      1.0  0.06538653606082723  0.4729631348868447  0.516871901579079  1.0000
  H   H450      1.0  0.0842116178522172  0.45113005247586835  0.5298515259848131  1.0000
  H   H451      1.0  0.9948433098931541  0.41330498502283697  0.5281828915874479  1.0000
  H   H452      1.0  0.009743105516511363  0.4547527833270784  0.5408114745001718  1.0000
  H   H453      1.0  0.9916943208037462  0.423151314200421  0.5741252276612306  1.0000
  H   H454      1.0  0.0209439894442065  0.3963330384817175  0.5942125899475631  1.0000
  H   H455      1.0  0.0601785731909068  0.40898521013797123  0.5758896938253741  1.0000
  H   H456      1.0  0.024480080726956066  0.3870310424645079  0.5481365146213808  1.0000
  N   N23       1.0  0.2143298741750496  0.6695166276289998  0.5317596282094728  1.0000
  C   C377      1.0  0.21182658069289537  0.6830475399804862  0.5664695048285928  1.0000
  C   C378      1.0  0.20063409893536246  0.679620966420489  0.5025874109159841  1.0000
  C   C379      1.0  0.19584639425285028  0.6336182018530628  0.5337524416403383  1.0000
  C   C380      1.0  0.24897748464199057  0.6818418689063471  0.5243473665473996  1.0000
  H   H457      1.0  0.22267750526442615  0.6767210023613729  0.5891304440861552  1.0000
  H   H458      1.0  0.18595105392438677  0.6733022424241373  0.5735031159745613  1.0000
  H   H459      1.0  0.2242693593460947  0.7100338162138895  0.5655008294647688  1.0000
  H   H460      1.0  0.2011250729199818  0.6690983307137127  0.47609828985019437  1.0000
  H   H461      1.0  0.174862152406822  0.6718688799683089  0.5081701247837972  1.0000
  H   H462      1.0  0.21451958347798575  0.7065978641580232  0.49979488626237406  1.0000
  H   H463      1.0  0.19753455445959622  0.6223895176785019  0.5083217543118249  1.0000
  H   H464      1.0  0.16951620087726063  0.6235935511179982  0.5387908129532283  1.0000
  H   H465      1.0  0.20501884472148327  0.6251688555871586  0.5560859760627398  1.0000
  H   H466      1.0  0.2518189416498568  0.6722797306582053  0.4982231676224987  1.0000
  H   H467      1.0  0.25993965621493986  0.6744958393023335  0.5458797010320557  1.0000
  H   H468      1.0  0.2635795211695999  0.7089154453988386  0.5229829973140887  1.0000
  N   N24       1.0  0.31835628172818975  0.9563705062855543  0.270760905923914  1.0000
  C   C381      1.0  0.28456318981671197  0.9403438347377948  0.25670995900701615  1.0000
  C   C382      1.0  0.3179041417174644  0.9572299585846257  0.3105906886121289  1.0000
  C   C383      1.0  0.3378292834436025  0.9899994263430715  0.25698480176852656  1.0000
  C   C384      1.0  0.3330364075515427  0.9378047581623107  0.2588304163117995  1.0000
  H   H469      1.0  0.2838800971048458  0.9393302328689315  0.22670902607253524  1.0000
  H   H470      1.0  0.272495222897265  0.9533724823793328  0.26556091377886365  1.0000
  H   H471      1.0  0.2694340282879866  0.9148103978875965  0.26655014780773834  1.0000
  H   H472      1.0  0.3079047653402102  0.9718409386405579  0.3206427658098884  1.0000
  H   H473      1.0  0.3026151648886328  0.9323849533877548  0.3218787268969538  1.0000
  H   H474      1.0  0.34276463554446696  0.9680363893240621  0.32232564615170134  1.0000
  H   H475      1.0  0.32716203579859876  0.00456216158152678  0.2650079977290452  1.0000
  H   H476      1.0  0.3393697700085482  0.990378404416151  0.2270344732760253  1.0000
  H   H477      1.0  0.36325662546848714  0.0029557190421252155  0.2678247401309389  1.0000
  H   H478      1.0  0.35859324539588827  0.9492458865385901  0.2685994022157975  1.0000
  H   H479      1.0  0.333257371096438  0.936205834798495  0.22890491924563847  1.0000
  H   H480      1.0  0.3192562310587869  0.9124571693973657  0.2692373860614663  1.0000
  N   N25       1.0  0.6697333160597546  0.8767087065158322  0.06624310817271452  1.0000
  C   C385      1.0  0.6518573183883138  0.8679078469456442  0.10068298423350958  1.0000
  C   C386      1.0  0.6493244720334213  0.8525586272603657  0.038161702566848144  1.0000
  C   C387      1.0  0.7003089734108316  0.8770833979759534  0.07097058225277333  1.0000
  C   C388      1.0  0.6773823524963029  0.9092688120725907  0.05509005565180899  1.0000
  H   H481      1.0  0.6666814455873905  0.8853027976363872  0.12267999687396834  1.0000
  H   H482      1.0  0.6450257471654931  0.843141405332532  0.10962064712158753  1.0000
  H   H483      1.0  0.6289341231178788  0.8679749058083484  0.09816439761440132  1.0000
  H   H484      1.0  0.6620393674723346  0.8583091714383242  0.011789519628789824  1.0000
  H   H485      1.0  0.6426431701523961  0.8275370012469491  0.04571309655334367  1.0000
  H   H486      1.0  0.6261475243297047  0.8517812591609429  0.03366218864612547  1.0000
  H   H487      1.0  0.6952656763054438  0.852789591751078  0.0793985208968532  1.0000
  H   H488      1.0  0.7163490492712513  0.895096552489373  0.09193814317849414  1.0000
  H   H489      1.0  0.7143474607279441  0.8836002737913984  0.04541385760372273  1.0000
  H   H490      1.0  0.6907448752564141  0.9167428721816855  0.0290569740640092  1.0000
  H   H491      1.0  0.6926675756910627  0.9282817049631982  0.07554397132746164  1.0000
  H   H492      1.0  0.6547700039929357  0.9097271702327491  0.05113248546593028  1.0000
  N   N26       1.0  0.15006033655051443  0.3980288831565351  0.41607617691119125  1.0000
  C   C389      1.0  0.1525959174337217  0.396898217898691  0.4557212423228471  1.0000
  C   C390      1.0  0.11716140981244583  0.37189782486947054  0.4040144988913757  1.0000
  C   C391      1.0  0.17488048244320709  0.39335083154070893  0.39904084619609287  1.0000
  C   C392      1.0  0.15568854185569592  0.4300271509532597  0.4055922133945894  1.0000
  H   H493      1.0  0.17689505533462713  0.4166560490056243  0.4657722442648784  1.0000
  H   H494      1.0  0.1489806026945144  0.3733338015466253  0.4647842712664816  1.0000
  H   H495      1.0  0.13393865745779854  0.39987897199580347  0.46945264088586597  1.0000
  H   H496      1.0  0.09778344946601614  0.3745051792275473  0.4165280335850315  1.0000
  H   H497      1.0  0.1142442194906872  0.3721292837869557  0.37423376693686755  1.0000
  H   H498      1.0  0.1121819799968724  0.347454066050469  0.41154535569513606  1.0000
  H   H499      1.0  0.17348985910718873  0.3936598939661168  0.3690803249867631  1.0000
  H   H500      1.0  0.17198905086646188  0.369827715661478  0.406998808667527  1.0000
  H   H501      1.0  0.1999597729129572  0.4129584973725971  0.40708266896552014  1.0000
  H   H502      1.0  0.18021480811956492  0.4502962594460719  0.4146878989345723  1.0000
  H   H503      1.0  0.13735411775459383  0.43436343007615474  0.4178379908989151  1.0000
  H   H504      1.0  0.15431029217019887  0.43194963577180745  0.37581834241799356  1.0000
  N   N27       1.0  0.5397365875031265  0.7636074195835199  0.46165514319234136  1.0000
  C   C393      1.0  0.5121364298100587  0.7683174392322056  0.4662645687663215  1.0000
  C   C394      1.0  0.5373361588851  0.7489831708411314  0.42581424444496396  1.0000
  C   C395      1.0  0.5390071452059705  0.742080063027476  0.49030788854005075  1.0000
  C   C396      1.0  0.5706796212791053  0.7954030211055606  0.4642454582428835  1.0000
  H   H505      1.0  0.5136394581443533  0.7799984521426209  0.4927482277355703  1.0000
  H   H506      1.0  0.48830041472550867  0.7448136489332067  0.4649826768571159  1.0000
  H   H507      1.0  0.511966089775573  0.7843844815460912  0.444910976435885  1.0000
  H   H508      1.0  0.5141800848124232  0.7250168704244531  0.4226042511655835  1.0000
  H   H509      1.0  0.5382748600602448  0.7650319411626669  0.4037208823974439  1.0000
  H   H510      1.0  0.557881662976521  0.745215753649548  0.4212945212269239  1.0000
  H   H511      1.0  0.5599347257462851  0.73860504482644  0.4880153910632421  1.0000
  H   H512      1.0  0.5161205385510409  0.7176917438181583  0.4891323537451519  1.0000
  H   H513      1.0  0.5406008621528181  0.7525896791272276  0.5176215413656319  1.0000
  H   H514      1.0  0.5920758372403272  0.7932256106475071  0.45890913199327527  1.0000
  H   H515      1.0  0.5743359325136289  0.8063397154369089  0.4915126632382683  1.0000
  H   H516      1.0  0.5710387226823064  0.8129596236445615  0.4446892906166601  1.0000
  N   N28       1.0  0.9524528996919635  0.6491647912277448  0.15169495628448013  1.0000
  C   C397      1.0  0.9232833290446957  0.6167572884435268  0.1437838421125267  1.0000
  C   C398      1.0  0.9483137600638858  0.6611558944670722  0.18669293887347563  1.0000
  C   C399      1.0  0.9566904011677151  0.6721759494928768  0.12300167368633087  1.0000
  C   C400      1.0  0.9815809509194273  0.6466198634688359  0.15343920985038056  1.0000
  H   H517      1.0  0.9260959752433342  0.6062693559083199  0.11839168776747909  1.0000
  H   H518      1.0  0.9010200355068273  0.6179680814881514  0.1410652110309529  1.0000
  H   H519      1.0  0.9185852485769602  0.5991872054194178  0.16581311089699702  1.0000
  H   H520      1.0  0.9266607924709572  0.6635737946135521  0.18649446910989564  1.0000
  H   H521      1.0  0.9450204407676341  0.6443231997840688  0.20888685589157485  1.0000
  H   H522      1.0  0.9701373727232196  0.6852995475552984  0.1939996688462174  1.0000
  H   H523      1.0  0.935190076505322  0.6748188176928245  0.12111038688236096  1.0000
  H   H524      1.0  0.9599806895253316  0.6639655105783231  0.09619175540510679  1.0000
  H   H525      1.0  0.9785606734250648  0.6968327294290326  0.12833958362557946  1.0000
  H   H526      1.0  0.004023355901190406  0.670577611856527  0.1597593297928479  1.0000
  H   H527      1.0  0.9857633242426157  0.6377844202524396  0.127553248058176  1.0000
  H   H528      1.0  0.9791554730075103  0.6294714923001504  0.17488487986857065  1.0000
  N   N29       1.0  0.8579954875741098  0.20126034053718617  0.13121024966988334  1.0000
  C   C401      1.0  0.8469047701800999  0.18866372938213935  0.1679880821411948  1.0000
  C   C402      1.0  0.8936537336454743  0.22460871609970934  0.13160052316922682  1.0000
  C   C403      1.0  0.841472681357198  0.21788205333968763  0.11862808829003618  1.0000
  C   C404      1.0  0.8498544968770273  0.17388801833255546  0.10656158773140574  1.0000
  H   H529      1.0  0.8198868526342116  0.17176517207275951  0.16881377453157015  1.0000
  H   H530      1.0  0.8534251865198335  0.20872548559013104  0.1875490565362921  1.0000
  H   H531      1.0  0.8580335018536863  0.17505615444109723  0.17800684903592517  1.0000
  H   H532      1.0  0.9005253167101716  0.24568864122404857  0.14975697912811792  1.0000
  H   H533      1.0  0.906949583081183  0.21297787331354648  0.14117496194282847  1.0000
  H   H534      1.0  0.9027271509788024  0.2343982744003447  0.10413561621650409  1.0000
  H   H535      1.0  0.8494749179360837  0.22803779766352078  0.09107008988334636  1.0000
  H   H536      1.0  0.8462208110068263  0.23813176192929333  0.13704971779791322  1.0000
  H   H537      1.0  0.8146557406818179  0.2006632535431415  0.11701391388311166  1.0000
  H   H538      1.0  0.8566787465710882  0.1823113319314003  0.07823030155279505  1.0000
  H   H539      1.0  0.8231375044133206  0.1554796818772645  0.10628224997113615  1.0000
  H   H540      1.0  0.8624931443221016  0.16119757276779265  0.11455025301619833  1.0000
  N   N30       1.0  0.9451979652754259  0.25521653416087103  0.8211556872624248  1.0000
  C   C405      1.0  0.9096849215397295  0.2391432357489067  0.8147746090142858  1.0000
  C   C406      1.0  0.960826409630228  0.29076696982542  0.8172894691539776  1.0000
  C   C407      1.0  0.9590714815846739  0.24321824767448832  0.7945051148619888  1.0000
  C   C408      1.0  0.9512365891020125  0.24786430692861214  0.8580123236260163  1.0000
  H   H541      1.0  0.8968649444884214  0.21227371292960254  0.8176124678006357  1.0000
  H   H542      1.0  0.9042727609099959  0.24433552940287545  0.7872389229066448  1.0000
  H   H543      1.0  0.8985155596632168  0.24795500226130027  0.8341744543989548  1.0000
  H   H544      1.0  0.9565569769630254  0.2973705531923955  0.7899547757843761  1.0000
  H   H545      1.0  0.9507517298626273  0.30042238119309  0.836902404867743  1.0000
  H   H546      1.0  0.9875989654732739  0.3039197638061898  0.8224229490819545  1.0000
  H   H547      1.0  0.9858600598346708  0.2549273942359087  0.7985759545154236  1.0000
  H   H548      1.0  0.9549505248498599  0.24853763874429077  0.7664485214311652  1.0000
  H   H549      1.0  0.9477327147046618  0.21642501270430428  0.7965728567992131  1.0000
  H   H550      1.0  0.9778357795336139  0.2601714344998441  0.8640230526366339  1.0000
  H   H551      1.0  0.9399609426247244  0.22128273894717038  0.8620241908337017  1.0000
  H   H552      1.0  0.9410615540318416  0.25663428914460834  0.8787823080116628  1.0000
  N   N31       1.0  0.6474335660301387  0.8336497665772837  0.7158588650858225  1.0000
  C   C409      1.0  0.6136216854902568  0.8182151550076345  0.7020311933196116  1.0000
  C   C410      1.0  0.6703643525611465  0.8540207039361611  0.6872778187198724  1.0000
  C   C411      1.0  0.6539716303643993  0.8081971163760023  0.7263178532838156  1.0000
  C   C412      1.0  0.6517887103935701  0.8541029219439924  0.7476574847065629  1.0000
  H   H553      1.0  0.6092394189318254  0.8016819080316104  0.6788958647527664  1.0000
  H   H554      1.0  0.6081739203711047  0.836622663304934  0.6925511764858637  1.0000
  H   H555      1.0  0.5955504816892461  0.8034404832548033  0.7230694427391802  1.0000
  H   H556      1.0  0.667400387097327  0.8392282556785042  0.6628112225263981  1.0000
  H   H557      1.0  0.6662465818056196  0.8735709151541085  0.6787297545450393  1.0000
  H   H558      1.0  0.696167372422873  0.8656928268507792  0.6964645290209709  1.0000
  H   H559      1.0  0.6790336014544812  0.8188600331144283  0.7375448397981392  1.0000
  H   H560      1.0  0.6516694099654612  0.7928564698163535  0.7027479093870409  1.0000
  H   H561      1.0  0.6366152971411199  0.791710301147889  0.7471120974515992  1.0000
  H   H562      1.0  0.6354875000916399  0.8392807803036035  0.7700891113772983  1.0000
  H   H563      1.0  0.646092983926953  0.8729790643298224  0.741098741661877  1.0000
  H   H564      1.0  0.6772325537876579  0.8666900350995277  0.7583011050362563  1.0000
  N   N32       1.0  0.21738077371697387  0.5689981459520741  0.14966127956160613  1.0000
  C   C413      1.0  0.21141154365474785  0.5959225563872583  0.1506900527855612  1.0000
  C   C414      1.0  0.24243865515262814  0.5760989789682766  0.12236223022219571  1.0000
  C   C415      1.0  0.1867434281745988  0.5383861091686912  0.14005433042919682  1.0000
  C   C416      1.0  0.22887491808048008  0.565496991339109  0.18538381873169849  1.0000
  H   H565      1.0  0.19251629723790456  0.5914307182216264  0.17082253614310272  1.0000
  H   H566      1.0  0.2025917677397548  0.5988875674946736  0.1240463605610542  1.0000
  H   H567      1.0  0.23402210426535353  0.6195605212047363  0.15748243334407586  1.0000
  H   H568      1.0  0.23451947659716424  0.5788709639107428  0.0950496139322548  1.0000
  H   H569      1.0  0.2659161802884387  0.5989817486950203  0.12877354155875262  1.0000
  H   H570      1.0  0.24740324018289694  0.5561483186473107  0.12065841785320634  1.0000
  H   H571      1.0  0.18994017775288546  0.5172998342436266  0.13997707804111398  1.0000
  H   H572      1.0  0.17817288788271568  0.5396714467918299  0.1126882947341554  1.0000
  H   H573      1.0  0.16679102884223823  0.5327823324317127  0.15912581519323762  1.0000
  H   H574      1.0  0.2519382341612359  0.5881347322924182  0.19359977262349778  1.0000
  H   H575      1.0  0.23368978672303717  0.5453705683222587  0.1851408418421385  1.0000
  H   H576      1.0  0.21038616290496737  0.5597284334706817  0.20654284616070392  1.0000
  N   N33       1.0  0.7107393050051364  0.20622029713501533  0.7588150655459007  1.0000
  C   C417      1.0  0.7315174098575284  0.21980250411950011  0.7266136984261018  1.0000
  C   C418      1.0  0.7316043083314008  0.21536124573359433  0.7914500140639814  1.0000
  C   C419      1.0  0.690532908094127  0.17037273317701288  0.7555972814508994  1.0000
  C   C420      1.0  0.6892939682005763  0.21930319668673137  0.7615499276436768  1.0000
  H   H577      1.0  0.7166523981808401  0.21287790456624642  0.7013598710572967  1.0000
  H   H578      1.0  0.7483265129480793  0.21079212753776372  0.7240698116105826  1.0000
  H   H579      1.0  0.7469155229026286  0.24682454432931175  0.7278110753732524  1.0000
  H   H580      1.0  0.716789994510773  0.20602865788125382  0.8163625451203247  1.0000
  H   H581      1.0  0.7474798411094712  0.20513204668153567  0.7905439456352121  1.0000
  H   H582      1.0  0.7479764362391527  0.24223489927699687  0.794188770328624  1.0000
  H   H583      1.0  0.6743529753504205  0.1592388428846654  0.7792692389674173  1.0000
  H   H584      1.0  0.705981875794061  0.1596765147954896  0.7537235961462055  1.0000
  H   H585      1.0  0.674754884412838  0.1626142612462803  0.7310325292050778  1.0000
  H   H586      1.0  0.6730036948230796  0.20930889940521794  0.7853429867143589  1.0000
  H   H587      1.0  0.6733920474917447  0.21290805827771542  0.7372348642755394  1.0000
  H   H588      1.0  0.7037285907285252  0.24630035897972144  0.7641216860971354  1.0000
  N   N34       1.0  0.36019991973729965  0.5454605494447831  0.6807808431240387  1.0000
  C   C421      1.0  0.3624223779695658  0.5245611440198708  0.6533172138925609  1.0000
  C   C422      1.0  0.38806540138191314  0.5792533479745005  0.6768568941436041  1.0000
  C   C423      1.0  0.3611327564134615  0.5335567391662919  0.7171312062090306  1.0000
  C   C424      1.0  0.32925591887141054  0.5443834449276279  0.6758894302287113  1.0000
  H   H589      1.0  0.38512627941611616  0.5241869153576193  0.6568294446680047  1.0000
  H   H590      1.0  0.3621662261488709  0.5329783449389489  0.6255307360493463  1.0000
  H   H591      1.0  0.34162421475462346  0.4989334810003751  0.6552691817146175  1.0000
  H   H592      1.0  0.3879251229021705  0.5955349679867845  0.6979957894470586  1.0000
  H   H593      1.0  0.4117026864826761  0.5805738501873144  0.6793476966364759  1.0000
  H   H594      1.0  0.38781004847052286  0.5894429754493545  0.6501061157180665  1.0000
  H   H595      1.0  0.36031675701336513  0.5490837678075617  0.7387778005887901  1.0000
  H   H596      1.0  0.3837335462648642  0.5332134369686858  0.7214373650526384  1.0000
  H   H597      1.0  0.3401097546073296  0.5083416682410647  0.7211755300869291  1.0000
  H   H598      1.0  0.3077906245259174  0.5191030319782319  0.6783658429270623  1.0000
  H   H599      1.0  0.32764207500443265  0.5532757305046383  0.6488056030105274  1.0000
  H   H600      1.0  0.3265579749869757  0.5594819741086241  0.6965549183913502  1.0000
  N   N35       1.0  0.9756531404673485  0.5228986427881055  0.7838734926985294  1.0000
  C   C425      1.0  0.942830053133173  0.493027667874952  0.785582395976575  1.0000
  C   C426      1.0  0.0003430259545309648  0.5139459657619315  0.7797859090358015  1.0000
  C   C427      1.0  0.9823144919374777  0.5419700458284675  0.8174893248296954  1.0000
  C   C428      1.0  0.9771807715789733  0.5426399193824616  0.7527377500357451  1.0000
  H   H601      1.0  0.9236233571179311  0.4987252304871397  0.7902961049625723  1.0000
  H   H602      1.0  0.9413514284378882  0.4770811290295309  0.8079344831856877  1.0000
  H   H603      1.0  0.9364105920418967  0.478535658430516  0.7602077047400979  1.0000
  H   H604      1.0  0.996164652413919  0.4996243214530911  0.7546300532719709  1.0000
  H   H605      1.0  0.025442385156984486  0.5359524644325471  0.7787284590770736  1.0000
  H   H606      1.0  0.999682215421193  0.49886736628089345  0.8028471034597818  1.0000
  H   H607      1.0  0.00605355170018941  0.5656366553368213  0.8162981006954267  1.0000
  H   H608      1.0  0.9832094853619958  0.5285962007047699  0.8413190975245098  1.0000
  H   H609      1.0  0.9631516511752822  0.54765838614883  0.8225468969377455  1.0000
  H   H610      1.0  0.0018581838293869758  0.5649935546824677  0.7501796752157305  1.0000
  H   H611      1.0  0.9596594897736934  0.5507788162199453  0.7556301041755564  1.0000
  H   H612      1.0  0.9714009592698057  0.5288300571815482  0.7269354447984793  1.0000
  N   N36       1.0  0.446549235994928  0.19938049532642987  0.9807551931520136  1.0000
  C   C429      1.0  0.480547707286474  0.2230900072232713  0.9701270725400278  1.0000
  C   C430      1.0  0.44649952075468635  0.17903627444088113  0.01044202366720337  1.0000
  C   C431      1.0  0.4282769693664313  0.17854710198181237  0.9494108120365342  1.0000
  C   C432      1.0  0.4309094953973779  0.21692998869732077  0.9930407734354296  1.0000
  H   H613      1.0  0.48148417891451617  0.23910292153009866  0.9480384455600631  1.0000
  H   H614      1.0  0.4929746090410711  0.21072247640421374  0.9602260015215122  1.0000
  H   H615      1.0  0.49516802235681323  0.23901901870479783  0.9932379565158077  1.0000
  H   H616      1.0  0.42125035463854127  0.16073884791040688  0.019100022641064696  1.0000
  H   H617      1.0  0.4584871168017303  0.16572169803286602  0.00237538323674924  1.0000
  H   H618      1.0  0.4598582851852193  0.19408852282042094  0.034576283715056055  1.0000
  H   H619      1.0  0.4024237888849624  0.16052203925627032  0.9562902189042611  1.0000
  H   H620      1.0  0.43936997003610295  0.16492764901235815  0.9393448008034211  1.0000
  H   H621      1.0  0.428061385246403  0.19332510997611557  0.9265292366773105  1.0000
  H   H622      1.0  0.4055400686337233  0.19991347131034898  0.002300269049573478  1.0000
  H   H623      1.0  0.4297219513923551  0.2318885088817877  0.9711247215872088  1.0000
  H   H624      1.0  0.44466106583847226  0.233748491738448  0.01579051542530041  1.0000
  N   N37       1.0  0.5648667949976777  0.08691453873314751  0.16310268717002116  1.0000
  C   C433      1.0  0.5694632584149981  0.10829812386666558  0.13237720959538163  1.0000
  C   C434      1.0  0.5775162286710712  0.06598357614118515  0.1534729980793516  1.0000
  C   C435      1.0  0.5297595140205986  0.06646620938620888  0.17166000073017887  1.0000
  C   C436      1.0  0.5829257749852536  0.10704801382969341  0.19490244065796572  1.0000
  H   H625      1.0  0.5552269588116142  0.09408577509254323  0.10824194602224245  1.0000
  H   H626      1.0  0.5955550823035317  0.12312017614638215  0.12433361778593606  1.0000
  H   H627      1.0  0.5617215187293516  0.12561543952990342  0.139165759907574  1.0000
  H   H628      1.0  0.574738310112312  0.04964748755972017  0.17606206966268279  1.0000
  H   H629      1.0  0.5645734783915028  0.05049525649918876  0.12949193580329363  1.0000
  H   H630      1.0  0.6040104816827582  0.08082040685533906  0.1468406383722704  1.0000
  H   H631      1.0  0.525366158929619  0.050126985995563936  0.194832699655246  1.0000
  H   H632      1.0  0.5152439790625902  0.05103362506874675  0.14826303295707666  1.0000
  H   H633      1.0  0.5195363986391532  0.08155995331748417  0.1792039863328703  1.0000
  H   H634      1.0  0.5746257710309948  0.12376420400981043  0.20254563200534903  1.0000
  H   H635      1.0  0.60952128502721  0.1223304705445245  0.18949955575812963  1.0000
  H   H636      1.0  0.5796651477767399  0.09187052181357303  0.21883634328626586  1.0000
  N   N38       1.0  0.15592648265301018  0.7105688649819613  0.260318505309532  1.0000
  C   C437      1.0  0.17267322521853204  0.7372911554248209  0.2870598788427377  1.0000
  C   C438      1.0  0.12075123452471725  0.6903902766837069  0.26859067338294423  1.0000
  C   C439      1.0  0.17037265000079624  0.6902593642452041  0.2613264947132976  1.0000
  C   C440      1.0  0.1600676522816771  0.7244182256511568  0.2239381074597542  1.0000
  H   H637      1.0  0.199337505675817  0.7527608814579761  0.2816414591745855  1.0000
  H   H638      1.0  0.16988753859898187  0.7278218915259221  0.3149581628346599  1.0000
  H   H639      1.0  0.1628854097474365  0.7535476501822138  0.28647011309005443  1.0000
  H   H640      1.0  0.10749331281764539  0.6700903098112806  0.24874196947352592  1.0000
  H   H641      1.0  0.11655072212995607  0.6794900720195158  0.29589876882271704  1.0000
  H   H642      1.0  0.10905429883311546  0.7049516468759978  0.26761140849042947  1.0000
  H   H643      1.0  0.15863792609968025  0.6702079039783423  0.2409858295053116  1.0000
  H   H644      1.0  0.16768764913882325  0.6792183718582269  0.28832853761313126  1.0000
  H   H645      1.0  0.1969476991371384  0.7049107315028734  0.2551027257790806  1.0000
  H   H646      1.0  0.18629217503566836  0.7395512829514276  0.21686986368716318  1.0000
  H   H647      1.0  0.1496750235959839  0.7400813292957102  0.22189434374471587  1.0000
  H   H648      1.0  0.1479145725018021  0.704964218780931  0.20299654894655678  1.0000
  N   N39       1.0  0.30034382800168274  0.8667286904357122  0.6357520521262018  1.0000
  C   C441      1.0  0.2674470365771299  0.8373634550924555  0.6400769136736671  1.0000
  C   C442      1.0  0.3172279053459248  0.8615927476149742  0.6057795848133918  1.0000
  C   C443      1.0  0.3192586372911717  0.873021501327374  0.6695508535893044  1.0000
  C   C444      1.0  0.2974120415897974  0.8949441128693784  0.6276927227077468  1.0000
  H   H649      1.0  0.25233996400937414  0.8318473908075046  0.61528340434001  1.0000
  H   H650      1.0  0.2540327111886632  0.8403559931604287  0.6625385998627604  1.0000
  H   H651      1.0  0.26868817847153603  0.8155578139306177  0.6461022251671337  1.0000
  H   H652      1.0  0.3422134465305991  0.8832051980302396  0.6019053676033692  1.0000
  H   H653      1.0  0.31951018618126864  0.840239393508576  0.6107738114253733  1.0000
  H   H654      1.0  0.3038701710514326  0.8571658443624705  0.5797036582671806  1.0000
  H   H655      1.0  0.32203023038759954  0.8522649628219627  0.6765609373258942  1.0000
  H   H656      1.0  0.3070913011918422  0.8767535639943642  0.6928270124435587  1.0000
  H   H657      1.0  0.344193763576  0.8950853255213519  0.6675769864559459  1.0000
  H   H658      1.0  0.32179569077262715  0.9175866017151852  0.6244713901823423  1.0000
  H   H659      1.0  0.28455157813680243  0.8993338139349715  0.649665991253403  1.0000
  H   H660      1.0  0.28349125308666273  0.8911495409084152  0.6021884219298193  1.0000
  N   N40       1.0  0.5832430765875172  0.1855257977977245  0.5812638013128766  1.0000
  C   C445      1.0  0.6077362592095823  0.17877383208964354  0.5674770560148549  1.0000
  C   C446      1.0  0.5631261116596449  0.18544011701647084  0.5509931670350663  1.0000
  C   C447      1.0  0.600131211619954  0.2177801616700679  0.5991538973506074  1.0000
  C   C448      1.0  0.5620133591430084  0.16016352638948098  0.607440666188451  1.0000
  H   H661      1.0  0.62345527289186  0.17890237942650689  0.5896915091480689  1.0000
  H   H662      1.0  0.6242263417331325  0.197420071578763  0.5476590182766796  1.0000
  H   H663      1.0  0.5959433875502161  0.15455306356925455  0.5539906728464546  1.0000
  H   H664      1.0  0.5442898023144949  0.19029904658492258  0.5606547332995934  1.0000
  H   H665      1.0  0.578232106586852  0.2044898110731029  0.5308574704298019  1.0000
  H   H666      1.0  0.5500228230802923  0.16153414948181688  0.536740689390052  1.0000
  H   H667      1.0  0.6165197815363564  0.2374463407884697  0.5802400492167183  1.0000
  H   H668      1.0  0.6151725663696359  0.21864151281047262  0.622366306033969  1.0000
  H   H669      1.0  0.5824944096010904  0.22384572805349384  0.6097465598760422  1.0000
  H   H670      1.0  0.5763592360512598  0.158937521382377  0.6302184998444251  1.0000
  H   H671      1.0  0.5481826104856938  0.13563378386419725  0.5946361983700936  1.0000
  H   H672      1.0  0.5438349627299172  0.16497399298921453  0.6192154109000709  1.0000
  N   N41       1.0  0.5276244941763419  0.29814690980302394  0.7192513388984733  1.0000
  C   C449      1.0  0.5023425520210729  0.2633301561733775  0.7232239002794895  1.0000
  C   C450      1.0  0.5550985165875449  0.3067002498124475  0.7441425412606476  1.0000
  C   C451      1.0  0.5135704872889458  0.31797605688422365  0.7280719248521111  1.0000
  C   C452      1.0  0.5393974570571214  0.30438521294134663  0.6816529301689465  1.0000
  H   H673      1.0  0.4811998897054936  0.25579332539557514  0.7048183830474671  1.0000
  H   H674      1.0  0.4929363833096202  0.25759396351480923  0.751310649082879  1.0000
  H   H675      1.0  0.5123856350515853  0.24784601164692557  0.7170507832312348  1.0000
  H   H676      1.0  0.5749450157979547  0.33270031551953294  0.7417391107378463  1.0000
  H   H677      1.0  0.5470025352854951  0.30237179694111793  0.7727701723657393  1.0000
  H   H678      1.0  0.5657430729039784  0.2915601514135358  0.7388208845920498  1.0000
  H   H679      1.0  0.4927016604090141  0.3120390513942619  0.709819189024202  1.0000
  H   H680      1.0  0.5320100515804997  0.34443645335388273  0.725438990140347  1.0000
  H   H681      1.0  0.504347130327318  0.3136285875083407  0.7562658256952909  1.0000
  H   H682      1.0  0.5592637847528383  0.3302122590070626  0.6778115686368347  1.0000
  H   H683      1.0  0.5194700264473189  0.2991109833822998  0.6622531975847475  1.0000
  H   H684      1.0  0.5489445833379507  0.28877623400035535  0.6736845910975917  1.0000
  N   N42       1.0  0.8247501087954316  0.5691286953556629  0.037674773981094534  1.0000
  C   C453      1.0  0.797145061541459  0.5366161419812835  0.047860808498287805  1.0000
  C   C454      1.0  0.8143632188775373  0.5928172950246391  0.039030630203254146  1.0000
  C   C455      1.0  0.8351133313692825  0.5676188856778153  0.0006742955457748057  1.0000
  C   C456      1.0  0.852255925373287  0.5794631408930542  0.06310402473619524  1.0000
  H   H685      1.0  0.775786367481415  0.5283671731889464  0.02943051032229249  1.0000
  H   H686      1.0  0.7887623871915113  0.5367386926194814  0.07570206752867104  1.0000
  H   H687      1.0  0.8039197987141797  0.5179862909427019  0.04680546919783852  1.0000
  H   H688      1.0  0.8339603398594471  0.617375491820606  0.029948153947610967  1.0000
  H   H689      1.0  0.7926361932713566  0.5849893255172678  0.021522889360362507  1.0000
  H   H690      1.0  0.8076147376760457  0.5955480886047357  0.06683507033397411  1.0000
  H   H691      1.0  0.8145117826066376  0.5589076639432848  0.9811759774882725  1.0000
  H   H692      1.0  0.8439782342975822  0.55066764135318  0.9987101102080933  1.0000
  H   H693      1.0  0.8550476329543917  0.5919498263223334  0.9912906162177748  1.0000
  H   H694      1.0  0.8604856013987119  0.5619324887916597  0.06318183827384774  1.0000
  H   H695      1.0  0.8451800827760325  0.5811161106398595  0.09120714459751837  1.0000
  H   H696      1.0  0.8734249311667138  0.6038531383973981  0.05591942300113902  1.0000
  N   N43       1.0  0.49213735524317254  0.2706173881135421  0.21229365363743632  1.0000
  C   C457      1.0  0.497233365537522  0.29163537741169687  0.18099399159601023  1.0000
  C   C458      1.0  0.5238081801288078  0.28127565342401223  0.2299233333941995  1.0000
  C   C459      1.0  0.47714073209639013  0.236692615087192  0.1996740082891439  1.0000
  C   C460      1.0  0.47028432969246026  0.27256780718210044  0.23848637263433906  1.0000
  H   H697      1.0  0.47375794748817357  0.284149948198064  0.16701245016927152  1.0000
  H   H698      1.0  0.5132267898342255  0.290187348882771  0.16051255963279434  1.0000
  H   H699      1.0  0.5087792639985665  0.3175702737023433  0.18922665946876277  1.0000
  H   H700      1.0  0.5409560502476772  0.2801879470947554  0.21089915252084437  1.0000
  H   H701      1.0  0.5357144647959778  0.3066516835880483  0.2403059152393997  1.0000
  H   H702      1.0  0.5206771479930636  0.26541759396158254  0.25324600962106547  1.0000
  H   H703      1.0  0.45319735218840174  0.22778449625800787  0.18626743433310855  1.0000
  H   H704      1.0  0.47257660631769616  0.219920364325958  0.22224118572434282  1.0000
  H   H705      1.0  0.49331548576842654  0.23422211545691565  0.1804935140841914  1.0000
  H   H706      1.0  0.46587987606018477  0.2566869039006969  0.2622313871566408  1.0000
  H   H707      1.0  0.4460683841536529  0.2644853729460615  0.22617345731164  1.0000
  H   H708      1.0  0.4808678985292471  0.29780601503297915  0.24884826943269986  1.0000
  N   N44       1.0  0.6866108765781781  0.7323223354601409  0.3232569293373973  1.0000
  C   C461      1.0  0.7134912545830254  0.7273854066596364  0.3144758703674652  1.0000
  C   C462      1.0  0.6885642982184885  0.7578757098866414  0.2997718580612628  1.0000
  C   C463      1.0  0.6891606097969193  0.7424132508108506  0.36140710811651233  1.0000
  C   C464      1.0  0.6550612338173363  0.7015695451685735  0.31720525315659326  1.0000
  H   H709      1.0  0.7119864851078276  0.7197856930747248  0.2857100576769669  1.0000
  H   H710      1.0  0.7127308952839779  0.7081316550780987  0.3315397211344923  1.0000
  H   H711      1.0  0.7377271482288165  0.7501075894093252  0.3186145235879373  1.0000
  H   H712      1.0  0.6686761912261704  0.7623119916510369  0.305750129710434  1.0000
  H   H713      1.0  0.7121081247895266  0.7814177527878684  0.30342505825016114  1.0000
  H   H714      1.0  0.6864031755566941  0.7509168459867521  0.27075397249879357  1.0000
  H   H715      1.0  0.6876801444415401  0.7236751623162133  0.3799884638777253  1.0000
  H   H716      1.0  0.6690091167382739  0.7462313414098409  0.36854579354619416  1.0000
  H   H717      1.0  0.7126042234315761  0.7656448229300028  0.36698981066165953  1.0000
  H   H718      1.0  0.6526522492306905  0.6817128285744001  0.3345164004342965  1.0000
  H   H719      1.0  0.6523063250373814  0.693271520055297  0.2886419517028667  1.0000
  H   H720      1.0  0.6342010921957322  0.7044510534605866  0.3233812534563633  1.0000
  N   N45       1.0  0.917315996424886  0.5177954634788693  0.42461609220056024  1.0000
  C   C465      1.0  0.9280892461298539  0.5324392415809914  0.388543046371248  1.0000
  C   C466      1.0  0.8959445347160535  0.5278540543239066  0.4403793427781748  1.0000
  C   C467      1.0  0.9461747005938611  0.5289720061465086  0.4481748868770766  1.0000
  C   C468      1.0  0.899109051391406  0.4819595582050733  0.42132218952070916  1.0000
  H   H721      1.0  0.9442850442681646  0.5254567146470263  0.37569032847457046  1.0000
  H   H722      1.0  0.9417796833931615  0.5594940125879523  0.3900074909604904  1.0000
  H   H723      1.0  0.9069470758929942  0.5246663980288249  0.3700324519933757  1.0000
  H   H724      1.0  0.8862961595678727  0.516341709250385  0.46701229089628005  1.0000
  H   H725      1.0  0.9092665102248843  0.554715060496161  0.4443285451811792  1.0000
  H   H726      1.0  0.8747115914259959  0.5211779584990434  0.4223462858730407  1.0000
  H   H727      1.0  0.9627441435038826  0.5216960949529226  0.4369657904883822  1.0000
  H   H728      1.0  0.9389741583703798  0.5185054949141396  0.4756833934153396  1.0000
  H   H729      1.0  0.9605344414189122  0.5559783053739642  0.4510053917281094  1.0000
  H   H730      1.0  0.9146053647222283  0.47352416082482063  0.40979399812976175  1.0000
  H   H731      1.0  0.8773549042124356  0.47273617568365517  0.40337272665241625  1.0000
  H   H732      1.0  0.89032985071532  0.46994099396991845  0.4479123612610461  1.0000
  N   N46       1.0  0.4803631288768317  0.03699569225524657  0.7909789556736284  1.0000
  C   C469      1.0  0.5133799713049321  0.06366312320695844  0.8018770586894554  1.0000
  C   C470      1.0  0.45837698176559977  0.026946696303138173  0.8223028119746574  1.0000
  C   C471      1.0  0.4817998014569482  0.008937192428505547  0.777922778735362  1.0000
  C   C472      1.0  0.46791320549503995  0.04843464820011656  0.7618275738833791  1.0000
  H   H733      1.0  0.5307325933835365  0.07142955059301159  0.7789965935964047  1.0000
  H   H734      1.0  0.5233157375544464  0.05613954218710582  0.8243169270054339  1.0000
  H   H735      1.0  0.5132453362257619  0.08552620730968385  0.8109451633402487  1.0000
  H   H736      1.0  0.4330696693443308  0.0074872769495604174  0.8147600583047612  1.0000
  H   H737      1.0  0.4663742410407392  0.017125117316796334  0.844404943772536  1.0000
  H   H738      1.0  0.4571175934647556  0.047592954113402364  0.833452586201169  1.0000
  H   H739      1.0  0.45714092008825663  0.9881620490300689  0.7701139206805819  1.0000
  H   H740      1.0  0.4913734645462763  0.9998662362059847  0.7991870445428142  1.0000
  H   H741      1.0  0.49786722650194093  0.015458215942884213  0.7540351486504313  1.0000
  H   H742      1.0  0.46559311955996313  0.06897047772308351  0.7710990684562371  1.0000
  H   H743      1.0  0.4433275489731122  0.0287717502524949  0.7522678067323265  1.0000
  H   H744      1.0  0.4844825244554489  0.05726924891458074  0.7381873353933874  1.0000
  N   N47       1.0  0.8591226571064214  0.3922586705945121  0.9605669673724136  1.0000
  C   C473      1.0  0.8411598258607306  0.37693929612051613  0.9940901084000172  1.0000
  C   C474      1.0  0.8624447551976278  0.42415828223671376  0.9557956467030175  1.0000
  C   C475      1.0  0.8409929920723408  0.3709386788811857  0.9294844749801556  1.0000
  C   C476      1.0  0.8919109724772984  0.39697057295554516  0.962845810588639  1.0000
  H   H745      1.0  0.8381474153378525  0.35268512836654076  0.9981519811967583  1.0000
  H   H746      1.0  0.8163090405798785  0.37304121601953644  0.9933977607635703  1.0000
  H   H747      1.0  0.8542851772028536  0.3921278712689694  0.018183080934744744  1.0000
  H   H748      1.0  0.876367879467576  0.4364261080139052  0.9309924184978571  1.0000
  H   H749      1.0  0.838232219403279  0.4215923246510276  0.953137862821436  1.0000
  H   H750      1.0  0.8757209170625908  0.4408276161802656  0.9788768742933452  1.0000
  H   H751      1.0  0.8538402473443147  0.3816560340039762  0.9037156090949918  1.0000
  H   H752      1.0  0.8161421467548989  0.36685249453427315  0.9269702129663788  1.0000
  H   H753      1.0  0.8381009907710896  0.3466554791110167  0.9321089589594812  1.0000
  H   H754      1.0  0.9057340308746008  0.4073689626675593  0.9375789122620242  1.0000
  H   H755      1.0  0.8904815258181547  0.37359165852101944  0.9673707918058371  1.0000
  H   H756      1.0  0.9067275030128226  0.4137319666153499  0.985264205187849  1.0000
  N   N48       1.0  0.23515495885562784  0.7195696904968888  0.9633566050888063  1.0000
  C   C477      1.0  0.22623430123017718  0.7257361647495606  0.9991391933598495  1.0000
  C   C478      1.0  0.2626711755486989  0.7502605362062765  0.9489368867610917  1.0000
  C   C479      1.0  0.20676532760615882  0.7068565387338652  0.9386934593813993  1.0000
  C   C480      1.0  0.24473625637026528  0.6953374837072287  0.9669459088362639  1.0000
  H   H757      1.0  0.20595921337590703  0.7028287854277139  0.010799587239905373  1.0000
  H   H758      1.0  0.21826159629210068  0.74347944468918  0.9977803203884766  1.0000
  H   H759      1.0  0.24704702202226586  0.7355864127949603  0.018589387884646813  1.0000
  H   H760      1.0  0.2696281472541866  0.746828738060754  0.9215267184750564  1.0000
  H   H761      1.0  0.2564337806519951  0.7693106861590652  0.9470120020694414  1.0000
  H   H762      1.0  0.2846102762146184  0.7602070926561454  0.9666810094682672  1.0000
  H   H763      1.0  0.1989192969305374  0.7246081116039687  0.9356549128240669  1.0000
  H   H764      1.0  0.18549630811777815  0.6838125789583511  0.9490552558452615  1.0000
  H   H765      1.0  0.2124815608081459  0.7017592782639344  0.9113700415788512  1.0000
  H   H766      1.0  0.25202584755690693  0.6901681796018103  0.940622971287985  1.0000
  H   H767      1.0  0.22433963481071947  0.6718563156449933  0.9777217690904104  1.0000
  H   H768      1.0  0.26547279784731154  0.7038312410755122  0.9863103070032987  1.0000
