data_image0
_chemical_formula_structural       SNHSFeSH2FeSFeS2FeSFeS3FeSCFeS2CSFeSHSC6H4C6H4C6HCH3CFeHCNH6CH4NC3H4SH3FeHC3HC3H2SH2NC4H12CH3SCH3NCHCH2CH6CHCH3CHSHC2H3CS2CFeSC2HCFeSFeS2FeSFeS3FeS2FeS2HSFeSHSC6H4C6H4CHC4H4CH2CH3CH6CH2NC4H12S2C2H2NCFeCHCSCH8SFeH5NHC2H5C2SHC4HCNHC3H3CH3NH2FeS2H2Fe2SFeS3FeSFeS2FeSFeS3HSHFeSHFeSHSHCH6C6H4CH2CH2SC8H4C6H4NC4H9SCHNC4H11FeHCSHCHC2H7N2C4H7CFeH4C2H4FeS2HCHFe3S3FeSFeS2FeSFeS3HSHFeSHFeSHSHCHCHC2FeC6H5C2HCH4C6H4C6H3CNC4H3CH6FeH2SHCHCHCH3C2HNHCH6CHNH8CHCHNCHSCSHCH3NHCSH2CH3C2HCH2SH3CSFeSFeS3FeS2FeS2FeSFeS4C6H4C6H4C5HCH2C7H3CSCHSHCH3C7H10C3HCH2CH4CH3CNCH2SHNH3CHCHNFeHNHCH6C2H2C3HSH6CSHCHC2HCH2SHCHCSFeSHS3FeS2FeS2FeSFeS3HC6H4C6H4C6HCHCHC5H4NHC2SH5C6H8CHNHC3HNCH7CH3SCH3CHCH2CH3FeCH3CH9CHCH3NC2HCHSCSHCHCH3CH2SH4NHCH4FeC2NSH4CFeSNH3FeCHFeS2FeSFeHS2HSHFeSCHFeHCH5C3HC6H4FeS2H2C2SH2SH6CHC2H2CSHCH2NCHCH2C2NCHNHSH2SH4FeH3SCH4NC4HCHFeHCFeS2FeHFeS3CSH2SNFe2HCH4NSH3C6H8CHC2HC2S3CHCHCHSH4C2H4FeH3C3H3C2HCH3SCSFeH3CHSHC2HSH2CHCSCHSHS2FeSHSHSHSHCHSH2C6H4FeNCHNHC3HCH6CHSHFeH3CNCFe2H5NH3CHFeH2CFeH2C2H5C2H8C2H3FeHCH2SFeSHFeSCSCSHSHCHSFeC7H12FeH3CH4NCH2CHC2HNH3CFeH4CH2SC2HFeH4FeS2FeS2FeSFeS3CSHSFeSHSH4SCH2C4H4CH3NCH2NSCHCFeCH4C6H4C6H4CH2C3HC2H4CHSC2HCHCH4NSC2H3CHCH3CHCFeH5CHSH2CHC2H3SHNH8FeNHC3H3CH2CHC2H2FeS2FeS2FeSFeS3HSHSFeSHSH2C2SH2NC4H4CHCHC2HCH2C4H5C6H4C6H4NHFeNHC2H3N2H3C2SCH3FeH6CH2CH2CH4FeHCH4NC4H6CHCH2SH2CH3FeCNH2CHCH3CH2CH4CH2C4HC3H4SFeHSFeS2FeHFeS3FeS2NSFeSFeSHSFe2S2C2FeHS2CHCH3C2HNHC6H10C7H4C6H5C2SNH2C4H3CFeH2SH2NC4H17CH2C4H3C2SNH2CSHCHSH2C2H3CH4CHCHC2HFeS2FeSFeS3FeS2CHFeSFeS3Fe2S2FeHFeS3HFeH3C2H2CHC6H5CHSCNHC6H4C6H4CNH2NC4H10CH7NSCHCHCHSH2CH6CH5C3H3CH3C2HNHC2HFeH3CH3C3HCHCHCSH8SCFeS2FeSFeS3FeS2CHSFeHFeS3CHSC2HCFeCHSH2C6H4C6H5CH4CH2SCHC2HCSCHCHCNHFeCH3C3HCH2NH2C2HCH4CH3S2HC2HCHCH7C3H3CHCH2SCH3CSFeS2FeSFeS3FeS2HCSFeCFeS5HCSHCHC2H3C6H4C6H4CH3CH3SCH4CHC2H2C3H5CNCHCHCH3C2H6NCNC4H12NH2SH2CH2CNH4C3H2CHNC3HC2HCH3FeH4C3H3S2H
_chemical_formula_sum              "S288 N72 H1152 Fe144 C720"
_cell_length_a       57.1954
_cell_length_b       56.9947
_cell_length_c       48.6474
_cell_angle_alpha    89.7255
_cell_angle_beta     90.1953
_cell_angle_gamma    119.712

_space_group_name_H-M_alt    "P 1"
_space_group_IT_number       1

loop_
  _space_group_symop_operation_xyz
  'x, y, z'

loop_
  _atom_site_type_symbol
  _atom_site_label
  _atom_site_symmetry_multiplicity
  _atom_site_fract_x
  _atom_site_fract_y
  _atom_site_fract_z
  _atom_site_occupancy
  S   S1        1.0  0.23609  0.10825  0.42143  1.0000
  N   N1        1.0  0.23315  0.15115  0.34867  1.0000
  H   H1        1.0  0.18249  0.03243  0.46228  1.0000
  S   S2        1.0  0.12156  0.25254  0.47288  1.0000
  Fe  Fe1       1.0  0.23835  0.14229  0.44728  1.0000
  S   S3        1.0  0.20553  0.15325  0.43781  1.0000
  H   H2        1.0  0.23635  0.11556  0.35586  1.0000
  H   H3        1.0  0.23358  0.39602  0.21370  1.0000
  Fe  Fe2       1.0  0.23716  0.41812  0.27644  1.0000
  S   S4        1.0  0.21413  0.37346  0.26673  1.0000
  Fe  Fe3       1.0  0.18463  0.42125  0.28017  1.0000
  S   S5        1.0  0.15911  0.37716  0.27008  1.0000
  S   S6        1.0  0.16312  0.44631  0.28041  1.0000
  Fe  Fe4       1.0  0.18588  0.37133  0.30018  1.0000
  S   S7        1.0  0.16564  0.33484  0.32892  1.0000
  Fe  Fe5       1.0  0.18923  0.38279  0.23732  1.0000
  S   S8        1.0  0.17698  0.37089  0.19175  1.0000
  S   S9        1.0  0.21030  0.41530  0.31197  1.0000
  S   S10       1.0  0.21340  0.42755  0.24557  1.0000
  Fe  Fe6       1.0  0.13957  0.24243  0.00125  1.0000
  S   S11       1.0  0.17209  0.28465  0.01117  1.0000
  C   C1        1.0  0.23793  0.42281  0.16736  1.0000
  Fe  Fe7       1.0  0.09445  0.25660  0.00812  1.0000
  S   S12       1.0  0.12444  0.29976  0.01961  1.0000
  S   S13       1.0  0.05025  0.24661  0.00689  1.0000
  C   C2        1.0  0.17110  0.19826  0.46070  1.0000
  S   S14       1.0  0.15429  0.33241  0.45940  1.0000
  Fe  Fe8       1.0  0.14551  0.28340  0.04620  1.0000
  S   S15       1.0  0.16406  0.29259  0.09009  1.0000
  H   H4        1.0  0.06320  0.44145  0.43636  1.0000
  S   S16       1.0  0.11371  0.24030  0.03723  1.0000
  C   C3        1.0  0.17315  0.34846  0.16400  1.0000
  C   C4        1.0  0.16240  0.35101  0.13873  1.0000
  C   C5        1.0  0.15924  0.33411  0.11608  1.0000
  C   C6        1.0  0.16703  0.31441  0.11815  1.0000
  C   C7        1.0  0.17801  0.31203  0.14336  1.0000
  C   C8        1.0  0.18096  0.32877  0.16609  1.0000
  H   H5        1.0  0.15624  0.36608  0.13668  1.0000
  H   H6        1.0  0.15080  0.33638  0.09699  1.0000
  H   H7        1.0  0.18411  0.29693  0.14541  1.0000
  H   H8        1.0  0.18915  0.32631  0.18526  1.0000
  C   C9        1.0  0.16385  0.33470  0.36530  1.0000
  C   C10       1.0  0.14888  0.30986  0.37906  1.0000
  C   C11       1.0  0.14578  0.30878  0.40783  1.0000
  C   C12       1.0  0.15757  0.33262  0.42317  1.0000
  C   C13       1.0  0.17268  0.35746  0.40945  1.0000
  C   C14       1.0  0.17597  0.35852  0.38068  1.0000
  H   H9        1.0  0.13931  0.29134  0.36731  1.0000
  H   H10       1.0  0.13388  0.28955  0.41806  1.0000
  H   H11       1.0  0.18201  0.37600  0.42118  1.0000
  H   H12       1.0  0.18783  0.37777  0.37046  1.0000
  C   C15       1.0  0.12072  0.47816  0.33808  1.0000
  C   C16       1.0  0.12000  0.48057  0.30950  1.0000
  C   C17       1.0  0.13317  0.47081  0.29234  1.0000
  C   C18       1.0  0.14741  0.45867  0.30341  1.0000
  C   C19       1.0  0.14850  0.45665  0.33204  1.0000
  C   C20       1.0  0.13502  0.46607  0.34919  1.0000
  H   H13       1.0  0.11461  0.49049  0.45935  1.0000
  C   C21       1.0  0.09452  0.48493  0.46807  1.0000
  H   H14       1.0  0.16007  0.44827  0.34098  1.0000
  H   H15       1.0  0.24605  0.32817  0.47445  1.0000
  H   H16       1.0  0.05120  0.49160  0.47325  1.0000
  C   C22       1.0  0.17081  0.17683  0.98410  1.0000
  Fe  Fe9       1.0  0.24819  0.09452  0.45966  1.0000
  H   H17       1.0  0.22418  0.40502  0.15462  1.0000
  C   C23       1.0  0.17729  0.18021  0.44695  1.0000
  N   N2        1.0  0.07553  0.48276  0.44625  1.0000
  H   H18       1.0  0.10915  0.48980  0.30056  1.0000
  H   H19       1.0  0.13231  0.47270  0.27027  1.0000
  H   H20       1.0  0.20876  0.12914  0.38336  1.0000
  H   H21       1.0  0.16559  0.16930  0.42919  1.0000
  H   H22       1.0  0.21429  0.15445  0.31169  1.0000
  H   H23       1.0  0.21854  0.25825  0.04879  1.0000
  C   C24       1.0  0.07196  0.46165  0.42641  1.0000
  H   H24       1.0  0.17723  0.19806  0.04194  1.0000
  H   H25       1.0  0.24654  0.44101  0.15391  1.0000
  H   H26       1.0  0.18720  0.24452  0.03080  1.0000
  H   H27       1.0  0.14521  0.20322  0.08942  1.0000
  N   N3        1.0  0.18423  0.22873  0.07157  1.0000
  C   C25       1.0  0.19749  0.23830  0.09854  1.0000
  C   C26       1.0  0.19671  0.25104  0.05140  1.0000
  C   C27       1.0  0.15528  0.21986  0.07419  1.0000
  H   H28       1.0  0.23041  0.18469  0.33204  1.0000
  H   H29       1.0  0.18857  0.22203  0.11433  1.0000
  H   H30       1.0  0.19007  0.12811  0.35324  1.0000
  H   H31       1.0  0.19453  0.26860  0.05787  1.0000
  S   S17       1.0  0.04031  0.49842  0.36294  1.0000
  H   H32       1.0  0.14459  0.21231  0.05425  1.0000
  H   H33       1.0  0.15210  0.23675  0.08083  1.0000
  H   H34       1.0  0.25037  0.17466  0.31208  1.0000
  Fe  Fe10      1.0  0.14853  0.29772  0.98399  1.0000
  H   H35       1.0  0.03455  0.47403  0.44255  1.0000
  C   C28       1.0  0.19854  0.17622  0.45593  1.0000
  C   C29       1.0  0.22112  0.33032  0.42769  1.0000
  C   C30       1.0  0.18743  0.20586  0.06209  1.0000
  H   H36       1.0  0.07936  0.37538  0.34627  1.0000
  C   C31       1.0  0.04926  0.47576  0.45859  1.0000
  C   C32       1.0  0.18603  0.28700  0.44370  1.0000
  C   C33       1.0  0.22393  0.31439  0.47301  1.0000
  H   H37       1.0  0.19524  0.25557  0.10604  1.0000
  H   H38       1.0  0.21412  0.32486  0.40605  1.0000
  S   S18       1.0  0.10352  0.48907  0.36075  1.0000
  H   H39       1.0  0.21071  0.34085  0.43618  1.0000
  H   H40       1.0  0.05845  0.46023  0.40914  1.0000
  N   N4        1.0  0.11501  0.37198  0.34219  1.0000
  C   C34       1.0  0.10476  0.35406  0.31799  1.0000
  C   C35       1.0  0.10962  0.35544  0.36736  1.0000
  C   C36       1.0  0.10152  0.38834  0.34399  1.0000
  C   C37       1.0  0.14431  0.39014  0.33928  1.0000
  H   H41       1.0  0.10820  0.36591  0.29866  1.0000
  H   H42       1.0  0.08279  0.33967  0.31964  1.0000
  H   H43       1.0  0.11509  0.34192  0.31565  1.0000
  H   H44       1.0  0.11798  0.36827  0.38597  1.0000
  H   H45       1.0  0.08767  0.34190  0.37063  1.0000
  H   H46       1.0  0.11899  0.34237  0.36616  1.0000
  H   H47       1.0  0.10911  0.40240  0.36179  1.0000
  H   H48       1.0  0.10525  0.40097  0.32516  1.0000
  H   H49       1.0  0.15303  0.40348  0.35746  1.0000
  H   H50       1.0  0.14906  0.40333  0.32081  1.0000
  H   H51       1.0  0.15500  0.37848  0.33698  1.0000
  H   H52       1.0  0.13604  0.46440  0.37126  1.0000
  C   C38       1.0  0.23197  0.16694  0.32506  1.0000
  H   H53       1.0  0.17854  0.28085  0.42233  1.0000
  H   H54       1.0  0.25422  0.13477  0.32634  1.0000
  H   H55       1.0  0.21940  0.24531  0.09731  1.0000
  S   S19       1.0  0.14499  0.20540  0.99649  1.0000
  C   C39       1.0  0.22973  0.29299  0.43292  1.0000
  H   H56       1.0  0.21808  0.11443  0.32530  1.0000
  H   H57       1.0  0.04037  0.45625  0.46996  1.0000
  H   H58       1.0  0.20901  0.21194  0.05921  1.0000
  N   N5        1.0  0.21526  0.30620  0.44430  1.0000
  C   C40       1.0  0.02097  0.22098  0.99001  1.0000
  H   H59       1.0  0.25558  0.18588  0.37456  1.0000
  C   C41       1.0  0.20847  0.14120  0.36541  1.0000
  H   H60       1.0  0.17851  0.18870  0.07690  1.0000
  H   H61       1.0  0.15489  0.20123  0.45340  1.0000
  C   C42       1.0  0.23545  0.12795  0.33852  1.0000
  H   H62       1.0  0.20637  0.15817  0.37395  1.0000
  H   H63       1.0  0.24305  0.34517  0.42727  1.0000
  H   H64       1.0  0.23092  0.04483  0.99821  1.0000
  H   H65       1.0  0.17463  0.29618  0.45272  1.0000
  H   H66       1.0  0.07139  0.17029  0.47528  1.0000
  H   H67       1.0  0.22508  0.42519  0.18302  1.0000
  C   C43       1.0  0.21245  0.02610  0.99445  1.0000
  H   H68       1.0  0.22351  0.28642  0.41133  1.0000
  C   C44       1.0  0.17244  0.20231  0.98348  1.0000
  H   H69       1.0  0.09150  0.46626  0.41692  1.0000
  H   H70       1.0  0.15284  0.15955  0.99203  1.0000
  H   H71       1.0  0.18085  0.26837  0.45569  1.0000
  C   C45       1.0  0.24664  0.39450  0.19786  1.0000
  H   H72       1.0  0.23360  0.37610  0.18559  1.0000
  S   S20       1.0  0.24892  0.13000  0.98398  1.0000
  H   H73       1.0  0.10564  0.17854  0.46837  1.0000
  C   C46       1.0  0.18445  0.01657  0.47245  1.0000
  C   C47       1.0  0.01887  0.22202  0.47431  1.0000
  H   H74       1.0  0.03699  0.24152  0.47309  1.0000
  H   H75       1.0  0.25190  0.30687  0.43304  1.0000
  H   H76       1.0  0.22558  0.27473  0.44519  1.0000
  C   C48       1.0  0.25686  0.16856  0.36576  1.0000
  S   S21       1.0  0.23973  0.05275  0.47496  1.0000
  S   S22       1.0  0.23667  0.12373  0.91664  1.0000
  C   C49       1.0  0.12662  0.49141  0.81061  1.0000
  Fe  Fe11      1.0  0.23692  0.09738  0.95169  1.0000
  S   S23       1.0  0.20154  0.05372  0.95323  1.0000
  C   C50       1.0  0.23400  0.37042  0.83668  1.0000
  C   C51       1.0  0.09156  0.17737  0.48474  1.0000
  H   H77       1.0  0.23359  0.41110  0.86445  1.0000
  C   C52       1.0  0.14644  0.48850  0.79630  1.0000
  Fe  Fe12      1.0  0.23017  0.41525  0.77697  1.0000
  S   S24       1.0  0.20108  0.37184  0.76583  1.0000
  Fe  Fe13      1.0  0.18455  0.42884  0.78030  1.0000
  S   S25       1.0  0.15276  0.38649  0.76995  1.0000
  S   S26       1.0  0.17627  0.46422  0.78338  1.0000
  Fe  Fe14      1.0  0.17497  0.37367  0.79918  1.0000
  S   S27       1.0  0.15282  0.33553  0.82526  1.0000
  Fe  Fe15      1.0  0.18093  0.38732  0.73703  1.0000
  S   S28       1.0  0.16129  0.37161  0.69439  1.0000
  S   S29       1.0  0.20498  0.41598  0.81220  1.0000
  S   S30       1.0  0.21184  0.43081  0.74565  1.0000
  Fe  Fe16      1.0  0.14912  0.25066  0.50488  1.0000
  S   S31       1.0  0.16683  0.29416  0.51703  1.0000
  S   S32       1.0  0.17936  0.23537  0.50229  1.0000
  Fe  Fe17      1.0  0.09145  0.24179  0.50738  1.0000
  S   S33       1.0  0.10547  0.28492  0.52022  1.0000
  S   S34       1.0  0.04913  0.20453  0.50455  1.0000
  H   H78       1.0  0.07618  0.48399  0.72896  1.0000
  S   S35       1.0  0.16818  0.33416  0.95512  1.0000
  Fe  Fe18      1.0  0.13462  0.28118  0.54926  1.0000
  S   S36       1.0  0.14819  0.29191  0.59459  1.0000
  H   H79       1.0  0.07920  0.11810  0.51400  1.0000
  S   S37       1.0  0.11840  0.23734  0.53857  1.0000
  C   C53       1.0  0.15971  0.35076  0.66606  1.0000
  C   C54       1.0  0.17161  0.33440  0.66683  1.0000
  C   C55       1.0  0.16794  0.31676  0.64478  1.0000
  C   C56       1.0  0.15281  0.31549  0.62128  1.0000
  C   C57       1.0  0.14127  0.33216  0.62033  1.0000
  C   C58       1.0  0.14452  0.34943  0.64262  1.0000
  H   H80       1.0  0.18363  0.33525  0.68439  1.0000
  H   H81       1.0  0.17710  0.30411  0.64579  1.0000
  H   H82       1.0  0.12952  0.33148  0.60257  1.0000
  H   H83       1.0  0.13512  0.36187  0.64166  1.0000
  C   C59       1.0  0.15679  0.33543  0.86145  1.0000
  C   C60       1.0  0.14650  0.31064  0.87550  1.0000
  C   C61       1.0  0.14969  0.30984  0.90420  1.0000
  C   C62       1.0  0.16308  0.33388  0.91913  1.0000
  C   C63       1.0  0.17306  0.35863  0.90511  1.0000
  C   C64       1.0  0.16998  0.35944  0.87643  1.0000
  H   H84       1.0  0.13636  0.29194  0.86409  1.0000
  H   H85       1.0  0.14222  0.29066  0.91468  1.0000
  H   H86       1.0  0.18328  0.37733  0.91653  1.0000
  H   H87       1.0  0.17766  0.37865  0.86597  1.0000
  C   C65       1.0  0.11076  0.47236  0.83048  1.0000
  H   H88       1.0  0.01121  0.44364  0.78590  1.0000
  C   C66       1.0  0.21706  0.22092  0.96319  1.0000
  C   C67       1.0  0.15031  0.46628  0.80128  1.0000
  C   C68       1.0  0.13398  0.44691  0.82068  1.0000
  C   C69       1.0  0.11441  0.45002  0.83526  1.0000
  H   H89       1.0  0.05571  0.25373  0.91411  1.0000
  H   H90       1.0  0.09408  0.13173  0.48112  1.0000
  H   H91       1.0  0.13676  0.42977  0.82479  1.0000
  H   H92       1.0  0.10218  0.43511  0.85051  1.0000
  C   C70       1.0  0.19583  0.22442  0.97316  1.0000
  H   H93       1.0  0.25495  0.14210  0.71076  1.0000
  H   H94       1.0  0.15889  0.50348  0.78119  1.0000
  C   C71       1.0  0.25367  0.41411  0.85847  1.0000
  H   H95       1.0  0.09857  0.19821  0.49206  1.0000
  H   H96       1.0  0.06000  0.12363  0.48798  1.0000
  H   H97       1.0  0.13198  0.17044  0.50428  1.0000
  C   C72       1.0  0.20738  0.20859  0.49257  1.0000
  H   H98       1.0  0.19745  0.24415  0.97251  1.0000
  H   H99       1.0  0.21870  0.29651  0.48643  1.0000
  H   H100      1.0  0.10070  0.31291  0.90380  1.0000
  H   H101      1.0  0.21917  0.21949  0.51031  1.0000
  H   H102      1.0  0.25444  0.17283  0.71762  1.0000
  H   H103      1.0  0.09065  0.26879  0.92354  1.0000
  C   C73       1.0  0.02130  0.20060  0.97437  1.0000
  H   H104      1.0  0.04450  0.48230  0.72218  1.0000
  H   H105      1.0  0.06550  0.50296  0.74969  1.0000
  N   N6        1.0  0.11978  0.29846  0.73849  1.0000
  C   C74       1.0  0.11237  0.31816  0.74909  1.0000
  C   C75       1.0  0.11083  0.29196  0.70959  1.0000
  C   C76       1.0  0.10674  0.27362  0.75540  1.0000
  C   C77       1.0  0.14930  0.31025  0.73999  1.0000
  H   H106      1.0  0.11938  0.32402  0.77069  1.0000
  H   H107      1.0  0.09023  0.30992  0.74866  1.0000
  H   H108      1.0  0.12163  0.33700  0.73645  1.0000
  H   H109      1.0  0.11718  0.27815  0.70037  1.0000
  H   H110      1.0  0.08858  0.28229  0.70772  1.0000
  H   H111      1.0  0.11959  0.31053  0.69660  1.0000
  H   H112      1.0  0.11207  0.25840  0.74804  1.0000
  H   H113      1.0  0.08442  0.26415  0.75483  1.0000
  H   H114      1.0  0.11314  0.27805  0.77734  1.0000
  H   H115      1.0  0.15585  0.29636  0.73144  1.0000
  H   H116      1.0  0.15662  0.31490  0.76162  1.0000
  H   H117      1.0  0.15978  0.32943  0.72807  1.0000
  S   S38       1.0  0.08602  0.47538  0.84971  1.0000
  S   S39       1.0  0.24708  0.12629  0.48644  1.0000
  C   C78       1.0  0.05838  0.48339  0.73889  1.0000
  C   C79       1.0  0.21357  0.19059  0.47883  1.0000
  H   H118      1.0  0.05106  0.15207  0.52034  1.0000
  H   H119      1.0  0.02871  0.47970  0.78328  1.0000
  N   N7        1.0  0.07161  0.29158  0.93553  1.0000
  C   C80       1.0  0.20986  0.02138  0.48082  1.0000
  Fe  Fe19      1.0  0.25105  0.15680  0.94856  1.0000
  C   C81       1.0  0.04459  0.28634  0.94384  1.0000
  H   H120      1.0  0.23491  0.23808  0.95492  1.0000
  C   C82       1.0  0.11743  0.17006  0.51966  1.0000
  S   S40       1.0  0.11778  0.25557  0.97142  1.0000
  C   C83       1.0  0.02195  0.46080  0.77133  1.0000
  H   H121      1.0  0.06622  0.29783  0.89287  1.0000
  H   H122      1.0  0.05473  0.44523  0.79450  1.0000
  H   H123      1.0  0.21336  0.36660  0.84123  1.0000
  H   H124      1.0  0.03772  0.27387  0.96295  1.0000
  H   H125      1.0  0.04451  0.30546  0.94810  1.0000
  H   H126      1.0  0.07843  0.17977  0.53723  1.0000
  H   H127      1.0  0.22558  0.37061  0.89091  1.0000
  H   H128      1.0  0.08092  0.32797  0.91346  1.0000
  S   S41       1.0  0.03094  0.49503  0.86014  1.0000
  Fe  Fe20      1.0  0.13721  0.29524  0.48729  1.0000
  H   H129      1.0  0.11721  0.15752  0.53735  1.0000
  H   H130      1.0  0.22998  0.18783  0.48601  1.0000
  H   H131      1.0  0.09757  0.50072  0.48332  1.0000
  H   H132      1.0  0.06495  0.25282  0.94914  1.0000
  H   H133      1.0  0.09305  0.32620  0.96180  1.0000
  N   N8        1.0  0.04488  0.46025  0.75804  1.0000
  H   H134      1.0  0.08173  0.46140  0.77017  1.0000
  C   C84       1.0  0.19212  0.17336  0.97429  1.0000
  C   C85       1.0  0.08017  0.30828  0.91027  1.0000
  H   H135      1.0  0.02027  0.43281  0.72642  1.0000
  H   H136      1.0  0.07229  0.48117  0.79112  1.0000
  H   H137      1.0  0.05179  0.43378  0.73223  1.0000
  H   H138      1.0  0.11141  0.30941  0.95276  1.0000
  H   H139      1.0  0.23306  0.35048  0.83566  1.0000
  C   C86       1.0  0.21536  0.19538  0.96358  1.0000
  C   C87       1.0  0.01935  0.20080  0.48840  1.0000
  S   S42       1.0  0.24265  0.19226  0.95011  1.0000
  H   H140      1.0  0.12583  0.19113  0.52722  1.0000
  C   C88       1.0  0.03497  0.43478  0.74261  1.0000
  C   C89       1.0  0.09104  0.30608  0.95781  1.0000
  C   C90       1.0  0.19482  0.02512  0.97389  1.0000
  C   C91       1.0  0.07070  0.26561  0.93028  1.0000
  H   H141      1.0  0.02477  0.41690  0.75644  1.0000
  C   C92       1.0  0.18609  0.21249  0.48372  1.0000
  N   N9        1.0  0.09027  0.15967  0.50766  1.0000
  H   H142      1.0  0.02927  0.27514  0.92769  1.0000
  C   C93       1.0  0.06422  0.46205  0.77930  1.0000
  C   C94       1.0  0.07160  0.15921  0.52890  1.0000
  C   C95       1.0  0.08043  0.13202  0.49723  1.0000
  H   H143      1.0  0.06983  0.14593  0.54651  1.0000
  H   H144      1.0  0.03975  0.19983  0.97254  1.0000
  H   H145      1.0  0.23939  0.37964  0.81580  1.0000
  C   C96       1.0  0.24606  0.37490  0.88476  1.0000
  H   H146      1.0  0.24583  0.35526  0.88482  1.0000
  H   H147      1.0  0.21403  0.32524  0.48189  1.0000
  H   H148      1.0  0.19044  0.15359  0.97468  1.0000
  N   N10       1.0  0.25363  0.38817  0.85751  1.0000
  H   H149      1.0  0.08703  0.46550  0.47940  1.0000
  H   H150      1.0  0.08474  0.29449  0.97741  1.0000
  Fe  Fe21      1.0  0.12526  0.85520  0.06070  1.0000
  S   S43       1.0  0.10918  0.88344  0.05183  1.0000
  S   S44       1.0  0.12507  0.84455  0.10683  1.0000
  H   H151      1.0  0.11377  0.82763  0.16340  1.0000
  H   H152      1.0  0.23843  0.94135  0.45909  1.0000
  Fe  Fe22      1.0  0.03912  0.52314  0.32697  1.0000
  Fe  Fe23      1.0  0.14326  0.90500  0.02198  1.0000
  S   S45       1.0  0.17538  0.94963  0.02628  1.0000
  Fe  Fe24      1.0  0.08559  0.85586  0.01681  1.0000
  S   S46       1.0  0.04128  0.84552  0.01511  1.0000
  S   S47       1.0  0.16043  0.87803  0.03239  1.0000
  S   S48       1.0  0.09955  0.82619  0.02734  1.0000
  Fe  Fe25      1.0  0.22848  0.81590  0.29271  1.0000
  S   S49       1.0  0.21796  0.84776  0.28095  1.0000
  Fe  Fe26      1.0  0.16897  0.77031  0.29097  1.0000
  S   S50       1.0  0.15518  0.79968  0.27800  1.0000
  S   S51       1.0  0.13382  0.72741  0.29888  1.0000
  Fe  Fe27      1.0  0.19040  0.81842  0.24883  1.0000
  S   S52       1.0  0.19662  0.83342  0.20356  1.0000
  Fe  Fe28      1.0  0.18359  0.82650  0.31085  1.0000
  S   S53       1.0  0.16817  0.84778  0.33896  1.0000
  S   S54       1.0  0.20221  0.78705  0.25953  1.0000
  S   S55       1.0  0.19593  0.79661  0.32503  1.0000
  H   H153      1.0  0.08970  0.52555  0.44589  1.0000
  S   S56       1.0  0.08167  0.53701  0.31370  1.0000
  H   H154      1.0  0.07243  0.59527  0.20984  1.0000
  Fe  Fe29      1.0  0.05376  0.53593  0.38821  1.0000
  S   S57       1.0  0.09767  0.55182  0.37832  1.0000
  H   H155      1.0  0.04370  0.91911  0.47133  1.0000
  Fe  Fe30      1.0  0.09211  0.57257  0.34155  1.0000
  S   S58       1.0  0.12620  0.61436  0.32866  1.0000
  H   H156      1.0  0.16623  0.88990  0.45745  1.0000
  S   S59       1.0  0.04938  0.55975  0.35306  1.0000
  H   H157      1.0  0.18802  0.96879  0.12755  1.0000
  C   C97       1.0  0.16150  0.99105  0.47705  1.0000
  H   H158      1.0  0.14198  0.98753  0.47033  1.0000
  H   H159      1.0  0.09321  0.76339  0.39571  1.0000
  H   H160      1.0  0.11274  0.75225  0.41521  1.0000
  H   H161      1.0  0.12852  0.78553  0.40060  1.0000
  H   H162      1.0  0.21272  0.90996  0.47347  1.0000
  H   H163      1.0  0.12310  0.76311  0.32818  1.0000
  C   C98       1.0  0.13253  0.69665  0.30874  1.0000
  C   C99       1.0  0.15544  0.69382  0.30950  1.0000
  C   C100      1.0  0.15315  0.66867  0.31638  1.0000
  C   C101      1.0  0.12807  0.64615  0.32300  1.0000
  C   C102      1.0  0.10521  0.64915  0.32284  1.0000
  C   C103      1.0  0.10744  0.67418  0.31551  1.0000
  H   H164      1.0  0.17487  0.71083  0.30428  1.0000
  H   H165      1.0  0.17096  0.66658  0.31629  1.0000
  H   H166      1.0  0.08578  0.63209  0.32791  1.0000
  H   H167      1.0  0.08954  0.67607  0.31488  1.0000
  C   C104      1.0  0.01305  0.82090  0.99625  1.0000
  H   H168      1.0  0.19181  0.90623  0.40067  1.0000
  H   H169      1.0  0.08137  0.55950  0.24962  1.0000
  C   C105      1.0  0.18204  0.97836  0.00590  1.0000
  H   H170      1.0  0.20206  0.89102  0.42691  1.0000
  H   H171      1.0  0.13596  0.79184  0.35013  1.0000
  S   S60       1.0  0.04445  0.53820  0.43418  1.0000
  C   C106      1.0  0.21670  0.92966  0.46449  1.0000
  C   C107      1.0  0.20519  0.91070  0.41891  1.0000
  C   C108      1.0  0.16001  0.83774  0.43290  1.0000
  C   C109      1.0  0.17736  0.83123  0.41862  1.0000
  C   C110      1.0  0.17979  0.83383  0.38982  1.0000
  C   C111      1.0  0.16499  0.84315  0.37503  1.0000
  C   C112      1.0  0.14743  0.84940  0.38927  1.0000
  C   C113      1.0  0.14475  0.84648  0.41804  1.0000
  H   H172      1.0  0.18928  0.82448  0.42996  1.0000
  H   H173      1.0  0.19358  0.82922  0.37912  1.0000
  H   H174      1.0  0.13576  0.85645  0.37793  1.0000
  H   H175      1.0  0.13094  0.85107  0.42870  1.0000
  C   C114      1.0  0.14524  0.84087  0.13307  1.0000
  C   C115      1.0  0.17190  0.84703  0.12868  1.0000
  C   C116      1.0  0.18715  0.84461  0.15042  1.0000
  C   C117      1.0  0.17608  0.83587  0.17690  1.0000
  C   C118      1.0  0.14947  0.82981  0.18127  1.0000
  C   C119      1.0  0.13429  0.83240  0.15959  1.0000
  H   H176      1.0  0.18074  0.85347  0.10851  1.0000
  H   H177      1.0  0.20763  0.84932  0.14661  1.0000
  H   H178      1.0  0.14053  0.82312  0.20138  1.0000
  H   H179      1.0  0.10033  0.77102  0.34560  1.0000
  N   N11       1.0  0.08005  0.59640  0.25333  1.0000
  C   C120      1.0  0.06148  0.59016  0.22979  1.0000
  C   C121      1.0  0.09928  0.62576  0.25397  1.0000
  C   C122      1.0  0.09514  0.58170  0.25048  1.0000
  C   C123      1.0  0.06437  0.58799  0.27915  1.0000
  H   H180      1.0  0.19232  0.94956  0.41076  1.0000
  H   H181      1.0  0.05042  0.60160  0.23097  1.0000
  H   H182      1.0  0.23854  0.81846  0.21106  1.0000
  H   H183      1.0  0.11476  0.63087  0.27023  1.0000
  H   H184      1.0  0.11026  0.63308  0.23416  1.0000
  H   H185      1.0  0.08901  0.63762  0.25821  1.0000
  H   H186      1.0  0.10903  0.58575  0.26826  1.0000
  H   H187      1.0  0.10755  0.58778  0.23145  1.0000
  H   H188      1.0  0.04613  0.56833  0.22919  1.0000
  S   S61       1.0  0.11880  0.87995  0.98595  1.0000
  C   C124      1.0  0.17089  0.90974  0.44848  1.0000
  H   H189      1.0  0.05286  0.59879  0.28221  1.0000
  N   N12       1.0  0.17622  0.92870  0.11356  1.0000
  C   C125      1.0  0.14892  0.92293  0.10561  1.0000
  C   C126      1.0  0.17536  0.91792  0.14147  1.0000
  C   C127      1.0  0.19469  0.95822  0.11307  1.0000
  C   C128      1.0  0.18580  0.91567  0.09388  1.0000
  H   H190      1.0  0.14107  0.93261  0.11983  1.0000
  H   H191      1.0  0.13440  0.90080  0.10599  1.0000
  H   H192      1.0  0.14876  0.93049  0.08446  1.0000
  H   H193      1.0  0.16114  0.89572  0.14238  1.0000
  H   H194      1.0  0.19544  0.92125  0.14799  1.0000
  H   H195      1.0  0.16847  0.92747  0.15695  1.0000
  H   H196      1.0  0.19558  0.96672  0.09212  1.0000
  H   H197      1.0  0.21552  0.96335  0.11886  1.0000
  H   H198      1.0  0.20614  0.91915  0.09944  1.0000
  H   H199      1.0  0.18693  0.92354  0.07264  1.0000
  H   H200      1.0  0.17206  0.89344  0.09328  1.0000
  Fe  Fe31      1.0  0.13386  0.85161  0.99830  1.0000
  H   H201      1.0  0.22639  0.96473  0.42311  1.0000
  C   C129      1.0  0.02573  0.51310  0.24691  1.0000
  S   S62       1.0  0.15886  0.83550  0.46922  1.0000
  H   H202      1.0  0.22636  0.92236  0.41160  1.0000
  C   C130      1.0  0.20492  0.95202  0.42919  1.0000
  H   H203      1.0  0.10121  0.71723  0.34777  1.0000
  C   C131      1.0  0.20606  0.00287  0.01036  1.0000
  C   C132      1.0  0.02519  0.51366  0.21793  1.0000
  H   H204      1.0  0.15715  0.90571  0.43069  1.0000
  H   H205      1.0  0.21984  0.00399  0.02624  1.0000
  H   H206      1.0  0.20043  0.96360  0.44466  1.0000
  H   H207      1.0  0.07774  0.59230  0.29730  1.0000
  H   H208      1.0  0.07727  0.72395  0.36450  1.0000
  H   H209      1.0  0.14568  0.95884  0.98190  1.0000
  H   H210      1.0  0.04966  0.56591  0.27937  1.0000
  N   N13       1.0  0.19944  0.92556  0.44024  1.0000
  N   N14       1.0  0.11869  0.75378  0.37141  1.0000
  C   C133      1.0  0.14496  0.75484  0.37405  1.0000
  C   C134      1.0  0.09735  0.72553  0.36683  1.0000
  C   C135      1.0  0.11949  0.77063  0.34785  1.0000
  C   C136      1.0  0.11299  0.76412  0.39686  1.0000
  H   H211      1.0  0.16156  0.77587  0.37750  1.0000
  H   H212      1.0  0.14990  0.74723  0.35513  1.0000
  H   H213      1.0  0.14509  0.74227  0.39155  1.0000
  H   H214      1.0  0.09623  0.71218  0.38414  1.0000
  H   H215      1.0  0.25041  0.86336  0.22897  1.0000
  H   H216      1.0  0.04278  0.51709  0.20641  1.0000
  H   H217      1.0  0.04342  0.51562  0.25761  1.0000
  C   C137      1.0  0.02050  0.51869  0.46033  1.0000
  Fe  Fe32      1.0  0.08401  0.51515  0.35156  1.0000
  H   H218      1.0  0.10579  0.51455  0.42125  1.0000
  H   H219      1.0  0.16580  0.92054  0.46428  1.0000
  H   H220      1.0  0.04815  0.87787  0.46381  1.0000
  H   H221      1.0  0.01629  0.55162  0.97985  1.0000
  C   C138      1.0  0.08638  0.50887  0.43172  1.0000
  C   C139      1.0  0.16444  0.97733  0.98530  1.0000
  H   H222      1.0  0.03611  0.81844  0.47068  1.0000
  H   H223      1.0  0.07208  0.50791  0.41568  1.0000
  H   H224      1.0  0.18510  0.92150  0.98164  1.0000
  H   H225      1.0  0.25824  0.81435  0.23746  1.0000
  Fe  Fe33      1.0  0.13848  0.86586  0.55875  1.0000
  S   S63       1.0  0.10828  0.87955  0.55003  1.0000
  S   S64       1.0  0.15856  0.87365  0.60162  1.0000
  H   H226      1.0  0.18146  0.88836  0.65587  1.0000
  C   C140      1.0  0.01813  0.87675  0.50592  1.0000
  H   H227      1.0  0.13629  0.55941  0.82580  1.0000
  Fe  Fe34      1.0  0.13174  0.89944  0.51170  1.0000
  Fe  Fe35      1.0  0.03335  0.52223  0.82528  1.0000
  Fe  Fe36      1.0  0.08576  0.84207  0.52429  1.0000
  S   S65       1.0  0.04000  0.81870  0.53103  1.0000
  S   S66       1.0  0.16379  0.88889  0.52186  1.0000
  S   S67       1.0  0.11450  0.82695  0.53543  1.0000
  Fe  Fe37      1.0  0.22516  0.81794  0.78550  1.0000
  S   S68       1.0  0.20555  0.84274  0.77441  1.0000
  Fe  Fe38      1.0  0.17053  0.76651  0.79702  1.0000
  S   S69       1.0  0.14827  0.78858  0.78577  1.0000
  S   S70       1.0  0.13935  0.72359  0.81116  1.0000
  Fe  Fe39      1.0  0.17615  0.80671  0.74970  1.0000
  S   S71       1.0  0.16090  0.80347  0.70499  1.0000
  Fe  Fe40      1.0  0.17915  0.82263  0.81135  1.0000
  S   S72       1.0  0.16300  0.84355  0.83927  1.0000
  S   S73       1.0  0.19657  0.78237  0.75926  1.0000
  S   S74       1.0  0.20063  0.80024  0.82429  1.0000
  H   H228      1.0  0.17926  0.58997  0.88775  1.0000
  S   S75       1.0  0.07517  0.53252  0.81272  1.0000
  H   H229      1.0  0.16615  0.58793  0.81309  1.0000
  Fe  Fe41      1.0  0.04708  0.53179  0.88706  1.0000
  S   S76       1.0  0.09029  0.54302  0.87905  1.0000
  H   H230      1.0  0.22199  0.79124  0.66368  1.0000
  Fe  Fe42      1.0  0.08900  0.56719  0.84269  1.0000
  S   S77       1.0  0.12721  0.60697  0.83262  1.0000
  H   H231      1.0  0.03754  0.52321  0.70733  1.0000
  S   S78       1.0  0.04712  0.55863  0.85252  1.0000
  H   H232      1.0  0.20390  0.56571  0.82976  1.0000
  C   C141      1.0  0.23291  0.84302  0.70599  1.0000
  H   H233      1.0  0.21294  0.94085  0.48097  1.0000
  C   C142      1.0  0.18901  0.97504  0.49884  1.0000
  H   H234      1.0  0.21060  0.59980  0.83418  1.0000
  C   C143      1.0  0.21676  0.80353  0.67735  1.0000
  C   C144      1.0  0.21198  0.00044  0.49399  1.0000
  Fe  Fe43      1.0  0.07404  0.50807  0.84952  1.0000
  C   C145      1.0  0.13672  0.69138  0.81647  1.0000
  C   C146      1.0  0.15869  0.68709  0.81403  1.0000
  C   C147      1.0  0.15541  0.66116  0.81901  1.0000
  C   C148      1.0  0.13018  0.63920  0.82636  1.0000
  C   C149      1.0  0.10822  0.64351  0.82875  1.0000
  C   C150      1.0  0.11153  0.66942  0.82391  1.0000
  H   H235      1.0  0.17819  0.70373  0.80838  1.0000
  H   H236      1.0  0.17256  0.65814  0.81708  1.0000
  H   H237      1.0  0.08870  0.62689  0.83435  1.0000
  H   H238      1.0  0.09436  0.67243  0.82576  1.0000
  H   H239      1.0  0.15698  0.99961  0.95368  1.0000
  C   C151      1.0  0.01890  0.51367  0.71882  1.0000
  C   C152      1.0  0.16365  0.97014  0.49019  1.0000
  H   H240      1.0  0.16089  0.55444  0.80772  1.0000
  C   C153      1.0  0.21204  0.95979  0.94368  1.0000
  H   H241      1.0  0.14744  0.58092  0.87213  1.0000
  H   H242      1.0  0.15335  0.77287  0.88767  1.0000
  H   H243      1.0  0.15121  0.78986  0.85731  1.0000
  H   H244      1.0  0.11257  0.72753  0.89961  1.0000
  C   C154      1.0  0.15668  0.83862  0.93363  1.0000
  C   C155      1.0  0.17399  0.83167  0.91998  1.0000
  C   C156      1.0  0.17669  0.83375  0.89119  1.0000
  C   C157      1.0  0.16175  0.84243  0.87568  1.0000
  C   C158      1.0  0.14474  0.84981  0.88937  1.0000
  C   C159      1.0  0.14212  0.84784  0.91822  1.0000
  H   H245      1.0  0.18544  0.82467  0.93177  1.0000
  H   H246      1.0  0.19027  0.82854  0.88098  1.0000
  H   H247      1.0  0.13310  0.85654  0.87752  1.0000
  H   H248      1.0  0.12848  0.85294  0.92848  1.0000
  C   C160      1.0  0.15841  0.85355  0.63025  1.0000
  C   C161      1.0  0.14591  0.82532  0.62927  1.0000
  C   C162      1.0  0.14683  0.81051  0.65232  1.0000
  C   C163      1.0  0.16002  0.82352  0.67684  1.0000
  C   C164      1.0  0.17248  0.85175  0.67786  1.0000
  C   C165      1.0  0.17177  0.86658  0.65472  1.0000
  H   H249      1.0  0.13558  0.81488  0.61073  1.0000
  H   H250      1.0  0.13707  0.78872  0.65115  1.0000
  H   H251      1.0  0.18253  0.86219  0.69649  1.0000
  C   C166      1.0  0.17085  0.00055  0.96939  1.0000
  N   N15       1.0  0.17199  0.56923  0.84904  1.0000
  C   C167      1.0  0.20089  0.57936  0.84384  1.0000
  C   C168      1.0  0.16899  0.58795  0.86774  1.0000
  C   C169      1.0  0.15987  0.54208  0.86177  1.0000
  C   C170      1.0  0.15827  0.56761  0.82272  1.0000
  H   H252      1.0  0.21190  0.58085  0.86326  1.0000
  H   H253      1.0  0.05614  0.86346  0.49271  1.0000
  H   H254      1.0  0.10846  0.71659  0.86448  1.0000
  C   C171      1.0  0.16616  0.92669  0.93264  1.0000
  H   H255      1.0  0.19087  0.95936  0.50953  1.0000
  H   H256      1.0  0.16893  0.54269  0.88222  1.0000
  H   H257      1.0  0.21204  0.91729  0.96843  1.0000
  H   H258      1.0  0.10667  0.74546  0.82741  1.0000
  H   H259      1.0  0.04217  0.54821  0.49177  1.0000
  H   H260      1.0  0.05290  0.90814  0.54513  1.0000
  Fe  Fe44      1.0  0.13796  0.85069  0.49808  1.0000
  H   H261      1.0  0.20396  0.79011  0.69428  1.0000
  H   H262      1.0  0.22121  0.85064  0.69437  1.0000
  S   S79       1.0  0.10754  0.86265  0.48537  1.0000
  H   H263      1.0  0.08435  0.76111  0.89339  1.0000
  C   C172      1.0  0.14321  0.76983  0.86739  1.0000
  H   H264      1.0  0.14955  0.75794  0.85453  1.0000
  C   C173      1.0  0.10650  0.77099  0.89036  1.0000
  H   H265      1.0  0.18928  0.89977  0.91080  1.0000
  C   C174      1.0  0.20283  0.92165  0.91497  1.0000
  H   H266      1.0  0.17740  0.60851  0.85851  1.0000
  H   H267      1.0  0.08274  0.91198  0.52879  1.0000
  H   H268      1.0  0.01353  0.85691  0.51492  1.0000
  C   C175      1.0  0.02477  0.52876  0.48740  1.0000
  C   C176      1.0  0.19203  0.91499  0.96334  1.0000
  H   H269      1.0  0.15156  0.90508  0.92836  1.0000
  N   N16       1.0  0.19328  0.93079  0.93864  1.0000
  H   H270      1.0  0.03556  0.81085  0.96803  1.0000
  C   C177      1.0  0.10346  0.72816  0.87956  1.0000
  H   H271      1.0  0.08121  0.71725  0.88203  1.0000
  H   H272      1.0  0.22330  0.92456  0.91872  1.0000
  H   H273      1.0  0.11356  0.79210  0.88344  1.0000
  H   H274      1.0  0.11593  0.77222  0.91078  1.0000
  H   H275      1.0  0.16281  0.52774  0.84875  1.0000
  H   H276      1.0  0.20389  0.80955  0.66541  1.0000
  C   C178      1.0  0.06048  0.89872  0.53026  1.0000
  H   H277      1.0  0.20367  0.93288  0.89586  1.0000
  N   N17       1.0  0.11364  0.75627  0.87016  1.0000
  H   H278      1.0  0.07921  0.74607  0.84445  1.0000
  H   H279      1.0  0.03850  0.52843  0.75811  1.0000
  H   H280      1.0  0.21316  0.97244  0.92567  1.0000
  H   H281      1.0  0.16637  0.93872  0.91445  1.0000
  H   H282      1.0  0.21976  0.83024  0.72289  1.0000
  H   H283      1.0  0.23276  0.96372  0.94815  1.0000
  H   H284      1.0  0.01073  0.52201  0.52964  1.0000
  H   H285      1.0  0.04506  0.93122  0.50573  1.0000
  C   C179      1.0  0.10152  0.75622  0.84324  1.0000
  H   H286      1.0  0.12365  0.50836  0.80635  1.0000
  C   C180      1.0  0.01951  0.51661  0.74761  1.0000
  H   H287      1.0  0.10896  0.77718  0.83548  1.0000
  N   N18       1.0  0.04749  0.89485  0.50306  1.0000
  C   C181      1.0  0.05850  0.88260  0.48411  1.0000
  H   H288      1.0  0.13777  0.53320  0.86483  1.0000
  S   S80       1.0  0.03047  0.53681  0.92860  1.0000
  C   C182      1.0  0.01254  0.80792  0.50773  1.0000
  S   S81       1.0  0.13418  0.93822  0.49501  1.0000
  H   H289      1.0  0.17781  0.89304  0.96040  1.0000
  C   C183      1.0  0.01577  0.80711  0.97387  1.0000
  H   H290      1.0  0.05655  0.87906  0.53928  1.0000
  H   H291      1.0  0.15820  0.93292  0.95032  1.0000
  H   H292      1.0  0.07513  0.93530  0.48971  1.0000
  N   N19       1.0  0.24105  0.82738  0.68821  1.0000
  H   H293      1.0  0.24546  0.80561  0.72223  1.0000
  C   C184      1.0  0.25714  0.81844  0.70447  1.0000
  S   S82       1.0  0.15370  0.83501  0.96981  1.0000
  H   H294      1.0  0.08037  0.89629  0.48043  1.0000
  H   H295      1.0  0.00899  0.88556  0.51964  1.0000
  C   C185      1.0  0.05303  0.92130  0.49196  1.0000
  H   H296      1.0  0.25058  0.86054  0.71564  1.0000
  H   H297      1.0  0.23151  0.00397  0.50070  1.0000
  H   H298      1.0  0.24560  0.85158  0.65252  1.0000
  C   C186      1.0  0.01206  0.51695  0.95786  1.0000
  C   C187      1.0  0.01617  0.81059  0.47924  1.0000
  H   H299      1.0  0.20555  0.96724  0.96158  1.0000
  C   C188      1.0  0.25733  0.84460  0.66512  1.0000
  H   H300      1.0  0.48017  0.40117  0.98613  1.0000
  H   H301      1.0  0.49219  0.03782  0.46867  1.0000
  S   S83       1.0  0.48480  0.04129  0.10174  1.0000
  H   H302      1.0  0.40251  0.15337  0.13985  1.0000
  H   H303      1.0  0.47275  0.44091  0.04205  1.0000
  H   H304      1.0  0.47041  0.30153  0.26895  1.0000
  C   C189      1.0  0.45387  0.29396  0.25356  1.0000
  S   S84       1.0  0.49381  0.45323  0.10100  1.0000
  Fe  Fe45      1.0  0.28020  0.13626  0.41271  1.0000
  S   S85       1.0  0.29340  0.13386  0.36829  1.0000
  Fe  Fe46      1.0  0.50622  0.08615  0.11028  1.0000
  S   S86       1.0  0.32970  0.15603  0.99847  1.0000
  S   S87       1.0  0.29216  0.12036  0.44939  1.0000
  S   S88       1.0  0.28193  0.17081  0.43691  1.0000
  Fe  Fe47      1.0  0.41566  0.18667  0.18430  1.0000
  S   S89       1.0  0.37112  0.16539  0.19320  1.0000
  S   S90       1.0  0.43513  0.15993  0.18759  1.0000
  Fe  Fe48      1.0  0.41877  0.24235  0.17984  1.0000
  S   S91       1.0  0.37419  0.22368  0.18714  1.0000
  S   S92       1.0  0.44412  0.28851  0.18402  1.0000
  Fe  Fe49      1.0  0.37899  0.19970  0.22158  1.0000
  S   S93       1.0  0.36453  0.20401  0.26485  1.0000
  Fe  Fe50      1.0  0.36998  0.19098  0.15829  1.0000
  S   S94       1.0  0.33437  0.16929  0.12900  1.0000
  S   S95       1.0  0.42383  0.21932  0.21513  1.0000
  S   S96       1.0  0.41432  0.21120  0.14831  1.0000
  S   S97       1.0  0.28304  0.43821  0.27049  1.0000
  C   C190      1.0  0.31387  0.15392  0.34009  1.0000
  C   C191      1.0  0.31508  0.14083  0.31604  1.0000
  C   C192      1.0  0.33048  0.15562  0.29297  1.0000
  C   C193      1.0  0.34485  0.18390  0.29343  1.0000
  C   C194      1.0  0.34349  0.19701  0.31743  1.0000
  C   C195      1.0  0.32828  0.18221  0.34059  1.0000
  H   H305      1.0  0.30413  0.11899  0.31527  1.0000
  H   H306      1.0  0.33121  0.14510  0.27482  1.0000
  H   H307      1.0  0.35442  0.21883  0.31820  1.0000
  H   H308      1.0  0.32781  0.19272  0.35884  1.0000
  C   C196      1.0  0.33072  0.16073  0.03462  1.0000
  C   C197      1.0  0.35580  0.17444  0.04805  1.0000
  C   C198      1.0  0.35739  0.17803  0.07682  1.0000
  C   C199      1.0  0.33382  0.16741  0.09253  1.0000
  C   C200      1.0  0.30880  0.15364  0.07909  1.0000
  C   C201      1.0  0.30721  0.15048  0.05030  1.0000
  H   H309      1.0  0.37410  0.18254  0.03609  1.0000
  H   H310      1.0  0.37680  0.18899  0.08676  1.0000
  H   H311      1.0  0.29045  0.14533  0.09101  1.0000
  H   H312      1.0  0.28778  0.13985  0.04028  1.0000
  C   C202      1.0  0.48667  0.36301  0.12655  1.0000
  C   C203      1.0  0.48415  0.36595  0.15474  1.0000
  C   C204      1.0  0.47092  0.34291  0.17183  1.0000
  C   C205      1.0  0.45974  0.31663  0.16101  1.0000
  C   C206      1.0  0.46191  0.31367  0.13274  1.0000
  H   H313      1.0  0.49040  0.47352  0.41028  1.0000
  C   C207      1.0  0.35342  0.11100  0.09620  1.0000
  H   H314      1.0  0.45660  0.47691  0.44774  1.0000
  H   H315      1.0  0.45354  0.29365  0.12408  1.0000
  C   C208      1.0  0.48081  0.00889  0.00229  1.0000
  C   C209      1.0  0.50768  0.01532  0.00551  1.0000
  C   C210      1.0  0.33114  0.48483  0.33388  1.0000
  C   C211      1.0  0.30824  0.46857  0.31756  1.0000
  C   C212      1.0  0.31096  0.45778  0.29277  1.0000
  C   C213      1.0  0.33689  0.46335  0.28476  1.0000
  C   C214      1.0  0.35973  0.47928  0.30128  1.0000
  H   H316      1.0  0.36556  0.11751  0.07698  1.0000
  H   H317      1.0  0.28855  0.46467  0.32401  1.0000
  H   H318      1.0  0.33934  0.45517  0.26566  1.0000
  C   C215      1.0  0.27649  0.44271  0.19769  1.0000
  S   S98       1.0  0.49208  0.49595  0.16625  1.0000
  C   C216      1.0  0.38938  0.14738  0.12133  1.0000
  H   H319      1.0  0.43828  0.26719  0.30160  1.0000
  S   S99       1.0  0.44427  0.49319  0.35971  1.0000
  H   H320      1.0  0.34102  0.12115  0.09647  1.0000
  C   C217      1.0  0.47542  0.33673  0.11569  1.0000
  H   H321      1.0  0.45799  0.31090  0.23924  1.0000
  H   H322      1.0  0.47818  0.49573  0.02753  1.0000
  H   H323      1.0  0.29180  0.41282  0.16825  1.0000
  C   C218      1.0  0.42638  0.30471  0.28267  1.0000
  C   C219      1.0  0.47466  0.12744  0.12732  1.0000
  C   C220      1.0  0.46838  0.11766  0.15427  1.0000
  C   C221      1.0  0.45637  0.12793  0.17232  1.0000
  C   C222      1.0  0.45034  0.14796  0.16372  1.0000
  C   C223      1.0  0.45652  0.15768  0.13672  1.0000
  C   C224      1.0  0.46859  0.14745  0.11867  1.0000
  H   H324      1.0  0.44211  0.31272  0.29898  1.0000
  H   H325      1.0  0.45166  0.12022  0.19314  1.0000
  H   H326      1.0  0.45244  0.17337  0.12986  1.0000
  H   H327      1.0  0.50375  0.46324  0.20506  1.0000
  H   H328      1.0  0.40264  0.15436  0.10292  1.0000
  H   H329      1.0  0.47373  0.37267  0.00736  1.0000
  H   H330      1.0  0.33930  0.08889  0.09487  1.0000
  H   H331      1.0  0.37813  0.15863  0.12187  1.0000
  H   H332      1.0  0.47279  0.10221  0.16125  1.0000
  H   H333      1.0  0.26465  0.44559  0.21414  1.0000
  C   C225      1.0  0.49542  0.47307  0.24548  1.0000
  C   C226      1.0  0.38650  0.10378  0.12023  1.0000
  C   C227      1.0  0.48632  0.49923  0.00693  1.0000
  H   H334      1.0  0.28547  0.43400  0.14546  1.0000
  C   C228      1.0  0.35702  0.49023  0.32596  1.0000
  H   H335      1.0  0.45427  0.50425  0.98930  1.0000
  H   H336      1.0  0.47896  0.44024  0.00619  1.0000
  C   C229      1.0  0.49676  0.47479  0.21652  1.0000
  H   H337      1.0  0.33934  0.08790  0.14621  1.0000
  H   H338      1.0  0.39954  0.10851  0.13881  1.0000
  H   H339      1.0  0.40618  0.25695  0.23309  1.0000
  H   H340      1.0  0.40901  0.28950  0.23073  1.0000
  C   C230      1.0  0.35384  0.10997  0.14583  1.0000
  H   H341      1.0  0.42975  0.32193  0.26912  1.0000
  H   H342      1.0  0.45500  0.27820  0.24107  1.0000
  H   H343      1.0  0.38558  0.26451  0.25455  1.0000
  C   C231      1.0  0.40605  0.27320  0.24543  1.0000
  N   N20       1.0  0.47477  0.40592  0.02901  1.0000
  C   C232      1.0  0.27565  0.41586  0.15900  1.0000
  H   H344      1.0  0.47729  0.33415  0.09395  1.0000
  H   H345      1.0  0.37942  0.48321  0.29478  1.0000
  S   S100      1.0  0.48512  0.48535  0.29724  1.0000
  H   H346      1.0  0.50142  0.46018  0.25608  1.0000
  N   N21       1.0  0.42724  0.28313  0.26677  1.0000
  H   H347      1.0  0.37318  0.08148  0.11959  1.0000
  H   H348      1.0  0.43710  0.37898  0.04876  1.0000
  H   H349      1.0  0.36638  0.11501  0.16483  1.0000
  C   C233      1.0  0.47276  0.50410  0.98510  1.0000
  H   H350      1.0  0.29248  0.44033  0.20833  1.0000
  C   C234      1.0  0.45914  0.38896  0.05258  1.0000
  H   H351      1.0  0.26308  0.39809  0.14570  1.0000
  N   N22       1.0  0.25920  0.41900  0.18046  1.0000
  Fe  Fe51      1.0  0.29051  0.15256  0.47445  1.0000
  H   H352      1.0  0.40263  0.25187  0.29562  1.0000
  N   N23       1.0  0.37077  0.11796  0.12086  1.0000
  H   H353      1.0  0.40002  0.10986  0.10200  1.0000
  C   C235      1.0  0.42260  0.26062  0.28534  1.0000
  H   H354      1.0  0.34199  0.12068  0.14708  1.0000
  H   H355      1.0  0.42269  0.24380  0.27381  1.0000
  H   H356      1.0  0.46345  0.40111  0.07168  1.0000
  H   H357      1.0  0.40647  0.29711  0.29282  1.0000
  H   H358      1.0  0.49035  0.49235  0.38091  1.0000
  H   H359      1.0  0.44680  0.37915  0.99892  1.0000
  C   C236      1.0  0.47308  0.48637  0.46221  1.0000
  C   C237      1.0  0.48620  0.48778  0.26076  1.0000
  H   H360      1.0  0.49270  0.38596  0.16345  1.0000
  H   H361      1.0  0.47351  0.15528  0.09792  1.0000
  C   C238      1.0  0.49525  0.47675  0.38796  1.0000
  C   C239      1.0  0.46766  0.42724  0.02402  1.0000
  C   C240      1.0  0.46857  0.38894  0.00423  1.0000
  H   H362      1.0  0.46942  0.34554  0.19362  1.0000
  S   S101      1.0  0.50410  0.39136  0.10413  1.0000
  H   H363      1.0  0.27589  0.17670  0.35380  1.0000
  H   H364      1.0  0.28644  0.46165  0.18535  1.0000
  H   H365      1.0  0.46435  0.37291  0.05716  1.0000
  H   H366      1.0  0.32873  0.49324  0.35284  1.0000
  H   H367      1.0  0.26196  0.39132  0.20884  1.0000
  H   H368      1.0  0.47124  0.01436  0.01820  1.0000
  C   C241      1.0  0.48895  0.49133  0.20252  1.0000
  S   S102      1.0  0.49100  0.11626  0.10402  1.0000
  H   H369      1.0  0.44581  0.41858  0.01973  1.0000
  C   C242      1.0  0.49322  0.01974  0.47319  1.0000
  H   H370      1.0  0.48153  0.45771  0.37694  1.0000
  C   C243      1.0  0.50383  0.41859  0.03517  1.0000
  C   C244      1.0  0.47824  0.50416  0.24672  1.0000
  H   H371      1.0  0.25868  0.15698  0.38322  1.0000
  C   C245      1.0  0.47947  0.50577  0.21780  1.0000
  H   H372      1.0  0.36135  0.17926  0.87650  1.0000
  H   H373      1.0  0.43477  0.03873  0.63777  1.0000
  S   S103      1.0  0.48499  0.04669  0.60409  1.0000
  H   H374      1.0  0.39639  0.17064  0.89541  1.0000
  C   C246      1.0  0.32552  0.11072  0.54920  1.0000
  H   H375      1.0  0.29586  0.07722  0.49025  1.0000
  C   C247      1.0  0.28288  0.10121  0.52967  1.0000
  S   S104      1.0  0.48616  0.45510  0.61549  1.0000
  Fe  Fe52      1.0  0.28034  0.13602  0.90984  1.0000
  S   S105      1.0  0.30182  0.13518  0.86971  1.0000
  H   H376      1.0  0.31872  0.11302  0.56995  1.0000
  S   S106      1.0  0.32588  0.17619  0.50376  1.0000
  S   S107      1.0  0.27940  0.10746  0.94287  1.0000
  S   S108      1.0  0.29471  0.17070  0.93928  1.0000
  Fe  Fe53      1.0  0.41237  0.17700  0.68858  1.0000
  S   S109      1.0  0.36841  0.16058  0.69840  1.0000
  S   S110      1.0  0.43402  0.15281  0.69618  1.0000
  Fe  Fe54      1.0  0.42151  0.23364  0.67526  1.0000
  S   S111      1.0  0.37840  0.22158  0.68422  1.0000
  S   S112      1.0  0.45711  0.27281  0.65862  1.0000
  Fe  Fe55      1.0  0.38127  0.19919  0.72160  1.0000
  S   S113      1.0  0.36223  0.20435  0.76147  1.0000
  Fe  Fe56      1.0  0.36777  0.18364  0.66073  1.0000
  S   S114      1.0  0.32979  0.16474  0.63422  1.0000
  S   S115      1.0  0.42551  0.21437  0.71430  1.0000
  S   S116      1.0  0.41060  0.19683  0.64919  1.0000
  H   H377      1.0  0.29884  0.14277  0.70782  1.0000
  C   C248      1.0  0.31757  0.15449  0.83927  1.0000
  C   C249      1.0  0.32756  0.14368  0.81949  1.0000
  C   C250      1.0  0.34108  0.15841  0.79560  1.0000
  C   C251      1.0  0.34505  0.18443  0.79113  1.0000
  C   C252      1.0  0.33499  0.19523  0.81086  1.0000
  C   C253      1.0  0.32135  0.18044  0.83468  1.0000
  H   H378      1.0  0.32490  0.12370  0.82272  1.0000
  H   H379      1.0  0.34863  0.14969  0.78080  1.0000
  H   H380      1.0  0.33787  0.21530  0.80777  1.0000
  H   H381      1.0  0.31387  0.18917  0.84955  1.0000
  C   C254      1.0  0.32641  0.17465  0.54030  1.0000
  C   C255      1.0  0.35137  0.18578  0.55392  1.0000
  C   C256      1.0  0.35279  0.18329  0.58267  1.0000
  C   C257      1.0  0.32918  0.16965  0.59816  1.0000
  C   C258      1.0  0.30420  0.15896  0.58463  1.0000
  C   C259      1.0  0.30280  0.16165  0.55592  1.0000
  H   H382      1.0  0.36977  0.19610  0.54210  1.0000
  H   H383      1.0  0.37215  0.19176  0.59278  1.0000
  H   H384      1.0  0.28581  0.14861  0.59643  1.0000
  H   H385      1.0  0.28345  0.15358  0.54586  1.0000
  C   C260      1.0  0.47184  0.36017  0.65221  1.0000
  C   C261      1.0  0.48973  0.35309  0.64039  1.0000
  C   C262      1.0  0.48482  0.32627  0.64246  1.0000
  C   C263      1.0  0.46189  0.30615  0.65616  1.0000
  C   C264      1.0  0.44391  0.31320  0.66781  1.0000
  C   C265      1.0  0.44894  0.34004  0.66593  1.0000
  H   H386      1.0  0.30381  0.05667  0.54634  1.0000
  C   C266      1.0  0.31266  0.09078  0.50414  1.0000
  H   H387      1.0  0.42624  0.29801  0.67844  1.0000
  C   C267      1.0  0.50823  0.01822  0.74183  1.0000
  H   H388      1.0  0.33624  0.13123  0.53973  1.0000
  C   C268      1.0  0.30724  0.20326  0.72898  1.0000
  C   C269      1.0  0.30379  0.47146  0.80982  1.0000
  C   C270      1.0  0.30355  0.45006  0.79562  1.0000
  C   C271      1.0  0.32755  0.44888  0.79421  1.0000
  C   C272      1.0  0.35154  0.46888  0.80664  1.0000
  H   H389      1.0  0.40887  0.01317  0.65900  1.0000
  H   H390      1.0  0.28560  0.47278  0.81107  1.0000
  H   H391      1.0  0.32764  0.43243  0.78332  1.0000
  H   H392      1.0  0.36982  0.46774  0.80526  1.0000
  N   N24       1.0  0.29397  0.17757  0.71356  1.0000
  H   H393      1.0  0.40932  0.40066  0.68531  1.0000
  C   C273      1.0  0.28954  0.06452  0.54432  1.0000
  C   C274      1.0  0.35058  0.15142  0.92401  1.0000
  S   S117      1.0  0.44022  0.49639  0.85091  1.0000
  H   H394      1.0  0.30705  0.19962  0.75154  1.0000
  H   H395      1.0  0.47069  0.13309  0.70567  1.0000
  H   H396      1.0  0.43982  0.01305  0.65348  1.0000
  H   H397      1.0  0.29138  0.12064  0.51826  1.0000
  H   H398      1.0  0.43461  0.07446  0.66618  1.0000
  C   C275      1.0  0.48152  0.12830  0.63752  1.0000
  C   C276      1.0  0.48359  0.12675  0.66606  1.0000
  C   C277      1.0  0.46881  0.13422  0.68363  1.0000
  C   C278      1.0  0.45205  0.14364  0.67296  1.0000
  C   C279      1.0  0.45015  0.14544  0.64444  1.0000
  C   C280      1.0  0.46495  0.13798  0.62687  1.0000
  H   H399      1.0  0.37821  0.18819  0.96273  1.0000
  H   H400      1.0  0.32298  0.11119  0.49437  1.0000
  H   H401      1.0  0.43710  0.15232  0.63591  1.0000
  H   H402      1.0  0.46343  0.13955  0.60483  1.0000
  H   H403      1.0  0.38754  0.21762  0.94165  1.0000
  H   H404      1.0  0.35281  0.19436  0.94901  1.0000
  H   H405      1.0  0.31697  0.19532  0.67679  1.0000
  H   H406      1.0  0.42332  0.44348  0.70990  1.0000
  C   C281      1.0  0.35183  0.49039  0.82072  1.0000
  H   H407      1.0  0.34841  0.13880  0.90571  1.0000
  N   N25       1.0  0.37075  0.18010  0.91944  1.0000
  H   H408      1.0  0.48197  0.04797  0.67555  1.0000
  C   C282      1.0  0.39722  0.18246  0.91394  1.0000
  C   C283      1.0  0.37253  0.19585  0.94421  1.0000
  C   C284      1.0  0.36255  0.19053  0.89558  1.0000
  H   H409      1.0  0.48383  0.43902  0.69102  1.0000
  N   N26       1.0  0.44287  0.04374  0.68120  1.0000
  C   C285      1.0  0.49377  0.48458  0.50621  1.0000
  H   H410      1.0  0.47545  0.23791  0.67848  1.0000
  H   H411      1.0  0.28163  0.06464  0.56518  1.0000
  H   H412      1.0  0.32929  0.17379  0.71420  1.0000
  H   H413      1.0  0.27633  0.10414  0.55025  1.0000
  H   H414      1.0  0.40875  0.04935  0.68767  1.0000
  H   H415      1.0  0.49719  0.12061  0.67461  1.0000
  H   H416      1.0  0.43964  0.07496  0.70263  1.0000
  C   C286      1.0  0.47225  0.06061  0.67739  1.0000
  H   H417      1.0  0.34222  0.18824  0.89868  1.0000
  H   H418      1.0  0.25884  0.42439  0.83807  1.0000
  H   H419      1.0  0.27220  0.04990  0.53154  1.0000
  S   S118      1.0  0.49156  0.46642  0.53730  1.0000
  C   C287      1.0  0.43091  0.06135  0.68459  1.0000
  H   H420      1.0  0.45581  0.45285  0.49086  1.0000
  H   H421      1.0  0.44536  0.47824  0.54284  1.0000
  H   H422      1.0  0.45023  0.46474  0.57416  1.0000
  C   C288      1.0  0.49876  0.01507  0.50031  1.0000
  H   H423      1.0  0.44673  0.03897  0.72462  1.0000
  C   C289      1.0  0.47268  0.47276  0.48682  1.0000
  H   H424      1.0  0.32880  0.21581  0.72297  1.0000
  H   H425      1.0  0.33047  0.14908  0.92790  1.0000
  C   C290      1.0  0.26545  0.16168  0.72193  1.0000
  H   H426      1.0  0.47121  0.20464  0.67754  1.0000
  H   H427      1.0  0.50099  0.23180  0.69244  1.0000
  H   H428      1.0  0.47714  0.07315  0.65839  1.0000
  Fe  Fe57      1.0  0.29159  0.14183  0.97260  1.0000
  C   C291      1.0  0.47320  0.42739  0.70978  1.0000
  H   H429      1.0  0.43195  0.38672  0.73640  1.0000
  H   H430      1.0  0.26873  0.42832  0.87346  1.0000
  H   H431      1.0  0.28692  0.40292  0.82941  1.0000
  C   C292      1.0  0.47899  0.22417  0.62630  1.0000
  H   H432      1.0  0.47439  0.40845  0.70954  1.0000
  H   H433      1.0  0.28168  0.37423  0.84941  1.0000
  H   H434      1.0  0.40390  0.17469  0.93157  1.0000
  H   H435      1.0  0.30671  0.15698  0.74195  1.0000
  H   H436      1.0  0.50024  0.19498  0.64732  1.0000
  H   H437      1.0  0.37689  0.21229  0.89173  1.0000
  H   H438      1.0  0.26032  0.38781  0.90103  1.0000
  H   H439      1.0  0.43231  0.49469  0.61334  1.0000
  H   H440      1.0  0.41291  0.20385  0.91025  1.0000
  C   C293      1.0  0.43744  0.02659  0.70591  1.0000
  H   H441      1.0  0.28629  0.16446  0.67138  1.0000
  C   C294      1.0  0.29565  0.18337  0.68373  1.0000
  H   H442      1.0  0.42071  0.46791  0.56982  1.0000
  H   H443      1.0  0.44206  0.41784  0.75432  1.0000
  H   H444      1.0  0.43489  0.34514  0.67515  1.0000
  N   N27       1.0  0.44496  0.42152  0.71029  1.0000
  C   C295      1.0  0.44432  0.44714  0.71001  1.0000
  C   C296      1.0  0.43172  0.40614  0.73551  1.0000
  H   H445      1.0  0.44052  0.41625  0.66646  1.0000
  C   C297      1.0  0.43066  0.40540  0.68585  1.0000
  H   H446      1.0  0.45442  0.45956  0.72850  1.0000
  S   S119      1.0  0.50077  0.12055  0.61441  1.0000
  C   C298      1.0  0.28082  0.39329  0.85007  1.0000
  S   S120      1.0  0.27376  0.42366  0.78022  1.0000
  H   H447      1.0  0.26451  0.08657  0.51843  1.0000
  C   C299      1.0  0.30766  0.16196  0.71965  1.0000
  H   H448      1.0  0.46404  0.20224  0.62761  1.0000
  C   C300      1.0  0.43100  0.02641  0.65680  1.0000
  H   H449      1.0  0.35562  0.14283  0.94221  1.0000
  H   H450      1.0  0.41035  0.40130  0.73658  1.0000
  H   H451      1.0  0.29729  0.21551  0.72527  1.0000
  C   C301      1.0  0.32776  0.49144  0.82227  1.0000
  H   H452      1.0  0.45474  0.45958  0.69158  1.0000
  H   H453      1.0  0.48190  0.07443  0.69508  1.0000
  S   S121      1.0  0.47724  0.39381  0.65124  1.0000
  H   H454      1.0  0.29630  0.40715  0.86495  1.0000
  H   H455      1.0  0.43076  0.38591  0.68543  1.0000
  H   H456      1.0  0.48461  0.43932  0.72802  1.0000
  H   H457      1.0  0.46770  0.23539  0.62785  1.0000
  N   N28       1.0  0.30267  0.09179  0.53186  1.0000
  H   H458      1.0  0.32731  0.08334  0.50488  1.0000
  C   C302      1.0  0.44267  0.47790  0.56555  1.0000
  H   H459      1.0  0.34052  0.10390  0.55202  1.0000
  H   H460      1.0  0.44584  0.01274  0.70368  1.0000
  H   H461      1.0  0.28549  0.19508  0.67821  1.0000
  H   H462      1.0  0.41547  0.01380  0.70973  1.0000
  Fe  Fe58      1.0  0.50757  0.43302  0.62948  1.0000
  C   C303      1.0  0.48627  0.22643  0.67536  1.0000
  C   C304      1.0  0.45388  0.50391  0.60745  1.0000
  N   N29       1.0  0.49953  0.23236  0.64820  1.0000
  S   S122      1.0  0.50439  0.03954  0.52627  1.0000
  H   H463      1.0  0.48822  0.22821  0.60550  1.0000
  H   H464      1.0  0.46188  0.49153  0.61702  1.0000
  H   H465      1.0  0.26363  0.15702  0.74436  1.0000
  H   H466      1.0  0.49889  0.32111  0.63335  1.0000
  C   C305      1.0  0.50595  0.01993  0.71314  1.0000
  Fe  Fe59      1.0  0.50736  0.03543  0.63493  1.0000
  S   S123      1.0  0.49238  0.50424  0.79370  1.0000
  N   N30       1.0  0.45728  0.50542  0.57725  1.0000
  H   H467      1.0  0.49483  0.50554  0.57870  1.0000
  H   H468      1.0  0.50806  0.27358  0.64801  1.0000
  H   H469      1.0  0.50744  0.36827  0.62981  1.0000
  Fe  Fe60      1.0  0.47005  0.90868  0.33738  1.0000
  C   C306      1.0  0.30579  0.85631  0.22308  1.0000
  H   H470      1.0  0.43214  0.60227  0.33811  1.0000
  Fe  Fe61      1.0  0.42541  0.92369  0.34558  1.0000
  S   S124      1.0  0.45578  0.96619  0.35867  1.0000
  S   S125      1.0  0.38131  0.91336  0.34988  1.0000
  Fe  Fe62      1.0  0.48127  0.96518  0.32399  1.0000
  S   S126      1.0  0.48479  0.95344  0.43112  1.0000
  Fe  Fe63      1.0  0.47454  0.94719  0.38474  1.0000
  H   H471      1.0  0.45610  0.96618  0.21018  1.0000
  S   S127      1.0  0.44968  0.92445  0.30881  1.0000
  S   S128      1.0  0.44318  0.90466  0.37304  1.0000
  H   H472      1.0  0.43096  0.95807  0.43582  1.0000
  S   S129      1.0  0.45509  0.53570  0.30781  1.0000
  H   H473      1.0  0.29422  0.88367  0.18501  1.0000
  Fe  Fe64      1.0  0.47602  0.52863  0.38377  1.0000
  S   S130      1.0  0.45943  0.55611  0.37225  1.0000
  C   C307      1.0  0.27966  0.86166  0.18681  1.0000
  H   H474      1.0  0.40893  0.54273  0.29250  1.0000
  Fe  Fe65      1.0  0.48603  0.56857  0.33477  1.0000
  H   H475      1.0  0.45425  0.58533  0.29054  1.0000
  C   C308      1.0  0.44302  0.59618  0.28578  1.0000
  H   H476      1.0  0.42900  0.93843  0.40662  1.0000
  H   H477      1.0  0.48239  0.82927  0.30553  1.0000
  H   H478      1.0  0.48622  0.63457  0.33885  1.0000
  H   H479      1.0  0.31261  0.84543  0.20922  1.0000
  H   H480      1.0  0.39655  0.55549  0.26570  1.0000
  C   C309      1.0  0.49207  0.00452  0.20382  1.0000
  C   C310      1.0  0.50246  0.64933  0.32629  1.0000
  C   C311      1.0  0.49468  0.51218  0.45649  1.0000
  H   H481      1.0  0.28510  0.88866  0.23368  1.0000
  C   C312      1.0  0.35128  0.88852  0.33336  1.0000
  C   C313      1.0  0.35072  0.86838  0.31657  1.0000
  C   C314      1.0  0.32622  0.84860  0.30477  1.0000
  C   C315      1.0  0.30198  0.84873  0.30939  1.0000
  C   C316      1.0  0.30258  0.86909  0.32586  1.0000
  C   C317      1.0  0.32704  0.88873  0.33786  1.0000
  H   H482      1.0  0.36908  0.86779  0.31299  1.0000
  H   H483      1.0  0.32604  0.83290  0.29221  1.0000
  H   H484      1.0  0.28418  0.86953  0.32965  1.0000
  H   H485      1.0  0.32718  0.90419  0.35076  1.0000
  Fe  Fe66      1.0  0.42927  0.52134  0.34581  1.0000
  S   S131      1.0  0.27169  0.82297  0.29411  1.0000
  S   S132      1.0  0.48608  0.00451  0.16805  1.0000
  H   H486      1.0  0.32117  0.87816  0.22257  1.0000
  H   H487      1.0  0.37284  0.90232  0.47201  1.0000
  C   C318      1.0  0.38138  0.89474  0.41935  1.0000
  C   C319      1.0  0.47792  0.98131  0.24824  1.0000
  S   S133      1.0  0.47532  0.87351  0.32244  1.0000
  H   H488      1.0  0.46340  0.96448  0.26038  1.0000
  H   H489      1.0  0.43023  0.90358  0.43491  1.0000
  S   S134      1.0  0.38531  0.51193  0.34687  1.0000
  H   H490      1.0  0.40005  0.60056  0.27089  1.0000
  H   H491      1.0  0.50722  0.95367  0.27912  1.0000
  H   H492      1.0  0.46880  0.92446  0.24871  1.0000
  H   H493      1.0  0.42942  0.56974  0.33408  1.0000
  H   H494      1.0  0.47104  0.51553  0.25812  1.0000
  H   H495      1.0  0.30561  0.84895  0.24442  1.0000
  C   C320      1.0  0.47712  0.91050  0.24748  1.0000
  H   H496      1.0  0.43362  0.92337  0.46457  1.0000
  C   C321      1.0  0.38540  0.92095  0.45978  1.0000
  C   C322      1.0  0.40283  0.59911  0.29337  1.0000
  H   H497      1.0  0.40717  0.88861  0.46303  1.0000
  H   H498      1.0  0.36753  0.90064  0.40924  1.0000
  C   C323      1.0  0.49025  0.97781  0.45714  1.0000
  S   S135      1.0  0.49678  0.53043  0.42550  1.0000
  H   H499      1.0  0.37178  0.92771  0.45079  1.0000
  C   C324      1.0  0.41667  0.94127  0.42235  1.0000
  H   H500      1.0  0.39977  0.57185  0.33988  1.0000
  H   H501      1.0  0.40378  0.94783  0.41131  1.0000
  N   N31       1.0  0.40047  0.91607  0.43808  1.0000
  C   C325      1.0  0.41956  0.58183  0.32912  1.0000
  H   H502      1.0  0.37933  0.54498  0.29817  1.0000
  C   C326      1.0  0.41855  0.90745  0.45078  1.0000
  H   H503      1.0  0.38258  0.58979  0.30316  1.0000
  H   H504      1.0  0.41483  0.62008  0.30139  1.0000
  C   C327      1.0  0.47376  0.98241  0.21981  1.0000
  C   C328      1.0  0.27076  0.86655  0.23419  1.0000
  N   N32       1.0  0.41626  0.58315  0.29911  1.0000
  C   C329      1.0  0.39957  0.55546  0.28830  1.0000
  H   H505      1.0  0.46769  0.89527  0.26430  1.0000
  N   N33       1.0  0.27889  0.85179  0.21512  1.0000
  H   H506      1.0  0.44134  0.59676  0.26303  1.0000
  S   S136      1.0  0.50469  0.54366  0.34786  1.0000
  H   H507      1.0  0.36890  0.87530  0.43034  1.0000
  H   H508      1.0  0.45584  0.61737  0.29290  1.0000
  S   S137      1.0  0.50725  0.00111  0.29637  1.0000
  H   H509      1.0  0.27008  0.85971  0.25577  1.0000
  H   H510      1.0  0.39211  0.89084  0.40247  1.0000
  H   H511      1.0  0.39932  0.93692  0.47425  1.0000
  H   H512      1.0  0.47046  0.89958  0.22758  1.0000
  Fe  Fe67      1.0  0.47227  0.51021  0.32319  1.0000
  H   H513      1.0  0.28564  0.85093  0.17179  1.0000
  H   H514      1.0  0.47330  0.51857  0.20721  1.0000
  H   H515      1.0  0.26448  0.81082  0.20211  1.0000
  S   S138      1.0  0.50275  0.94946  0.35097  1.0000
  C   C330      1.0  0.50228  0.84668  0.30772  1.0000
  H   H516      1.0  0.50499  0.59595  0.98235  1.0000
  H   H517      1.0  0.49266  0.68089  0.33335  1.0000
  H   H518      1.0  0.50585  0.92426  0.29404  1.0000
  H   H519      1.0  0.50749  0.88973  0.26350  1.0000
  N   N34       1.0  0.50679  0.92531  0.24991  1.0000
  C   C331      1.0  0.50068  0.00218  0.26089  1.0000
  C   C332      1.0  0.48896  0.00130  0.45178  1.0000
  C   C333      1.0  0.50495  0.87135  0.31666  1.0000
  C   C334      1.0  0.50623  0.67563  0.32320  1.0000
  H   H520      1.0  0.25947  0.85836  0.18046  1.0000
  C   C335      1.0  0.25918  0.82258  0.21646  1.0000
  H   H521      1.0  0.48480  0.00535  0.43112  1.0000
  Fe  Fe68      1.0  0.47692  0.91570  0.85165  1.0000
  H   H522      1.0  0.47696  0.53261  0.75328  1.0000
  C   C336      1.0  0.49066  0.99457  0.75635  1.0000
  Fe  Fe69      1.0  0.42062  0.91073  0.84675  1.0000
  S   S139      1.0  0.43797  0.95564  0.85145  1.0000
  S   S140      1.0  0.37502  0.88280  0.85214  1.0000
  Fe  Fe70      1.0  0.47068  0.95955  0.82289  1.0000
  H   H523      1.0  0.36766  0.92519  0.95990  1.0000
  Fe  Fe71      1.0  0.46258  0.95297  0.88650  1.0000
  S   S141      1.0  0.45860  0.97125  0.92741  1.0000
  S   S142      1.0  0.45173  0.91472  0.81541  1.0000
  S   S143      1.0  0.44450  0.90791  0.88257  1.0000
  C   C337      1.0  0.40628  0.91213  0.95220  1.0000
  S   S144      1.0  0.45858  0.55069  0.81054  1.0000
  H   H524      1.0  0.36702  0.86198  0.93938  1.0000
  H   H525      1.0  0.49985  0.71611  0.84440  1.0000
  S   S145      1.0  0.44775  0.55214  0.87606  1.0000
  N   N35       1.0  0.38255  0.90477  0.93454  1.0000
  Fe  Fe72      1.0  0.42515  0.52519  0.84050  1.0000
  Fe  Fe73      1.0  0.48224  0.57559  0.84707  1.0000
  H   H526      1.0  0.42315  0.91274  0.94024  1.0000
  C   C338      1.0  0.48278  0.50869  0.95797  1.0000
  H   H527      1.0  0.38872  0.87689  0.91023  1.0000
  H   H528      1.0  0.47540  0.59952  0.94693  1.0000
  H   H529      1.0  0.44562  0.99086  0.97613  1.0000
  H   H530      1.0  0.47343  0.72229  0.85558  1.0000
  N   N36       1.0  0.49868  0.74891  0.82360  1.0000
  S   S146      1.0  0.48153  0.99947  0.66277  1.0000
  H   H531      1.0  0.49803  0.53847  0.57944  1.0000
  H   H532      1.0  0.40152  0.89751  0.96937  1.0000
  H   H533      1.0  0.35518  0.87144  0.90926  1.0000
  C   C339      1.0  0.34626  0.87143  0.83029  1.0000
  C   C340      1.0  0.34835  0.87576  0.80184  1.0000
  C   C341      1.0  0.32489  0.86543  0.78541  1.0000
  C   C342      1.0  0.29902  0.85093  0.79715  1.0000
  C   C343      1.0  0.29693  0.84695  0.82564  1.0000
  C   C344      1.0  0.32039  0.85699  0.84202  1.0000
  H   H534      1.0  0.36803  0.88670  0.79244  1.0000
  H   H535      1.0  0.32683  0.86861  0.76341  1.0000
  H   H536      1.0  0.27726  0.83577  0.83501  1.0000
  H   H537      1.0  0.31843  0.85337  0.86395  1.0000
  H   H538      1.0  0.45707  0.54292  0.57362  1.0000
  H   H539      1.0  0.35476  0.89015  0.96833  1.0000
  H   H540      1.0  0.34279  0.89938  0.93819  1.0000
  H   H541      1.0  0.46427  0.74117  0.79899  1.0000
  C   C345      1.0  0.37290  0.87754  0.92298  1.0000
  H   H542      1.0  0.46494  0.52428  0.61705  1.0000
  C   C346      1.0  0.47081  0.97250  0.74187  1.0000
  C   C347      1.0  0.50510  0.99452  0.96044  1.0000
  H   H543      1.0  0.45715  0.95418  0.75279  1.0000
  C   C348      1.0  0.48958  0.52533  0.71378  1.0000
  C   C349      1.0  0.47826  0.98819  0.95718  1.0000
  S   S147      1.0  0.50445  0.51537  0.66327  1.0000
  S   S148      1.0  0.49478  0.99365  0.79238  1.0000
  S   S149      1.0  0.49669  0.96066  0.85827  1.0000
  C   C350      1.0  0.48674  0.52320  0.74263  1.0000
  H   H544      1.0  0.49986  0.56536  0.96660  1.0000
  C   C351      1.0  0.47847  0.75612  0.81404  1.0000
  H   H545      1.0  0.48162  0.86496  0.80691  1.0000
  C   C352      1.0  0.50683  0.84756  0.79736  1.0000
  H   H546      1.0  0.49682  0.95506  0.48876  1.0000
  S   S150      1.0  0.46471  0.51513  0.93141  1.0000
  H   H547      1.0  0.44875  0.52344  0.54254  1.0000
  H   H548      1.0  0.27548  0.83592  0.71329  1.0000
  H   H549      1.0  0.39782  0.94549  0.91973  1.0000
  H   H550      1.0  0.40632  0.92503  0.89912  1.0000
  C   C353      1.0  0.36094  0.90485  0.95101  1.0000
  C   C354      1.0  0.46851  0.97422  0.71316  1.0000
  H   H551      1.0  0.50499  0.92071  0.76023  1.0000
  H   H552      1.0  0.50691  0.62534  0.79511  1.0000
  H   H553      1.0  0.50629  0.77128  0.86127  1.0000
  H   H554      1.0  0.45299  0.95710  0.70212  1.0000
  Fe  Fe74      1.0  0.46521  0.52507  0.88485  1.0000
  H   H555      1.0  0.50418  0.98750  0.52633  1.0000
  H   H556      1.0  0.50082  0.73222  0.78466  1.0000
  H   H557      1.0  0.48265  0.59898  0.91112  1.0000
  C   C355      1.0  0.49638  0.50872  0.75760  1.0000
  C   C356      1.0  0.50002  0.99156  0.50568  1.0000
  C   C357      1.0  0.39009  0.92459  0.91190  1.0000
  H   H558      1.0  0.37283  0.91955  0.89785  1.0000
  H   H559      1.0  0.49876  0.94364  0.77985  1.0000
  H   H560      1.0  0.26389  0.83348  0.65128  1.0000
  C   C358      1.0  0.44644  0.52199  0.56534  1.0000
  C   C359      1.0  0.48505  0.72221  0.83732  1.0000
  H   H561      1.0  0.41412  0.93259  0.96129  1.0000
  C   C360      1.0  0.48395  0.59124  0.93184  1.0000
  H   H562      1.0  0.26363  0.80648  0.69186  1.0000
  H   H563      1.0  0.46648  0.75720  0.83146  1.0000
  H   H564      1.0  0.27568  0.86288  0.67269  1.0000
  S   S151      1.0  0.27017  0.83762  0.77518  1.0000
  C   C361      1.0  0.50678  0.50845  0.95308  1.0000
  S   S152      1.0  0.38141  0.51634  0.83685  1.0000
  Fe  Fe75      1.0  0.47480  0.52312  0.82256  1.0000
  H   H565      1.0  0.47062  0.56889  0.93169  1.0000
  H   H566      1.0  0.50315  0.91802  0.79703  1.0000
  H   H567      1.0  0.48829  0.77628  0.80371  1.0000
  C   C362      1.0  0.48605  0.99791  0.69867  1.0000
  H   H568      1.0  0.49428  0.83568  0.78044  1.0000
  S   S153      1.0  0.50077  0.54965  0.85723  1.0000
  H   H569      1.0  0.48197  0.53651  0.70242  1.0000
  C   C363      1.0  0.48620  0.51788  0.57056  1.0000
  C   C364      1.0  0.49578  0.97313  0.48426  1.0000
  H   H570      1.0  0.48957  0.51954  0.54794  1.0000
  S   S154      1.0  0.50639  0.62136  0.85549  1.0000
  H   H571      1.0  0.47081  0.70616  0.82312  1.0000
  H   H572      1.0  0.32774  0.50799  0.83305  1.0000
  C   C365      1.0  0.49961  0.86421  0.81230  1.0000
  H   H573      1.0  0.42461  0.51317  0.56994  1.0000
  C   C366      1.0  0.50185  0.51285  0.69963  1.0000
  S   S155      1.0  0.50746  0.90071  0.85437  1.0000
  C   C367      1.0  0.46629  0.99548  0.97833  1.0000
  H   H574      1.0  0.58192  0.06276  0.00912  1.0000
  S   S156      1.0  0.52792  0.08421  0.14812  1.0000
  H   H575      1.0  0.62337  0.06289  0.02501  1.0000
  S   S157      1.0  0.54025  0.09326  0.08206  1.0000
  S   S158      1.0  0.52747  0.03277  0.03505  1.0000
  Fe  Fe76      1.0  0.56098  0.08885  0.11946  1.0000
  S   S159      1.0  0.60486  0.12322  0.11875  1.0000
  H   H576      1.0  0.75230  0.15551  0.22997  1.0000
  S   S160      1.0  0.54325  0.04413  0.11273  1.0000
  H   H577      1.0  0.57684  0.07356  0.06880  1.0000
  S   S161      1.0  0.53779  0.46245  0.15064  1.0000
  H   H578      1.0  0.55136  0.47065  0.38994  1.0000
  S   S162      1.0  0.55526  0.46590  0.08590  1.0000
  H   H579      1.0  0.55037  0.49526  0.34802  1.0000
  C   C368      1.0  0.71890  0.13857  0.29065  1.0000
  H   H580      1.0  0.60424  0.12137  0.05595  1.0000
  S   S163      1.0  0.71192  0.14564  0.18326  1.0000
  H   H581      1.0  0.64347  0.09774  0.01497  1.0000
  H   H582      1.0  0.53666  0.04053  0.25455  1.0000
  C   C369      1.0  0.63438  0.12840  0.13651  1.0000
  C   C370      1.0  0.63363  0.11138  0.15771  1.0000
  C   C371      1.0  0.65755  0.11689  0.17163  1.0000
  C   C372      1.0  0.68254  0.13928  0.16440  1.0000
  C   C373      1.0  0.68330  0.15613  0.14299  1.0000
  C   C374      1.0  0.65936  0.15077  0.12925  1.0000
  H   H583      1.0  0.61463  0.09411  0.16361  1.0000
  H   H584      1.0  0.65666  0.10367  0.18812  1.0000
  H   H585      1.0  0.70229  0.17347  0.13722  1.0000
  H   H586      1.0  0.66025  0.16416  0.11296  1.0000
  Fe  Fe77      1.0  0.52846  0.48339  0.07517  1.0000
  N   N37       1.0  0.60924  0.08899  0.04008  1.0000
  C   C375      1.0  0.59380  0.07050  0.06274  1.0000
  H   H587      1.0  0.67796  0.49474  0.13115  1.0000
  N   N38       1.0  0.56510  0.16893  0.14771  1.0000
  H   H588      1.0  0.51003  0.40321  0.03934  1.0000
  C   C376      1.0  0.58215  0.15985  0.16191  1.0000
  C   C377      1.0  0.57875  0.19876  0.14789  1.0000
  C   C378      1.0  0.56057  0.15930  0.11901  1.0000
  H   H589      1.0  0.57985  0.16668  0.10768  1.0000
  C   C379      1.0  0.62050  0.11722  0.04940  1.0000
  H   H590      1.0  0.73124  0.13109  0.30131  1.0000
  H   H591      1.0  0.70013  0.12062  0.28326  1.0000
  H   H592      1.0  0.60200  0.16765  0.15153  1.0000
  H   H593      1.0  0.58597  0.16663  0.18367  1.0000
  H   H594      1.0  0.71307  0.14897  0.30623  1.0000
  H   H595      1.0  0.60201  0.09754  0.99870  1.0000
  C   C380      1.0  0.53890  0.15785  0.16194  1.0000
  H   H596      1.0  0.52615  0.46176  0.41604  1.0000
  S   S164      1.0  0.52802  0.49189  0.02849  1.0000
  H   H597      1.0  0.51637  0.43193  0.01808  1.0000
  Fe  Fe78      1.0  0.51319  0.48124  0.13701  1.0000
  H   H598      1.0  0.54777  0.16573  0.10756  1.0000
  H   H599      1.0  0.56638  0.20622  0.13726  1.0000
  H   H600      1.0  0.63402  0.12153  0.06751  1.0000
  C   C381      1.0  0.52906  0.48892  0.35286  1.0000
  N   N39       1.0  0.52385  0.48546  0.38277  1.0000
  C   C382      1.0  0.52992  0.46476  0.39348  1.0000
  Fe  Fe79      1.0  0.56998  0.49341  0.12269  1.0000
  Fe  Fe80      1.0  0.52077  0.04838  0.07641  1.0000
  H   H601      1.0  0.69827  0.14914  0.24524  1.0000
  H   H602      1.0  0.58241  0.20672  0.16926  1.0000
  H   H603      1.0  0.75129  0.44489  0.16297  1.0000
  H   H604      1.0  0.71082  0.17738  0.26849  1.0000
  H   H605      1.0  0.73839  0.49105  0.16532  1.0000
  N   N40       1.0  0.73391  0.15688  0.26767  1.0000
  H   H606      1.0  0.60644  0.07392  0.08138  1.0000
  H   H607      1.0  0.58479  0.04891  0.05661  1.0000
  H   H608      1.0  0.57413  0.08739  0.02186  1.0000
  C   C383      1.0  0.59118  0.08406  0.01634  1.0000
  H   H609      1.0  0.50905  0.43139  0.05377  1.0000
  Fe  Fe81      1.0  0.75616  0.17701  0.17512  1.0000
  H   H610      1.0  0.57257  0.13744  0.16198  1.0000
  H   H611      1.0  0.52898  0.04260  0.20442  1.0000
  C   C384      1.0  0.74117  0.14223  0.24756  1.0000
  Fe  Fe82      1.0  0.52080  0.43642  0.11278  1.0000
  H   H612      1.0  0.75146  0.46282  0.19333  1.0000
  H   H613      1.0  0.59856  0.20775  0.13725  1.0000
  C   C385      1.0  0.51903  0.02427  0.24490  1.0000
  C   C386      1.0  0.75129  0.49051  0.14849  1.0000
  H   H614      1.0  0.63225  0.13188  0.03289  1.0000
  H   H615      1.0  0.72762  0.18013  0.23650  1.0000
  H   H616      1.0  0.54138  0.16424  0.18382  1.0000
  H   H617      1.0  0.74254  0.04192  0.00458  1.0000
  H   H618      1.0  0.54989  0.13691  0.11824  1.0000
  C   C387      1.0  0.71689  0.16632  0.25402  1.0000
  C   C388      1.0  0.63134  0.08410  0.03203  1.0000
  H   H619      1.0  0.64518  0.08752  0.04963  1.0000
  H   H620      1.0  0.73827  0.47329  0.13484  1.0000
  H   H621      1.0  0.63270  0.49001  0.12428  1.0000
  H   H622      1.0  0.74876  0.08483  0.02481  1.0000
  H   H623      1.0  0.51716  0.44490  0.38337  1.0000
  H   H624      1.0  0.72298  0.12455  0.23879  1.0000
  H   H625      1.0  0.51595  0.46992  0.34143  1.0000
  H   H626      1.0  0.75410  0.19204  0.29344  1.0000
  C   C389      1.0  0.51024  0.49884  0.00201  1.0000
  C   C390      1.0  0.51472  0.02552  0.21650  1.0000
  H   H627      1.0  0.52770  0.13536  0.16161  1.0000
  H   H628      1.0  0.52567  0.16455  0.15186  1.0000
  H   H629      1.0  0.75417  0.13490  0.25692  1.0000
  Fe  Fe83      1.0  0.50857  0.03974  0.13842  1.0000
  H   H630      1.0  0.54034  0.01270  0.98652  1.0000
  C   C391      1.0  0.51965  0.00801  0.98437  1.0000
  H   H631      1.0  0.52481  0.50454  0.34419  1.0000
  H   H632      1.0  0.55527  0.06658  0.49153  1.0000
  S   S165      1.0  0.53633  0.07828  0.64776  1.0000
  Fe  Fe84      1.0  0.51785  0.49046  0.63846  1.0000
  S   S166      1.0  0.54360  0.09213  0.58161  1.0000
  H   H633      1.0  0.66875  0.10320  0.73238  1.0000
  Fe  Fe85      1.0  0.56243  0.07758  0.61316  1.0000
  S   S167      1.0  0.60708  0.08960  0.61003  1.0000
  C   C392      1.0  0.57086  0.05140  0.53691  1.0000
  S   S168      1.0  0.53451  0.03368  0.60255  1.0000
  C   C393      1.0  0.72096  0.15373  0.76724  1.0000
  S   S169      1.0  0.53830  0.46831  0.65457  1.0000
  H   H634      1.0  0.61627  0.06249  0.51067  1.0000
  S   S170      1.0  0.53311  0.44516  0.59094  1.0000
  H   H635      1.0  0.55842  0.05557  0.55134  1.0000
  C   C394      1.0  0.50901  0.49660  0.74343  1.0000
  H   H636      1.0  0.73571  0.16033  0.71448  1.0000
  S   S171      1.0  0.71581  0.17978  0.66733  1.0000
  Fe  Fe86      1.0  0.51449  0.04834  0.57249  1.0000
  C   C395      1.0  0.69102  0.15716  0.73431  1.0000
  C   C396      1.0  0.63687  0.11445  0.62688  1.0000
  C   C397      1.0  0.63697  0.13389  0.64443  1.0000
  C   C398      1.0  0.66129  0.15364  0.65655  1.0000
  C   C399      1.0  0.68580  0.15419  0.65148  1.0000
  C   C400      1.0  0.68565  0.13452  0.63425  1.0000
  C   C401      1.0  0.66136  0.11490  0.62197  1.0000
  H   H637      1.0  0.61840  0.13395  0.64835  1.0000
  H   H638      1.0  0.66113  0.16880  0.66972  1.0000
  H   H639      1.0  0.70426  0.13462  0.63011  1.0000
  H   H640      1.0  0.66159  0.09998  0.60848  1.0000
  H   H641      1.0  0.74952  0.07268  0.53482  1.0000
  H   H642      1.0  0.58329  0.04532  0.54949  1.0000
  H   H643      1.0  0.67840  0.15862  0.75080  1.0000
  H   H644      1.0  0.58927  0.05183  0.48622  1.0000
  H   H645      1.0  0.51661  0.48545  0.75489  1.0000
  H   H646      1.0  0.53869  0.50318  0.97065  1.0000
  H   H647      1.0  0.74289  0.06858  0.48396  1.0000
  H   H648      1.0  0.55827  0.08849  0.51911  1.0000
  Fe  Fe87      1.0  0.56252  0.48214  0.61539  1.0000
  H   H649      1.0  0.58201  0.10124  0.49129  1.0000
  H   H650      1.0  0.69098  0.10056  0.75681  1.0000
  H   H651      1.0  0.73011  0.12816  0.72634  1.0000
  C   C402      1.0  0.60648  0.09787  0.53753  1.0000
  H   H652      1.0  0.66939  0.11345  0.76742  1.0000
  H   H653      1.0  0.59548  0.10320  0.55288  1.0000
  H   H654      1.0  0.70947  0.15527  0.78485  1.0000
  H   H655      1.0  0.55664  0.03381  0.52423  1.0000
  N   N41       1.0  0.70344  0.14095  0.74313  1.0000
  C   C403      1.0  0.60302  0.06876  0.49991  1.0000
  H   H656      1.0  0.52366  0.03538  0.75288  1.0000
  H   H657      1.0  0.74160  0.03075  0.51133  1.0000
  C   C404      1.0  0.52028  0.50347  0.97488  1.0000
  H   H658      1.0  0.73085  0.14209  0.77423  1.0000
  C   C405      1.0  0.51863  0.26166  0.64591  1.0000
  C   C406      1.0  0.71982  0.13970  0.72044  1.0000
  H   H659      1.0  0.70661  0.17809  0.72845  1.0000
  N   N42       1.0  0.58766  0.07538  0.51974  1.0000
  H   H660      1.0  0.53428  0.26865  0.66227  1.0000
  H   H661      1.0  0.70748  0.13027  0.70169  1.0000
  H   H662      1.0  0.73752  0.17447  0.76222  1.0000
  C   C407      1.0  0.57015  0.08335  0.50469  1.0000
  Fe  Fe88      1.0  0.51517  0.08945  0.61512  1.0000
  H   H663      1.0  0.67806  0.14827  0.71581  1.0000
  H   H664      1.0  0.61978  0.09245  0.54952  1.0000
  H   H665      1.0  0.52899  0.26694  0.62565  1.0000
  H   H666      1.0  0.51958  0.03828  0.70228  1.0000
  C   C408      1.0  0.68217  0.11330  0.75030  1.0000
  H   H667      1.0  0.61306  0.49870  0.67080  1.0000
  H   H668      1.0  0.61954  0.11640  0.52541  1.0000
  S   S172      1.0  0.60846  0.50237  0.61073  1.0000
  C   C409      1.0  0.51413  0.21715  0.64527  1.0000
  C   C410      1.0  0.51164  0.49852  0.71462  1.0000
  H   H669      1.0  0.52992  0.22295  0.66135  1.0000
  Fe  Fe89      1.0  0.51353  0.46982  0.57858  1.0000
  H   H670      1.0  0.52116  0.48883  0.70410  1.0000
  H   H671      1.0  0.52405  0.22073  0.62484  1.0000
  H   H672      1.0  0.61598  0.08641  0.48660  1.0000
  H   H673      1.0  0.75461  0.08174  0.97447  1.0000
  Fe  Fe90      1.0  0.62365  0.80912  0.30480  1.0000
  S   S173      1.0  0.58320  0.80082  0.31922  1.0000
  S   S174      1.0  0.65832  0.81716  0.33362  1.0000
  Fe  Fe91      1.0  0.60769  0.80344  0.24333  1.0000
  S   S175      1.0  0.56540  0.79451  0.25417  1.0000
  S   S176      1.0  0.61949  0.79950  0.19866  1.0000
  Fe  Fe92      1.0  0.58515  0.82837  0.28503  1.0000
  S   S177      1.0  0.58040  0.86518  0.29490  1.0000
  Fe  Fe93      1.0  0.56659  0.76745  0.28782  1.0000
  S   S178      1.0  0.53102  0.72795  0.30374  1.0000
  S   S179      1.0  0.62730  0.83888  0.27220  1.0000
  S   S180      1.0  0.60721  0.77413  0.27537  1.0000
  C   C411      1.0  0.54104  0.51142  0.39685  1.0000
  S   S181      1.0  0.70356  0.83325  0.02906  1.0000
  H   H674      1.0  0.53676  0.95032  0.27962  1.0000
  S   S182      1.0  0.71144  0.89380  0.02102  1.0000
  Fe  Fe94      1.0  0.71366  0.86880  0.05624  1.0000
  S   S183      1.0  0.70107  0.87013  0.10130  1.0000
  H   H675      1.0  0.62579  0.78698  0.14280  1.0000
  S   S184      1.0  0.66375  0.83960  0.46250  1.0000
  H   H676      1.0  0.72730  0.61292  0.14322  1.0000
  H   H677      1.0  0.75585  0.62509  0.06035  1.0000
  H   H678      1.0  0.62965  0.91226  0.31945  1.0000
  H   H679      1.0  0.56317  0.51058  0.21797  1.0000
  S   S185      1.0  0.72702  0.53592  0.15560  1.0000
  C   C412      1.0  0.64317  0.52789  0.14346  1.0000
  H   H680      1.0  0.60114  0.72684  0.31260  1.0000
  H   H681      1.0  0.61426  0.55966  0.19197  1.0000
  C   C413      1.0  0.69489  0.53333  0.15145  1.0000
  C   C414      1.0  0.68960  0.55344  0.16067  1.0000
  C   C415      1.0  0.66396  0.55079  0.15654  1.0000
  C   C416      1.0  0.65389  0.91525  0.36814  1.0000
  H   H682      1.0  0.70515  0.57087  0.17125  1.0000
  H   H683      1.0  0.66012  0.56648  0.16376  1.0000
  H   H684      1.0  0.52260  0.82514  0.29448  1.0000
  H   H685      1.0  0.60614  0.77196  0.34934  1.0000
  C   C417      1.0  0.52745  0.69525  0.30715  1.0000
  H   H686      1.0  0.51232  0.89605  0.22731  1.0000
  H   H687      1.0  0.61450  0.85519  0.33684  1.0000
  H   H688      1.0  0.53909  0.91616  0.25093  1.0000
  N   N43       1.0  0.57262  0.54788  0.19751  1.0000
  C   C418      1.0  0.72187  0.82036  0.14205  1.0000
  H   H689      1.0  0.60854  0.58513  0.20702  1.0000
  H   H690      1.0  0.66237  0.87045  0.32951  1.0000
  N   N44       1.0  0.73912  0.61400  0.10111  1.0000
  S   S186      1.0  0.61137  0.52595  0.13884  1.0000
  C   C419      1.0  0.55092  0.86665  0.30364  1.0000
  H   H691      1.0  0.56098  0.70292  0.28138  1.0000
  C   C420      1.0  0.71166  0.59408  0.09194  1.0000
  Fe  Fe95      1.0  0.70473  0.85915  0.99326  1.0000
  C   C421      1.0  0.64542  0.90620  0.31957  1.0000
  H   H692      1.0  0.64007  0.89114  0.30278  1.0000
  H   H693      1.0  0.57651  0.57875  0.16920  1.0000
  H   H694      1.0  0.57350  0.90883  0.31443  1.0000
  H   H695      1.0  0.56222  0.57468  0.21839  1.0000
  C   C422      1.0  0.65954  0.82369  0.36936  1.0000
  C   C423      1.0  0.63723  0.82126  0.38357  1.0000
  C   C424      1.0  0.63894  0.82630  0.41204  1.0000
  C   C425      1.0  0.66295  0.83393  0.42660  1.0000
  C   C426      1.0  0.68530  0.83651  0.41234  1.0000
  C   C427      1.0  0.68353  0.83129  0.38388  1.0000
  H   H696      1.0  0.61862  0.81541  0.37274  1.0000
  H   H697      1.0  0.62154  0.82420  0.42294  1.0000
  H   H698      1.0  0.70387  0.84230  0.42328  1.0000
  H   H699      1.0  0.70090  0.83319  0.37307  1.0000
  C   C428      1.0  0.64203  0.81985  0.17174  1.0000
  C   C429      1.0  0.66135  0.84711  0.17526  1.0000
  C   C430      1.0  0.67883  0.86209  0.15343  1.0000
  C   C431      1.0  0.67731  0.85027  0.12758  1.0000
  C   C432      1.0  0.65803  0.82299  0.12405  1.0000
  C   C433      1.0  0.64065  0.80797  0.14594  1.0000
  H   H700      1.0  0.66283  0.85667  0.19484  1.0000
  H   H701      1.0  0.69365  0.88309  0.15660  1.0000
  H   H702      1.0  0.65632  0.81346  0.10442  1.0000
  H   H703      1.0  0.66921  0.87783  0.36540  1.0000
  C   C434      1.0  0.61698  0.73504  0.32880  1.0000
  H   H704      1.0  0.62732  0.72288  0.32863  1.0000
  H   H705      1.0  0.63205  0.75609  0.32266  1.0000
  C   C435      1.0  0.66741  0.88632  0.34536  1.0000
  C   C436      1.0  0.54105  0.66192  0.29716  1.0000
  C   C437      1.0  0.54491  0.68825  0.29420  1.0000
  H   H706      1.0  0.53425  0.54231  0.21007  1.0000
  C   C438      1.0  0.52508  0.84426  0.30140  1.0000
  C   C439      1.0  0.60106  0.56303  0.20637  1.0000
  H   H707      1.0  0.67377  0.93344  0.36408  1.0000
  H   H708      1.0  0.53333  0.91276  0.32628  1.0000
  H   H709      1.0  0.71407  0.83479  0.14130  1.0000
  H   H710      1.0  0.63766  0.73392  0.37840  1.0000
  C   C440      1.0  0.55564  0.55280  0.21687  1.0000
  H   H711      1.0  0.71216  0.58361  0.07287  1.0000
  S   S187      1.0  0.75817  0.88525  0.05033  1.0000
  C   C441      1.0  0.51577  0.52399  0.47589  1.0000
  C   C442      1.0  0.59179  0.75071  0.35511  1.0000
  H   H712      1.0  0.57524  0.74269  0.33968  1.0000
  C   C443      1.0  0.53085  0.89369  0.31926  1.0000
  H   H713      1.0  0.66496  0.92421  0.31407  1.0000
  C   C444      1.0  0.55363  0.89136  0.31260  1.0000
  H   H714      1.0  0.62039  0.86188  0.37299  1.0000
  H   H715      1.0  0.54871  0.54566  0.16236  1.0000
  H   H716      1.0  0.74435  0.58424  0.12331  1.0000
  H   H717      1.0  0.56280  0.51859  0.39369  1.0000
  N   N45       1.0  0.60537  0.73442  0.35608  1.0000
  S   S188      1.0  0.74870  0.87494  0.98410  1.0000
  C   C445      1.0  0.56371  0.51873  0.19701  1.0000
  C   C446      1.0  0.73761  0.62765  0.12626  1.0000
  H   H718      1.0  0.74140  0.64459  0.07333  1.0000
  H   H719      1.0  0.53700  0.52753  0.38920  1.0000
  H   H720      1.0  0.58238  0.55327  0.15446  1.0000
  C   C447      1.0  0.51848  0.94571  0.22772  1.0000
  H   H721      1.0  0.54086  0.95707  0.22882  1.0000
  C   C448      1.0  0.56999  0.55685  0.16968  1.0000
  H   H722      1.0  0.70085  0.57819  0.10783  1.0000
  H   H723      1.0  0.73680  0.82698  0.15909  1.0000
  H   H724      1.0  0.69626  0.78925  0.09860  1.0000
  C   C449      1.0  0.75442  0.59996  0.10713  1.0000
  H   H725      1.0  0.58289  0.75098  0.37533  1.0000
  C   C450      1.0  0.62715  0.74587  0.37682  1.0000
  Fe  Fe96      1.0  0.74790  0.85090  0.02134  1.0000
  H   H726      1.0  0.65502  0.90711  0.38868  1.0000
  H   H727      1.0  0.55608  0.54525  0.23790  1.0000
  H   H728      1.0  0.68761  0.90355  0.34020  1.0000
  H   H729      1.0  0.61928  0.74646  0.39755  1.0000
  H   H730      1.0  0.75463  0.80056  0.09769  1.0000
  C   C451      1.0  0.62030  0.87103  0.35276  1.0000
  H   H731      1.0  0.56872  0.69723  0.34832  1.0000
  S   S189      1.0  0.51576  0.60930  0.31533  1.0000
  H   H732      1.0  0.72961  0.78049  0.12291  1.0000
  H   H733      1.0  0.60405  0.87643  0.35312  1.0000
  C   C452      1.0  0.58556  0.70624  0.36346  1.0000
  H   H734      1.0  0.55447  0.65663  0.28671  1.0000
  C   C453      1.0  0.51975  0.64225  0.31305  1.0000
  C   C454      1.0  0.51691  0.90603  0.24776  1.0000
  H   H735      1.0  0.57649  0.70505  0.38398  1.0000
  H   H736      1.0  0.59495  0.69318  0.36399  1.0000
  H   H737      1.0  0.64260  0.76701  0.37144  1.0000
  S   S190      1.0  0.54557  0.51293  0.11018  1.0000
  H   H738      1.0  0.53715  0.50968  0.41942  1.0000
  N   N46       1.0  0.64678  0.89473  0.34646  1.0000
  H   H739      1.0  0.70447  0.82328  0.09133  1.0000
  H   H740      1.0  0.69930  0.60381  0.08765  1.0000
  H   H741      1.0  0.63860  0.92189  0.36953  1.0000
  H   H742      1.0  0.72169  0.80882  0.07351  1.0000
  H   H743      1.0  0.70460  0.80024  0.14757  1.0000
  H   H744      1.0  0.72639  0.63868  0.12254  1.0000
  H   H745      1.0  0.60372  0.55652  0.22720  1.0000
  H   H746      1.0  0.54326  0.50698  0.18807  1.0000
  Fe  Fe97      1.0  0.75554  0.90838  0.01375  1.0000
  N   N47       1.0  0.73402  0.81967  0.11549  1.0000
  H   H747      1.0  0.53265  0.54388  0.47182  1.0000
  C   C455      1.0  0.51454  0.93899  0.27683  1.0000
  C   C456      1.0  0.71320  0.80977  0.09378  1.0000
  C   C457      1.0  0.75293  0.63434  0.07922  1.0000
  H   H748      1.0  0.75656  0.58984  0.08858  1.0000
  H   H749      1.0  0.74772  0.86149  0.10674  1.0000
  H   H750      1.0  0.75472  0.80520  0.46982  1.0000
  C   C458      1.0  0.64843  0.50771  0.13438  1.0000
  H   H751      1.0  0.51262  0.93625  0.20704  1.0000
  H   H752      1.0  0.51157  0.96083  0.22910  1.0000
  C   C459      1.0  0.67416  0.51048  0.13832  1.0000
  H   H753      1.0  0.57722  0.51444  0.18421  1.0000
  C   C460      1.0  0.75566  0.84718  0.10838  1.0000
  C   C461      1.0  0.74541  0.80143  0.11757  1.0000
  H   H754      1.0  0.75832  0.50947  0.13636  1.0000
  H   H755      1.0  0.75812  0.64261  0.13382  1.0000
  Fe  Fe98      1.0  0.62646  0.82084  0.80382  1.0000
  S   S191      1.0  0.58299  0.79332  0.81564  1.0000
  S   S192      1.0  0.66275  0.84201  0.83246  1.0000
  Fe  Fe99      1.0  0.61534  0.81793  0.74160  1.0000
  S   S193      1.0  0.57117  0.79072  0.74970  1.0000
  S   S194      1.0  0.62622  0.83017  0.69590  1.0000
  Fe  Fe100     1.0  0.57422  0.81770  0.78470  1.0000
  S   S195      1.0  0.53742  0.82384  0.78519  1.0000
  Fe  Fe101     1.0  0.58243  0.76803  0.77984  1.0000
  S   S196      1.0  0.55808  0.72233  0.77239  1.0000
  S   S197      1.0  0.61769  0.84673  0.77473  1.0000
  S   S198      1.0  0.62665  0.79375  0.76996  1.0000
  H   H756      1.0  0.52209  0.59517  0.89705  1.0000
  S   S199      1.0  0.70994  0.82769  0.51623  1.0000
  H   H757      1.0  0.68146  0.76660  0.92781  1.0000
  S   S200      1.0  0.70086  0.87979  0.52793  1.0000
  Fe  Fe102     1.0  0.71315  0.85395  0.55244  1.0000
  S   S201      1.0  0.70257  0.83497  0.59602  1.0000
  H   H758      1.0  0.66909  0.81547  0.69167  1.0000
  S   S202      1.0  0.67019  0.83565  0.96307  1.0000
  H   H759      1.0  0.72535  0.76825  0.93384  1.0000
  H   H760      1.0  0.67989  0.79721  0.92798  1.0000
  C   C462      1.0  0.61350  0.55267  0.69537  1.0000
  C   C463      1.0  0.73544  0.78990  0.92761  1.0000
  S   S203      1.0  0.70979  0.55297  0.69291  1.0000
  H   H761      1.0  0.59197  0.55722  0.63134  1.0000
  H   H762      1.0  0.71527  0.77355  0.53322  1.0000
  N   N48       1.0  0.51198  0.59875  0.93872  1.0000
  C   C464      1.0  0.68198  0.53828  0.66956  1.0000
  C   C465      1.0  0.68525  0.54228  0.64113  1.0000
  C   C466      1.0  0.66257  0.53092  0.62354  1.0000
  C   C467      1.0  0.73344  0.83120  0.92671  1.0000
  H   H763      1.0  0.70524  0.55421  0.63262  1.0000
  H   H764      1.0  0.53651  0.67873  0.86433  1.0000
  H   H765      1.0  0.72230  0.84155  0.93345  1.0000
  H   H766      1.0  0.56992  0.98565  0.75917  1.0000
  C   C468      1.0  0.54368  0.69466  0.79602  1.0000
  H   H767      1.0  0.66545  0.53426  0.60159  1.0000
  C   C469      1.0  0.52024  0.64913  0.83196  1.0000
  H   H768      1.0  0.73539  0.83326  0.90395  1.0000
  C   C470      1.0  0.53436  0.67567  0.84234  1.0000
  C   C471      1.0  0.54601  0.69830  0.82454  1.0000
  H   H769      1.0  0.55757  0.71376  0.70905  1.0000
  C   C472      1.0  0.52936  0.66816  0.78565  1.0000
  H   H770      1.0  0.70313  0.80993  0.97215  1.0000
  H   H771      1.0  0.55706  0.71848  0.83288  1.0000
  C   C473      1.0  0.53003  0.84606  0.80415  1.0000
  C   C474      1.0  0.54599  0.86150  0.82612  1.0000
  C   C475      1.0  0.53863  0.87794  0.84122  1.0000
  C   C476      1.0  0.55415  0.93626  0.78050  1.0000
  H   H772      1.0  0.52809  0.78995  0.83340  1.0000
  H   H773      1.0  0.74840  0.76606  0.59592  1.0000
  H   H774      1.0  0.56386  0.86059  0.83169  1.0000
  H   H775      1.0  0.55103  0.88959  0.85834  1.0000
  H   H776      1.0  0.56071  0.52974  0.68337  1.0000
  C   C477      1.0  0.66367  0.84099  0.86894  1.0000
  C   C478      1.0  0.64207  0.82159  0.88437  1.0000
  C   C479      1.0  0.64426  0.82069  0.91320  1.0000
  C   C480      1.0  0.66791  0.83928  0.92698  1.0000
  C   C481      1.0  0.68930  0.85903  0.91161  1.0000
  C   C482      1.0  0.68727  0.85966  0.88274  1.0000
  H   H777      1.0  0.62383  0.80709  0.87404  1.0000
  H   H778      1.0  0.62756  0.80538  0.92490  1.0000
  H   H779      1.0  0.70744  0.87379  0.92190  1.0000
  H   H780      1.0  0.70402  0.87485  0.87099  1.0000
  C   C483      1.0  0.64854  0.83228  0.66886  1.0000
  C   C484      1.0  0.64678  0.84262  0.64301  1.0000
  C   C485      1.0  0.66331  0.84403  0.62070  1.0000
  C   C486      1.0  0.68177  0.83480  0.62374  1.0000
  C   C487      1.0  0.68342  0.82430  0.64956  1.0000
  C   C488      1.0  0.66715  0.82322  0.67197  1.0000
  H   H781      1.0  0.63259  0.84977  0.64020  1.0000
  H   H782      1.0  0.66163  0.85214  0.60111  1.0000
  H   H783      1.0  0.69764  0.81720  0.65236  1.0000
  H   H784      1.0  0.53479  0.97818  0.80929  1.0000
  N   N49       1.0  0.71930  0.80258  0.93545  1.0000
  H   H785      1.0  0.57090  0.55969  0.70327  1.0000
  Fe  Fe103     1.0  0.75521  0.57540  0.68342  1.0000
  N   N50       1.0  0.74963  0.78895  0.56019  1.0000
  H   H786      1.0  0.60270  0.53022  0.69698  1.0000
  C   C489      1.0  0.69263  0.78833  0.92197  1.0000
  C   C490      1.0  0.74709  0.59487  0.76310  1.0000
  H   H787      1.0  0.74336  0.77106  0.52002  1.0000
  H   H788      1.0  0.61535  0.60072  0.69354  1.0000
  H   H789      1.0  0.60640  0.59923  0.65788  1.0000
  N   N51       1.0  0.53953  0.95157  0.78155  1.0000
  N   N52       1.0  0.73825  0.57098  0.78107  1.0000
  H   H790      1.0  0.56430  0.72364  0.64628  1.0000
  H   H791      1.0  0.53719  0.98280  0.75884  1.0000
  H   H792      1.0  0.69442  0.78972  0.89916  1.0000
  C   C491      1.0  0.61551  0.59168  0.67335  1.0000
  C   C492      1.0  0.51536  0.51038  0.50050  1.0000
  S   S204      1.0  0.75704  0.88239  0.54404  1.0000
  C   C493      1.0  0.73764  0.78384  0.53240  1.0000
  H   H793      1.0  0.56212  0.55883  0.66763  1.0000
  H   H794      1.0  0.58521  0.71619  0.66822  1.0000
  H   H795      1.0  0.65289  0.51906  0.70198  1.0000
  Fe  Fe104     1.0  0.74473  0.90652  0.51702  1.0000
  H   H796      1.0  0.73568  0.59151  0.81690  1.0000
  H   H797      1.0  0.53648  0.72064  0.68667  1.0000
  H   H798      1.0  0.55017  0.63495  0.94372  1.0000
  H   H799      1.0  0.53183  0.51985  0.51497  1.0000
  H   H800      1.0  0.73877  0.79096  0.90500  1.0000
  H   H801      1.0  0.54346  0.96045  0.73823  1.0000
  C   C494      1.0  0.71573  0.80106  0.96560  1.0000
  H   H802      1.0  0.73539  0.81233  0.97639  1.0000
  H   H803      1.0  0.71939  0.79657  0.57749  1.0000
  C   C495      1.0  0.63631  0.51535  0.63402  1.0000
  H   H804      1.0  0.74565  0.74954  0.56369  1.0000
  H   H805      1.0  0.53343  0.59268  0.97191  1.0000
  C   C496      1.0  0.57245  0.55220  0.68263  1.0000
  H   H806      1.0  0.57631  0.94988  0.78175  1.0000
  H   H807      1.0  0.73172  0.54406  0.74736  1.0000
  H   H808      1.0  0.52968  0.74265  0.80624  1.0000
  H   H809      1.0  0.63478  0.55930  0.68982  1.0000
  Fe  Fe105     1.0  0.70014  0.85521  0.49109  1.0000
  H   H810      1.0  0.54971  0.92436  0.76121  1.0000
  C   C497      1.0  0.72303  0.57300  0.80456  1.0000
  H   H811      1.0  0.54349  0.59257  0.92253  1.0000
  H   H812      1.0  0.71753  0.75198  0.57669  1.0000
  H   H813      1.0  0.53272  0.76479  0.85102  1.0000
  H   H814      1.0  0.56740  0.98079  0.81020  1.0000
  N   N53       1.0  0.57898  0.74828  0.68244  1.0000
  C   C498      1.0  0.57530  0.77019  0.67062  1.0000
  C   C499      1.0  0.60328  0.76004  0.69998  1.0000
  C   C500      1.0  0.58226  0.73279  0.65998  1.0000
  C   C501      1.0  0.55521  0.73017  0.69920  1.0000
  H   H815      1.0  0.55719  0.76218  0.65720  1.0000
  H   H816      1.0  0.59305  0.78446  0.65811  1.0000
  H   H817      1.0  0.57297  0.78248  0.68700  1.0000
  H   H818      1.0  0.60627  0.74418  0.71013  1.0000
  H   H819      1.0  0.62170  0.77344  0.68797  1.0000
  H   H820      1.0  0.60189  0.77265  0.71650  1.0000
  C   C502      1.0  0.65570  0.52260  0.68007  1.0000
  H   H821      1.0  0.60008  0.74605  0.64703  1.0000
  C   C503      1.0  0.54551  0.96639  0.80782  1.0000
  H   H822      1.0  0.55213  0.74135  0.71620  1.0000
  H   H823      1.0  0.54831  0.92169  0.79796  1.0000
  S   S205      1.0  0.54401  0.50713  0.60093  1.0000
  H   H824      1.0  0.70574  0.77985  0.97318  1.0000
  H   H825      1.0  0.59030  0.52829  0.64789  1.0000
  C   C504      1.0  0.63303  0.51112  0.66245  1.0000
  H   H826      1.0  0.51488  0.51189  0.93246  1.0000
  H   H827      1.0  0.63692  0.59952  0.66740  1.0000
  H   H828      1.0  0.52732  0.66503  0.76367  1.0000
  Fe  Fe106     1.0  0.75315  0.85798  0.50644  1.0000
  C   C505      1.0  0.54797  0.97097  0.75840  1.0000
  N   N54       1.0  0.60072  0.56186  0.67474  1.0000
  H   H829      1.0  0.51010  0.56499  0.91730  1.0000
  H   H830      1.0  0.61348  0.56072  0.71616  1.0000
  C   C506      1.0  0.60138  0.55077  0.64755  1.0000
  H   H831      1.0  0.62236  0.55728  0.64090  1.0000
  C   C507      1.0  0.51773  0.64555  0.80345  1.0000
  H   H832      1.0  0.74460  0.80308  0.52093  1.0000
  H   H833      1.0  0.72968  0.59593  0.75421  1.0000
  H   H834      1.0  0.53909  0.95230  0.82574  1.0000
  C   C508      1.0  0.73987  0.76296  0.57479  1.0000
  H   H835      1.0  0.75400  0.84243  0.93576  1.0000
  H   H836      1.0  0.70498  0.57396  0.79748  1.0000
  C   C509      1.0  0.74167  0.80623  0.57553  1.0000
  H   H837      1.0  0.71361  0.52772  0.77809  1.0000
  H   H838      1.0  0.52440  0.76750  0.78877  1.0000
  H   H839      1.0  0.70292  0.54653  0.75665  1.0000
  H   H840      1.0  0.75559  0.80010  0.93773  1.0000
  C   C510      1.0  0.72084  0.54622  0.76524  1.0000
  H   H841      1.0  0.52857  0.63709  0.91809  1.0000
  H   H842      1.0  0.71601  0.55530  0.81859  1.0000
  C   C511      1.0  0.51031  0.93263  0.77956  1.0000
  C   C512      1.0  0.51539  0.87938  0.83451  1.0000
  C   C513      1.0  0.51266  0.58781  0.96615  1.0000
  C   C514      1.0  0.51723  0.76957  0.84321  1.0000
  H   H843      1.0  0.52149  0.63785  0.95396  1.0000
  C   C515      1.0  0.52883  0.62850  0.93871  1.0000
  C   C516      1.0  0.52241  0.58740  0.91801  1.0000
  C   C517      1.0  0.51405  0.74777  0.79979  1.0000
  H   H844      1.0  0.75025  0.81065  0.59666  1.0000
  H   H845      1.0  0.74864  0.82601  0.56501  1.0000
  H   H846      1.0  0.75628  0.55222  0.80506  1.0000
  H   H847      1.0  0.51467  0.98907  0.94452  1.0000
  S   S206      1.0  0.74310  0.88370  0.47880  1.0000
  Fe  Fe107     1.0  0.84328  0.14252  0.46224  1.0000
  H   H848      1.0  0.92691  0.40986  0.01452  1.0000
  S   S207      1.0  0.83020  0.16704  0.99270  1.0000
  Fe  Fe108     1.0  0.84991  0.13762  0.39921  1.0000
  S   S208      1.0  0.87923  0.12266  0.40763  1.0000
  S   S209      1.0  0.83195  0.13469  0.35563  1.0000
  Fe  Fe109     1.0  0.85036  0.09634  0.44089  1.0000
  H   H849      1.0  0.76709  0.04230  0.02806  1.0000
  Fe  Fe110     1.0  0.89785  0.15478  0.44054  1.0000
  S   S210      1.0  0.94155  0.18918  0.44607  1.0000
  S   S211      1.0  0.82049  0.10990  0.43114  1.0000
  S   S212      1.0  0.87028  0.17141  0.42985  1.0000
  Fe  Fe111     1.0  0.80129  0.23546  0.16520  1.0000
  S   S213      1.0  0.83393  0.22568  0.17486  1.0000
  S   S214      1.0  0.80598  0.27679  0.15451  1.0000
  N   N55       1.0  0.77989  0.07960  0.00610  1.0000
  S   S215      1.0  0.78599  0.16308  0.18493  1.0000
  Fe  Fe112     1.0  0.80811  0.20054  0.21034  1.0000
  S   S216      1.0  0.82743  0.20438  0.25304  1.0000
  Fe  Fe113     1.0  0.80976  0.18861  0.14891  1.0000
  S   S217      1.0  0.83252  0.17254  0.12397  1.0000
  H   H850      1.0  0.93382  0.38383  0.22522  1.0000
  S   S218      1.0  0.77826  0.19963  0.13690  1.0000
  Fe  Fe114     1.0  0.91328  0.48356  0.11573  1.0000
  Fe  Fe115     1.0  0.92061  0.43410  0.12514  1.0000
  S   S219      1.0  0.96414  0.45840  0.11311  1.0000
  S   S220      1.0  0.91210  0.39142  0.13623  1.0000
  C   C518      1.0  0.81563  0.00709  0.00061  1.0000
  C   C519      1.0  0.99491  0.21800  0.46157  1.0000
  Fe  Fe116     1.0  0.95145  0.47477  0.07742  1.0000
  H   H851      1.0  0.99493  0.23456  0.45058  1.0000
  S   S221      1.0  0.92288  0.46645  0.15347  1.0000
  S   S222      1.0  0.90756  0.44890  0.08849  1.0000
  C   C520      1.0  0.97582  0.43427  0.23077  1.0000
  H   H852      1.0  0.81243  0.08262  0.03099  1.0000
  C   C521      1.0  0.80873  0.08894  0.01051  1.0000
  H   H853      1.0  0.96380  0.42453  0.16214  1.0000
  H   H854      1.0  0.96233  0.50110  0.25928  1.0000
  H   H855      1.0  0.93390  0.38319  0.18836  1.0000
  C   C522      1.0  0.97147  0.17158  0.47693  1.0000
  C   C523      1.0  0.97935  0.50502  0.21883  1.0000
  H   H856      1.0  0.96377  0.42686  0.24999  1.0000
  N   N56       1.0  0.77419  0.48817  0.15947  1.0000
  H   H857      1.0  0.80856  0.48644  0.14407  1.0000
  C   C524      1.0  0.83578  0.30850  0.14962  1.0000
  C   C525      1.0  0.86152  0.31154  0.15210  1.0000
  C   C526      1.0  0.88455  0.33710  0.14806  1.0000
  C   C527      1.0  0.88220  0.35994  0.14153  1.0000
  C   C528      1.0  0.85651  0.35694  0.13894  1.0000
  C   C529      1.0  0.83347  0.33137  0.14299  1.0000
  H   H858      1.0  0.86364  0.29418  0.15711  1.0000
  H   H859      1.0  0.90430  0.33910  0.14995  1.0000
  H   H860      1.0  0.85432  0.37426  0.13390  1.0000
  H   H861      1.0  0.81366  0.32924  0.14102  1.0000
  H   H862      1.0  0.78186  0.11394  0.02648  1.0000
  H   H863      1.0  0.93515  0.41617  0.07603  1.0000
  H   H864      1.0  0.88630  0.38558  0.07870  1.0000
  H   H865      1.0  0.83717  0.04984  0.99130  1.0000
  H   H866      1.0  0.99611  0.23711  0.00419  1.0000
  H   H867      1.0  0.76834  0.06856  0.46236  1.0000
  C   C530      1.0  0.91601  0.36150  0.03541  1.0000
  C   C531      1.0  0.83111  0.15463  0.32738  1.0000
  C   C532      1.0  0.81583  0.14143  0.30381  1.0000
  C   C533      1.0  0.81439  0.15614  0.28094  1.0000
  C   C534      1.0  0.82824  0.18443  0.28126  1.0000
  C   C535      1.0  0.84357  0.19763  0.30474  1.0000
  C   C536      1.0  0.84501  0.18292  0.32760  1.0000
  H   H868      1.0  0.80505  0.11958  0.30328  1.0000
  H   H869      1.0  0.80267  0.14553  0.26310  1.0000
  H   H870      1.0  0.85445  0.21948  0.30534  1.0000
  H   H871      1.0  0.85688  0.19348  0.34542  1.0000
  C   C537      1.0  0.83158  0.16861  0.02919  1.0000
  C   C538      1.0  0.84734  0.16086  0.04462  1.0000
  C   C539      1.0  0.84735  0.16207  0.07361  1.0000
  C   C540      1.0  0.83175  0.17115  0.08745  1.0000
  C   C541      1.0  0.81590  0.17874  0.07199  1.0000
  C   C542      1.0  0.81579  0.17741  0.04306  1.0000
  H   H872      1.0  0.85974  0.15422  0.03427  1.0000
  H   H873      1.0  0.85975  0.15622  0.08535  1.0000
  H   H874      1.0  0.80380  0.18577  0.08231  1.0000
  H   H875      1.0  0.80353  0.18346  0.03133  1.0000
  H   H876      1.0  0.95545  0.41005  0.05266  1.0000
  C   C543      1.0  0.90909  0.39963  0.02834  1.0000
  C   C544      1.0  0.99790  0.49343  0.45521  1.0000
  S   S223      1.0  0.96313  0.46722  0.03408  1.0000
  N   N57       1.0  0.95896  0.42240  0.20605  1.0000
  H   H877      1.0  0.82682  0.00925  0.01930  1.0000
  H   H878      1.0  0.89100  0.38749  0.01540  1.0000
  C   C545      1.0  0.97583  0.43320  0.18118  1.0000
  C   C546      1.0  0.76397  0.46301  0.17574  1.0000
  C   C547      1.0  0.88898  0.37009  0.06745  1.0000
  C   C548      1.0  0.75871  0.18033  0.27832  1.0000
  H   H879      1.0  0.91894  0.34854  0.05067  1.0000
  H   H880      1.0  0.89800  0.34810  0.02285  1.0000
  H   H881      1.0  0.99256  0.42856  0.18106  1.0000
  C   C549      1.0  0.97991  0.50451  0.24778  1.0000
  Fe  Fe117     1.0  0.96572  0.49142  0.13918  1.0000
  H   H882      1.0  0.98532  0.45667  0.23069  1.0000
  H   H883      1.0  0.93383  0.37044  0.02153  1.0000
  S   S224      1.0  0.77712  0.21332  0.20271  1.0000
  H   H884      1.0  0.94032  0.38811  0.08203  1.0000
  H   H885      1.0  0.77904  0.46999  0.12279  1.0000
  N   N58       1.0  0.87129  0.17516  0.20510  1.0000
  C   C550      1.0  0.88076  0.17675  0.23372  1.0000
  C   C551      1.0  0.87770  0.20238  0.19561  1.0000
  C   C552      1.0  0.84187  0.15690  0.20399  1.0000
  C   C553      1.0  0.88466  0.16466  0.18696  1.0000
  H   H886      1.0  0.87591  0.15651  0.24176  1.0000
  H   H887      1.0  0.87108  0.18484  0.24775  1.0000
  H   H888      1.0  0.90292  0.19028  0.23537  1.0000
  H   H889      1.0  0.87049  0.20183  0.17416  1.0000
  H   H890      1.0  0.86807  0.21099  0.20900  1.0000
  H   H891      1.0  0.89976  0.21671  0.19588  1.0000
  H   H892      1.0  0.83619  0.13617  0.21110  1.0000
  H   H893      1.0  0.83407  0.15524  0.18262  1.0000
  H   H894      1.0  0.83118  0.16437  0.21730  1.0000
  H   H895      1.0  0.87776  0.16332  0.16523  1.0000
  H   H896      1.0  0.88017  0.14408  0.19340  1.0000
  H   H897      1.0  0.90692  0.17799  0.18714  1.0000
  H   H898      1.0  0.92459  0.42224  0.22415  1.0000
  H   H899      1.0  0.96276  0.45904  0.47250  1.0000
  H   H900      1.0  0.92392  0.42039  0.18732  1.0000
  H   H901      1.0  0.96248  0.38655  0.20715  1.0000
  H   H902      1.0  0.94580  0.45172  0.20404  1.0000
  C   C554      1.0  0.94679  0.39268  0.20679  1.0000
  H   H903      1.0  0.88156  0.21174  0.47689  1.0000
  H   H904      1.0  0.89103  0.35706  0.08333  1.0000
  C   C555      1.0  0.93736  0.42949  0.20541  1.0000
  C   C556      1.0  0.93703  0.39990  0.06567  1.0000
  C   C557      1.0  0.79075  0.48763  0.13647  1.0000
  C   C558      1.0  0.97107  0.19276  0.46265  1.0000
  H   H905      1.0  0.87013  0.35726  0.05579  1.0000
  H   H906      1.0  0.90677  0.41599  0.03812  1.0000
  H   H907      1.0  0.82089  0.11138  0.00944  1.0000
  C   C559      1.0  0.99667  0.22149  0.99213  1.0000
  C   C560      1.0  0.98226  0.48718  0.00516  1.0000
  S   S225      1.0  0.83456  0.05067  0.44055  1.0000
  N   N59       1.0  0.91275  0.38275  0.04920  1.0000
  H   H908      1.0  0.77334  0.08545  0.04845  1.0000
  H   H909      1.0  0.99413  0.48532  0.43459  1.0000
  C   C561      1.0  0.81535  0.02398  0.46404  1.0000
  S   S226      1.0  0.87132  0.12723  0.47438  1.0000
  H   H910      1.0  0.98500  0.45554  0.17970  1.0000
  C   C562      1.0  0.98620  0.47416  0.98249  1.0000
  H   H911      1.0  0.99237  0.42938  0.23198  1.0000
  S   S227      1.0  0.88170  0.49710  0.11161  1.0000
  H   H912      1.0  0.81651  0.08057  0.99463  1.0000
  H   H913      1.0  0.96152  0.50229  0.20819  1.0000
  C   C563      1.0  0.77048  0.09140  0.02741  1.0000
  C   C564      1.0  0.98010  0.47854  0.47683  1.0000
  H   H914      1.0  0.78083  0.46072  0.18431  1.0000
  H   H915      1.0  0.77208  0.17395  0.28866  1.0000
  H   H916      1.0  0.77073  0.19446  0.26149  1.0000
  C   C565      1.0  0.76445  0.04977  0.00774  1.0000
  H   H917      1.0  0.77114  0.04042  0.99172  1.0000
  H   H918      1.0  0.97793  0.45251  0.98311  1.0000
  H   H919      1.0  0.91397  0.21850  0.46472  1.0000
  H   H920      1.0  0.95443  0.20244  0.98110  1.0000
  C   C566      1.0  0.82163  0.03017  0.98466  1.0000
  H   H921      1.0  0.95338  0.15206  0.47800  1.0000
  C   C567      1.0  0.97294  0.20183  0.97904  1.0000
  H   H922      1.0  0.88765  0.07170  0.98292  1.0000
  C   C568      1.0  0.81765  0.02771  0.49253  1.0000
  C   C569      1.0  0.80760  0.02753  0.96019  1.0000
  H   H923      1.0  0.81577  0.10411  0.49956  1.0000
  Fe  Fe118     1.0  0.86167  0.15172  0.90069  1.0000
  S   S228      1.0  0.87743  0.12305  0.90865  1.0000
  S   S229      1.0  0.86437  0.16689  0.85582  1.0000
  Fe  Fe119     1.0  0.84376  0.10132  0.93898  1.0000
  S   S230      1.0  0.81500  0.05557  0.93835  1.0000
  Fe  Fe120     1.0  0.90119  0.15000  0.94395  1.0000
  S   S231      1.0  0.94363  0.15531  0.94741  1.0000
  S   S232      1.0  0.82621  0.12794  0.92854  1.0000
  S   S233      1.0  0.88720  0.17997  0.93475  1.0000
  Fe  Fe121     1.0  0.81780  0.23582  0.67527  1.0000
  S   S234      1.0  0.83309  0.20714  0.68570  1.0000
  S   S235      1.0  0.84995  0.28031  0.68125  1.0000
  C   C570      1.0  0.81104  0.44075  0.64934  1.0000
  H   H924      1.0  0.99799  0.16503  0.94961  1.0000
  Fe  Fe122     1.0  0.79638  0.18418  0.71214  1.0000
  S   S236      1.0  0.78974  0.16898  0.75713  1.0000
  Fe  Fe123     1.0  0.80753  0.18267  0.64991  1.0000
  S   S237      1.0  0.82563  0.16351  0.62228  1.0000
  S   S238      1.0  0.78259  0.21428  0.70387  1.0000
  S   S239      1.0  0.79400  0.21246  0.63810  1.0000
  Fe  Fe124     1.0  0.91818  0.48985  0.61188  1.0000
  Fe  Fe125     1.0  0.90735  0.43131  0.61854  1.0000
  S   S240      1.0  0.95064  0.44347  0.61023  1.0000
  S   S241      1.0  0.86980  0.38934  0.62180  1.0000
  Fe  Fe126     1.0  0.95985  0.47849  0.63862  1.0000
  H   H925      1.0  0.94340  0.50182  0.48894  1.0000
  Fe  Fe127     1.0  0.95028  0.47037  0.57595  1.0000
  S   S242      1.0  0.96058  0.46891  0.53010  1.0000
  S   S243      1.0  0.91643  0.46486  0.64868  1.0000
  S   S244      1.0  0.90619  0.45558  0.58244  1.0000
  H   H926      1.0  0.78051  0.07741  0.54933  1.0000
  Fe  Fe128     1.0  0.85247  0.15388  0.96322  1.0000
  H   H927      1.0  0.81021  0.07381  0.48290  1.0000
  H   H928      1.0  0.94031  0.09047  0.95144  1.0000
  H   H929      1.0  0.88097  0.07317  0.90688  1.0000
  C   C571      1.0  0.99752  0.18084  0.96139  1.0000
  C   C572      1.0  0.84321  0.44023  0.61773  1.0000
  H   H930      1.0  0.91275  0.18265  0.49556  1.0000
  H   H931      1.0  0.88332  0.02431  0.92850  1.0000
  C   C573      1.0  0.97315  0.18123  0.96369  1.0000
  H   H932      1.0  0.95139  0.47515  0.70912  1.0000
  C   C574      1.0  0.85549  0.31008  0.66342  1.0000
  C   C575      1.0  0.87953  0.33449  0.66825  1.0000
  C   C576      1.0  0.88454  0.35879  0.65528  1.0000
  C   C577      1.0  0.86536  0.35906  0.63754  1.0000
  C   C578      1.0  0.84130  0.33466  0.63277  1.0000
  C   C579      1.0  0.83644  0.31029  0.64544  1.0000
  H   H933      1.0  0.89443  0.33463  0.68208  1.0000
  H   H934      1.0  0.90311  0.37733  0.65923  1.0000
  H   H935      1.0  0.82630  0.33456  0.61910  1.0000
  H   H936      1.0  0.81784  0.29176  0.64153  1.0000
  H   H937      1.0  0.78031  0.10375  0.52918  1.0000
  C   C580      1.0  0.76376  0.04040  0.50840  1.0000
  H   H938      1.0  0.90766  0.06624  0.89950  1.0000
  S   S245      1.0  0.99513  0.49398  0.66873  1.0000
  C   C581      1.0  0.98439  0.48860  0.50391  1.0000
  N   N60       1.0  0.77641  0.07008  0.50572  1.0000
  H   H939      1.0  0.00395  0.47845  0.94209  1.0000
  C   C582      1.0  0.84282  0.16637  0.82860  1.0000
  C   C583      1.0  0.81554  0.15807  0.83253  1.0000
  C   C584      1.0  0.79972  0.15892  0.81047  1.0000
  C   C585      1.0  0.81075  0.16789  0.78406  1.0000
  C   C586      1.0  0.83792  0.17586  0.78002  1.0000
  C   C587      1.0  0.85380  0.17528  0.80214  1.0000
  H   H940      1.0  0.80668  0.15117  0.85263  1.0000
  H   H941      1.0  0.77875  0.15254  0.81398  1.0000
  H   H942      1.0  0.84669  0.18227  0.75982  1.0000
  H   H943      1.0  0.87476  0.18149  0.79869  1.0000
  C   C588      1.0  0.82345  0.15864  0.52775  1.0000
  C   C589      1.0  0.83679  0.14809  0.54326  1.0000
  C   C590      1.0  0.83732  0.14987  0.57216  1.0000
  C   C591      1.0  0.82455  0.16213  0.58587  1.0000
  C   C592      1.0  0.81127  0.17269  0.57035  1.0000
  C   C593      1.0  0.81068  0.17087  0.54145  1.0000
  H   H944      1.0  0.84651  0.13837  0.53317  1.0000
  H   H945      1.0  0.84757  0.14158  0.58406  1.0000
  H   H946      1.0  0.80134  0.18215  0.58064  1.0000
  H   H947      1.0  0.80022  0.17901  0.52966  1.0000
  C   C594      1.0  0.80569  0.08181  0.50180  1.0000
  N   N61       1.0  0.89827  0.06509  0.94246  1.0000
  H   H948      1.0  0.91692  0.47863  0.51090  1.0000
  H   H949      1.0  0.79742  0.43929  0.63222  1.0000
  N   N62       1.0  0.87119  0.25979  0.75502  1.0000
  C   C595      1.0  0.87871  0.28863  0.75517  1.0000
  C   C596      1.0  0.84179  0.24303  0.75117  1.0000
  C   C597      1.0  0.87898  0.25265  0.78144  1.0000
  C   C598      1.0  0.88517  0.25480  0.73221  1.0000
  H   H950      1.0  0.87309  0.29459  0.73543  1.0000
  H   H951      1.0  0.90078  0.30194  0.75791  1.0000
  H   H952      1.0  0.86830  0.29304  0.77195  1.0000
  H   H953      1.0  0.83041  0.24546  0.76837  1.0000
  H   H954      1.0  0.83517  0.24848  0.73181  1.0000
  H   H955      1.0  0.87383  0.23109  0.78183  1.0000
  H   H956      1.0  0.86835  0.25559  0.79908  1.0000
  H   H957      1.0  0.90100  0.26507  0.78522  1.0000
  H   H958      1.0  0.90741  0.26703  0.73438  1.0000
  H   H959      1.0  0.87976  0.26006  0.71196  1.0000
  C   C599      1.0  0.89552  0.22360  0.52984  1.0000
  H   H960      1.0  0.83263  0.42004  0.68457  1.0000
  H   H961      1.0  0.90152  0.24539  0.52938  1.0000
  H   H962      1.0  0.89955  0.21872  0.55092  1.0000
  H   H963      1.0  0.85772  0.03289  0.93584  1.0000
  H   H964      1.0  0.90444  0.18208  0.53118  1.0000
  H   H965      1.0  0.81925  0.38762  0.63143  1.0000
  H   H966      1.0  0.95231  0.48018  0.75996  1.0000
  N   N63       1.0  0.90998  0.21710  0.50873  1.0000
  S   S246      1.0  0.82157  0.15651  0.49136  1.0000
  C   C600      1.0  0.97098  0.48966  0.74854  1.0000
  H   H967      1.0  0.81518  0.07732  0.51955  1.0000
  C   C601      1.0  0.90132  0.18805  0.51027  1.0000
  H   H968      1.0  0.85462  0.43001  0.61150  1.0000
  C   C602      1.0  0.97037  0.48679  0.71971  1.0000
  H   H969      1.0  0.79518  0.38788  0.65475  1.0000
  S   S247      1.0  0.77178  0.15718  0.67714  1.0000
  H   H970      1.0  0.94667  0.25512  0.51255  1.0000
  H   H971      1.0  0.82452  0.46263  0.65349  1.0000
  C   C603      1.0  0.90361  0.22348  0.48117  1.0000
  H   H972      1.0  0.85648  0.41973  0.66093  1.0000
  H   H973      1.0  0.78759  0.11091  0.97670  1.0000
  H   H974      1.0  0.94489  0.22846  0.53399  1.0000
  H   H975      1.0  0.76732  0.03129  0.48976  1.0000
  H   H976      1.0  0.92351  0.06064  0.97245  1.0000
  H   H977      1.0  0.94179  0.50542  0.55044  1.0000
  C   C604      1.0  0.87775  0.03607  0.94259  1.0000
  H   H978      1.0  0.83066  0.43948  0.59988  1.0000
  H   H979      1.0  0.85882  0.45122  0.67043  1.0000
  H   H980      1.0  0.79848  0.43169  0.66799  1.0000
  H   H981      1.0  0.83145  0.04739  0.50081  1.0000
  H   H982      1.0  0.87962  0.17556  0.50510  1.0000
  C   C605      1.0  0.92458  0.06865  0.95130  1.0000
  C   C606      1.0  0.88999  0.07965  0.96158  1.0000
  C   C607      1.0  0.99545  0.17560  0.48967  1.0000
  H   H983      1.0  0.87966  0.23312  0.73126  1.0000
  H   H984      1.0  0.92411  0.49610  0.87780  1.0000
  H   H985      1.0  0.83552  0.22122  0.74998  1.0000
  C   C608      1.0  0.77614  0.08845  0.97863  1.0000
  H   H986      1.0  0.96204  0.48657  0.87331  1.0000
  H   H987      1.0  0.85812  0.46184  0.62153  1.0000
  H   H988      1.0  0.89498  0.49553  0.54332  1.0000
  C   C609      1.0  0.80802  0.39836  0.63664  1.0000
  C   C610      1.0  0.84439  0.42969  0.66562  1.0000
  H   H989      1.0  0.79455  0.39573  0.61895  1.0000
  N   N64       1.0  0.82664  0.42726  0.64235  1.0000
  H   H990      1.0  0.90508  0.10159  0.96222  1.0000
  C   C611      1.0  0.90069  0.07618  0.91442  1.0000
  C   C612      1.0  0.00100  0.48886  0.95909  1.0000
  H   H991      1.0  0.87047  0.07777  0.95519  1.0000
  Fe  Fe129     1.0  0.75954  0.18830  0.66771  1.0000
  H   H992      1.0  0.91531  0.09833  0.91384  1.0000
  H   H993      1.0  0.87498  0.02709  0.96354  1.0000
  H   H994      1.0  0.93161  0.05804  0.93730  1.0000
  C   C613      1.0  0.99439  0.49862  0.70471  1.0000
  H   H995      1.0  0.87330  0.21179  0.52662  1.0000
  H   H996      1.0  0.77207  0.03460  0.52627  1.0000
  H   H997      1.0  0.95063  0.22847  0.49772  1.0000
  C   C614      1.0  0.99554  0.50437  0.76265  1.0000
  C   C615      1.0  0.93933  0.23304  0.51351  1.0000
  C   C616      1.0  0.76494  0.07685  0.48169  1.0000
  H   H998      1.0  0.88036  0.50139  0.66010  1.0000
  C   C617      1.0  0.92429  0.49777  0.49900  1.0000
  H   H999      1.0  0.99548  0.15902  0.50053  1.0000
  C   C618      1.0  0.77143  0.08142  0.53087  1.0000
  H   H1000     1.0  0.00703  0.45976  0.75587  1.0000
  C   C619      1.0  0.97437  0.50526  0.88543  1.0000
  S   S248      1.0  0.86828  0.12607  0.97483  1.0000
  H   H1001     1.0  0.80520  0.00868  0.53240  1.0000
  H   H1002     1.0  0.78327  0.08008  0.96205  1.0000
  H   H1003     1.0  0.90934  0.49411  0.48254  1.0000
  H   H1004     1.0  0.97280  0.49962  0.90759  1.0000
  H   H1005     1.0  0.77441  0.09917  0.47892  1.0000
  H   H1006     1.0  0.91000  0.24528  0.47912  1.0000
  H   H1007     1.0  0.91323  0.67667  0.98260  1.0000
  H   H1008     1.0  0.83225  0.60864  0.29331  1.0000
  S   S249      1.0  0.80368  0.75572  0.45574  1.0000
  C   C620      1.0  0.79521  0.98117  0.99268  1.0000
  Fe  Fe130     1.0  0.82436  0.58601  0.18241  1.0000
  S   S250      1.0  0.83676  0.62882  0.19446  1.0000
  S   S251      1.0  0.85313  0.56954  0.18960  1.0000
  Fe  Fe131     1.0  0.79856  0.61139  0.21923  1.0000
  S   S252      1.0  0.79406  0.61810  0.26532  1.0000
  Fe  Fe132     1.0  0.81128  0.62779  0.15832  1.0000
  S   S253      1.0  0.82315  0.66418  0.13035  1.0000
  S   S254      1.0  0.78743  0.56845  0.20901  1.0000
  S   S255      1.0  0.80194  0.58644  0.14449  1.0000
  Fe  Fe133     1.0  0.85293  0.71402  0.40884  1.0000
  S   S256      1.0  0.86814  0.75803  0.41850  1.0000
  S   S257      1.0  0.85361  0.70434  0.36258  1.0000
  C   C621      1.0  0.78381  0.97574  0.47158  1.0000
  H   H1009     1.0  0.90709  0.64911  0.29817  1.0000
  S   S258      1.0  0.82859  0.66850  0.99945  1.0000
  Fe  Fe134     1.0  0.83664  0.74396  0.45180  1.0000
  H   H1010     1.0  0.85233  0.52509  0.10212  1.0000
  Fe  Fe135     1.0  0.89505  0.75457  0.45050  1.0000
  S   S259      1.0  0.94063  0.78388  0.44904  1.0000
  S   S260      1.0  0.81985  0.69996  0.44049  1.0000
  S   S261      1.0  0.88153  0.71156  0.43921  1.0000
  C   C622      1.0  0.94696  0.84924  0.97891  1.0000
  H   H1011     1.0  0.95407  0.71062  0.47570  1.0000
  S   S262      1.0  0.86976  0.74801  0.98130  1.0000
  C   C623      1.0  0.86229  0.55094  0.16696  1.0000
  C   C624      1.0  0.87152  0.64698  0.26074  1.0000
  H   H1012     1.0  0.86056  0.58281  0.26585  1.0000
  C   C625      1.0  0.94607  0.71927  0.01405  1.0000
  Fe  Fe136     1.0  0.84966  0.70102  0.47164  1.0000
  C   C626      1.0  0.85313  0.54547  0.13978  1.0000
  H   H1013     1.0  0.87397  0.60573  0.23726  1.0000
  S   S263      1.0  0.95657  0.51036  0.10256  1.0000
  H   H1014     1.0  0.94438  0.79335  0.99448  1.0000
  H   H1015     1.0  0.84099  0.55361  0.13165  1.0000
  C   C627      1.0  0.83578  0.68030  0.33589  1.0000
  C   C628      1.0  0.84409  0.68746  0.30837  1.0000
  C   C629      1.0  0.83116  0.66918  0.28651  1.0000
  C   C630      1.0  0.80996  0.64305  0.29180  1.0000
  C   C631      1.0  0.80159  0.63589  0.31930  1.0000
  C   C632      1.0  0.81428  0.65432  0.34114  1.0000
  H   H1016     1.0  0.86049  0.70753  0.30392  1.0000
  H   H1017     1.0  0.83758  0.67544  0.26558  1.0000
  H   H1018     1.0  0.78515  0.61586  0.32382  1.0000
  H   H1019     1.0  0.80751  0.64838  0.36207  1.0000
  C   C633      1.0  0.82644  0.66546  0.09405  1.0000
  C   C634      1.0  0.83273  0.68960  0.08018  1.0000
  C   C635      1.0  0.83375  0.69103  0.05124  1.0000
  C   C636      1.0  0.82830  0.66820  0.03587  1.0000
  C   C637      1.0  0.82230  0.64415  0.04974  1.0000
  C   C638      1.0  0.82152  0.64279  0.07867  1.0000
  H   H1020     1.0  0.83648  0.70723  0.09191  1.0000
  H   H1021     1.0  0.83828  0.70964  0.04085  1.0000
  H   H1022     1.0  0.81821  0.62643  0.03800  1.0000
  H   H1023     1.0  0.81695  0.62416  0.08902  1.0000
  H   H1024     1.0  0.98475  0.82614  0.02090  1.0000
  C   C639      1.0  0.89897  0.63170  0.28373  1.0000
  H   H1025     1.0  0.77321  0.65033  0.08603  1.0000
  H   H1026     1.0  0.80844  0.51071  0.18586  1.0000
  H   H1027     1.0  0.76512  0.84744  0.08829  1.0000
  H   H1028     1.0  0.88296  0.67329  0.03541  1.0000
  C   C640      1.0  0.85968  0.52938  0.12305  1.0000
  H   H1029     1.0  0.88588  0.54480  0.19786  1.0000
  H   H1030     1.0  0.91372  0.73501  0.03785  1.0000
  S   S264      1.0  0.76253  0.82034  0.02787  1.0000
  C   C641      1.0  0.90541  0.68439  0.03553  1.0000
  H   H1031     1.0  0.76137  0.80837  0.13361  1.0000
  C   C642      1.0  0.87857  0.54064  0.17691  1.0000
  C   C643      1.0  0.00316  0.50881  0.26198  1.0000
  H   H1032     1.0  0.79883  0.53095  0.16570  1.0000
  C   C644      1.0  0.90696  0.72465  0.01767  1.0000
  S   S265      1.0  0.77361  0.61325  0.18385  1.0000
  C   C645      1.0  0.77682  0.78389  0.46393  1.0000
  H   H1033     1.0  0.87875  0.66483  0.27449  1.0000
  C   C646      1.0  0.99390  0.80303  0.46168  1.0000
  H   H1034     1.0  0.89963  0.61470  0.29437  1.0000
  C   C647      1.0  0.00203  0.50967  0.20374  1.0000
  N   N65       1.0  0.91631  0.70499  0.01346  1.0000
  H   H1035     1.0  0.91488  0.74049  0.00137  1.0000
  Fe  Fe137     1.0  0.76560  0.57186  0.17201  1.0000
  C   C648      1.0  0.99324  0.51526  0.00386  1.0000
  H   H1036     1.0  0.95391  0.70508  0.01103  1.0000
  H   H1037     1.0  0.81720  0.93515  0.45370  1.0000
  H   H1038     1.0  0.76049  0.76726  0.45311  1.0000
  C   C649      1.0  0.79080  0.51158  0.17728  1.0000
  C   C650      1.0  0.79853  0.99783  0.45373  1.0000
  C   C651      1.0  0.96415  0.79727  0.98843  1.0000
  H   H1039     1.0  0.77900  0.51265  0.19489  1.0000
  C   C652      1.0  0.88536  0.52479  0.16008  1.0000
  H   H1040     1.0  0.85418  0.60010  0.31156  1.0000
  H   H1041     1.0  0.99049  0.52571  0.02097  1.0000
  N   N66       1.0  0.87131  0.62391  0.27497  1.0000
  H   H1042     1.0  0.91286  0.63769  0.26581  1.0000
  H   H1043     1.0  0.94801  0.86735  0.98871  1.0000
  C   C653      1.0  0.80119  0.78381  0.46789  1.0000
  C   C654      1.0  0.85360  0.61633  0.29935  1.0000
  H   H1044     1.0  0.93630  0.83201  0.99346  1.0000
  C   C655      1.0  0.81137  0.92806  0.47524  1.0000
  H   H1045     1.0  0.95410  0.72984  0.03396  1.0000
  H   H1046     1.0  0.86104  0.93726  0.46420  1.0000
  H   H1047     1.0  0.91207  0.66919  0.03311  1.0000
  H   H1048     1.0  0.77181  0.85536  0.12423  1.0000
  C   C656      1.0  0.98707  0.81574  0.00347  1.0000
  H   H1049     1.0  0.88457  0.71454  0.01716  1.0000
  H   H1050     1.0  0.85933  0.63393  0.31316  1.0000
  H   H1051     1.0  0.88465  0.65327  0.24222  1.0000
  S   S266      1.0  0.78944  0.95275  0.01311  1.0000
  S   S267      1.0  0.00254  0.51115  0.16733  1.0000
  H   H1052     1.0  0.84033  0.59449  0.24881  1.0000
  C   C657      1.0  0.79562  0.82792  0.98267  1.0000
  C   C658      1.0  0.87575  0.51885  0.13308  1.0000
  H   H1053     1.0  0.85096  0.64167  0.25374  1.0000
  C   C659      1.0  0.78245  0.81233  0.00583  1.0000
  H   H1054     1.0  0.99695  0.80531  0.43967  1.0000
  C   C660      1.0  0.86114  0.60072  0.25595  1.0000
  H   H1055     1.0  0.77537  0.77755  0.02991  1.0000
  H   H1056     1.0  0.85458  0.97733  0.47106  1.0000
  H   H1057     1.0  0.79684  0.99465  0.43173  1.0000
  H   H1058     1.0  0.80151  0.90561  0.47517  1.0000
  H   H1059     1.0  0.77499  0.61434  0.11468  1.0000
  H   H1060     1.0  0.80375  0.76576  0.00087  1.0000
  H   H1061     1.0  0.91201  0.69371  0.05621  1.0000
  C   C661      1.0  0.78543  0.78979  0.01207  1.0000
  C   C662      1.0  0.80152  0.78301  0.99561  1.0000
  C   C663      1.0  0.96769  0.79236  0.47227  1.0000
  H   H1062     1.0  0.77077  0.95584  0.46326  1.0000
  H   H1063     1.0  0.95477  0.73484  0.99746  1.0000
  H   H1064     1.0  0.89770  0.51683  0.16813  1.0000
  C   C664      1.0  0.90666  0.69173  0.98651  1.0000
  H   H1065     1.0  0.89389  0.67842  0.47778  1.0000
  C   C665      1.0  0.77347  0.80536  0.47347  1.0000
  H   H1066     1.0  0.88425  0.68095  0.98528  1.0000
  H   H1067     1.0  0.93323  0.72539  0.46882  1.0000
  S   S268      1.0  0.00277  0.50799  0.29841  1.0000
  C   C666      1.0  0.00789  0.52994  0.98039  1.0000
  H   H1068     1.0  0.79852  0.50619  0.12358  1.0000
  H   H1069     1.0  0.87305  0.54772  0.59423  1.0000
  H   H1070     1.0  0.95142  0.69015  0.52271  1.0000
  C   C667      1.0  0.90934  0.71599  0.51737  1.0000
  S   S269      1.0  0.77953  0.62004  0.69237  1.0000
  Fe  Fe138     1.0  0.80679  0.57052  0.67709  1.0000
  S   S270      1.0  0.83388  0.61467  0.68593  1.0000
  S   S271      1.0  0.82163  0.53975  0.67884  1.0000
  Fe  Fe139     1.0  0.80540  0.61057  0.71994  1.0000
  S   S272      1.0  0.82097  0.62506  0.76407  1.0000
  Fe  Fe140     1.0  0.80623  0.62112  0.65760  1.0000
  S   S273      1.0  0.82409  0.65926  0.63100  1.0000
  S   S274      1.0  0.77993  0.56593  0.71285  1.0000
  S   S275      1.0  0.78021  0.57690  0.64673  1.0000
  Fe  Fe141     1.0  0.84337  0.71563  0.90754  1.0000
  S   S276      1.0  0.87214  0.75994  0.91490  1.0000
  S   S277      1.0  0.82649  0.70216  0.86342  1.0000
  H   H1071     1.0  0.95395  0.71940  0.53932  1.0000
  C   C668      1.0  0.87856  0.52351  0.62500  1.0000
  S   S278      1.0  0.84122  0.66602  0.50070  1.0000
  Fe  Fe142     1.0  0.84545  0.75698  0.95049  1.0000
  C   C669      1.0  0.78707  0.00168  0.95238  1.0000
  Fe  Fe143     1.0  0.89396  0.74756  0.94520  1.0000
  S   S279      1.0  0.93912  0.76170  0.94485  1.0000
  S   S280      1.0  0.81561  0.71322  0.94193  1.0000
  S   S281      1.0  0.86711  0.70354  0.93538  1.0000
  S   S282      1.0  0.79088  0.85401  0.50115  1.0000
  S   S283      1.0  0.83700  0.79242  0.95208  1.0000
  H   H1072     1.0  0.86595  0.97962  0.50602  1.0000
  C   C670      1.0  0.84446  0.53498  0.65792  1.0000
  S   S284      1.0  0.86474  0.74400  0.48476  1.0000
  H   H1073     1.0  0.77418  0.56860  0.77421  1.0000
  C   C671      1.0  0.86819  0.53971  0.61491  1.0000
  H   H1074     1.0  0.92292  0.73612  0.52647  1.0000
  C   C672      1.0  0.85137  0.54557  0.63129  1.0000
  C   C673      1.0  0.00690  0.51392  0.50901  1.0000
  H   H1075     1.0  0.93553  0.50955  0.91165  1.0000
  H   H1076     1.0  0.84107  0.80579  0.48487  1.0000
  H   H1077     1.0  0.84336  0.55783  0.62313  1.0000
  C   C674      1.0  0.82525  0.68045  0.83616  1.0000
  C   C675      1.0  0.83683  0.66387  0.83831  1.0000
  C   C676      1.0  0.83518  0.64710  0.81614  1.0000
  C   C677      1.0  0.82199  0.64655  0.79141  1.0000
  C   C678      1.0  0.81045  0.66317  0.78918  1.0000
  C   C679      1.0  0.81207  0.67990  0.81137  1.0000
  H   H1078     1.0  0.84707  0.66397  0.85708  1.0000
  H   H1079     1.0  0.84432  0.63449  0.81821  1.0000
  H   H1080     1.0  0.80037  0.66327  0.77038  1.0000
  H   H1081     1.0  0.80305  0.69262  0.80937  1.0000
  C   C680      1.0  0.82780  0.66043  0.59462  1.0000
  C   C681      1.0  0.82389  0.63794  0.57950  1.0000
  C   C682      1.0  0.82787  0.63998  0.55078  1.0000
  C   C683      1.0  0.83543  0.66436  0.53675  1.0000
  C   C684      1.0  0.83920  0.68682  0.55183  1.0000
  C   C685      1.0  0.83556  0.68488  0.58061  1.0000
  H   H1082     1.0  0.81797  0.61901  0.58995  1.0000
  H   H1083     1.0  0.82490  0.62248  0.53934  1.0000
  H   H1084     1.0  0.84498  0.70570  0.54135  1.0000
  H   H1085     1.0  0.83862  0.70240  0.59206  1.0000
  C   C686      1.0  0.81510  0.79890  0.97276  1.0000
  H   H1086     1.0  0.77581  0.58850  0.80319  1.0000
  H   H1087     1.0  0.93748  0.86325  0.91315  1.0000
  H   H1088     1.0  0.87190  0.93958  0.49936  1.0000
  C   C687      1.0  0.93280  0.81969  0.93955  1.0000
  H   H1089     1.0  0.89380  0.83263  0.93615  1.0000
  H   H1090     1.0  0.96227  0.54764  0.84617  1.0000
  H   H1091     1.0  0.99570  0.51319  0.87950  1.0000
  S   S285      1.0  0.76933  0.95232  0.52368  1.0000
  C   C688      1.0  0.98370  0.55033  0.89640  1.0000
  H   H1092     1.0  0.88701  0.51056  0.51481  1.0000
  H   H1093     1.0  0.82239  0.83383  0.94882  1.0000
  H   H1094     1.0  0.95941  0.74003  0.49404  1.0000
  H   H1095     1.0  0.99537  0.77881  0.94102  1.0000
  C   C689      1.0  0.81192  0.82131  0.96637  1.0000
  H   H1096     1.0  0.93095  0.52967  0.88592  1.0000
  C   C690      1.0  0.94844  0.52428  0.53846  1.0000
  C   C691      1.0  0.78606  0.97951  0.50005  1.0000
  H   H1097     1.0  0.83519  0.84360  0.50216  1.0000
  H   H1098     1.0  0.92400  0.54320  0.48422  1.0000
  C   C692      1.0  0.98631  0.79728  0.51835  1.0000
  C   C693      1.0  0.99289  0.78895  0.95859  1.0000
  C   C694      1.0  0.82567  0.93105  0.52241  1.0000
  H   H1099     1.0  0.98289  0.54587  0.91883  1.0000
  H   H1100     1.0  0.77600  0.99934  0.93355  1.0000
  H   H1101     1.0  0.92302  0.81500  0.91895  1.0000
  H   H1102     1.0  0.91612  0.66597  0.48730  1.0000
  H   H1103     1.0  0.95138  0.54035  0.55329  1.0000
  C   C695      1.0  0.93859  0.54537  0.50056  1.0000
  N   N67       1.0  0.92850  0.52037  0.51703  1.0000
  C   C696      1.0  0.87214  0.51341  0.65184  1.0000
  H   H1104     1.0  0.90522  0.53066  0.54402  1.0000
  C   C697      1.0  0.85394  0.93103  0.48569  1.0000
  H   H1105     1.0  0.92150  0.80135  0.95255  1.0000
  C   C698      1.0  0.77929  0.80276  0.55791  1.0000
  H   H1106     1.0  0.78903  0.80593  0.57842  1.0000
  H   H1107     1.0  0.94411  0.78227  0.50921  1.0000
  H   H1108     1.0  0.92568  0.68655  0.54632  1.0000
  C   C699      1.0  0.96403  0.78968  0.50076  1.0000
  C   C700      1.0  0.78079  0.97866  0.96856  1.0000
  H   H1109     1.0  0.94810  0.88533  0.94238  1.0000
  H   H1110     1.0  0.83401  0.97708  0.49886  1.0000
  H   H1111     1.0  0.98330  0.79537  0.54038  1.0000
  H   H1112     1.0  0.78739  0.82298  0.54811  1.0000
  H   H1113     1.0  0.95353  0.82288  0.93688  1.0000
  H   H1114     1.0  0.84435  0.90855  0.48668  1.0000
  N   N68       1.0  0.83480  0.94003  0.49394  1.0000
  C   C701      1.0  0.85500  0.51892  0.66806  1.0000
  N   N69       1.0  0.87082  0.69573  0.71681  1.0000
  C   C702      1.0  0.88608  0.71830  0.69744  1.0000
  C   C703      1.0  0.87344  0.70630  0.74503  1.0000
  C   C704      1.0  0.88154  0.67688  0.71598  1.0000
  C   C705      1.0  0.84213  0.68135  0.70872  1.0000
  H   H1115     1.0  0.87873  0.73309  0.69779  1.0000
  H   H1116     1.0  0.88394  0.71085  0.67590  1.0000
  H   H1117     1.0  0.90794  0.72936  0.70252  1.0000
  H   H1118     1.0  0.86473  0.71989  0.74677  1.0000
  H   H1119     1.0  0.86276  0.68958  0.76015  1.0000
  H   H1120     1.0  0.89488  0.71785  0.75162  1.0000
  H   H1121     1.0  0.86992  0.65914  0.72976  1.0000
  H   H1122     1.0  0.90295  0.68683  0.72267  1.0000
  H   H1123     1.0  0.88050  0.66902  0.69483  1.0000
  H   H1124     1.0  0.83937  0.67267  0.68771  1.0000
  H   H1125     1.0  0.83344  0.69501  0.70860  1.0000
  H   H1126     1.0  0.82990  0.66443  0.72307  1.0000
  N   N70       1.0  0.92454  0.70316  0.50693  1.0000
  H   H1127     1.0  0.81093  0.93725  0.52920  1.0000
  H   H1128     1.0  0.84996  0.51081  0.68869  1.0000
  S   S286      1.0  0.89866  0.51577  0.60299  1.0000
  H   H1129     1.0  0.95800  0.55059  0.49033  1.0000
  H   H1130     1.0  0.96864  0.87180  0.93017  1.0000
  C   C706      1.0  0.90277  0.51401  0.53025  1.0000
  H   H1131     1.0  0.89366  0.81994  0.96985  1.0000
  H   H1132     1.0  0.84275  0.93976  0.53719  1.0000
  C   C707      1.0  0.90554  0.67648  0.49516  1.0000
  N   N71       1.0  0.96610  0.52570  0.88048  1.0000
  H   H1133     1.0  0.89049  0.66308  0.51070  1.0000
  H   H1134     1.0  0.96835  0.52967  0.52942  1.0000
  H   H1135     1.0  0.89453  0.70329  0.53339  1.0000
  H   H1136     1.0  0.94219  0.56281  0.51368  1.0000
  C   C708      1.0  0.96701  0.78412  0.96556  1.0000
  C   C709      1.0  0.76209  0.56996  0.79140  1.0000
  C   C710      1.0  0.81880  0.82698  0.49145  1.0000
  H   H1137     1.0  0.89768  0.71886  0.50065  1.0000
  H   H1138     1.0  0.00768  0.87252  0.48567  1.0000
  C   C711      1.0  0.80299  0.00563  0.51039  1.0000
  H   H1139     1.0  0.97800  0.56620  0.89345  1.0000
  N   N72       1.0  0.93309  0.84341  0.95202  1.0000
  C   C712      1.0  0.93957  0.69963  0.52984  1.0000
  C   C713      1.0  0.79438  0.82695  0.48751  1.0000
  C   C714      1.0  0.96846  0.53237  0.85082  1.0000
  H   H1140     1.0  0.79600  0.93350  0.48161  1.0000
  C   C715      1.0  0.90509  0.83761  0.95596  1.0000
  C   C716      1.0  0.94747  0.86701  0.93362  1.0000
  H   H1141     1.0  0.98953  0.54072  0.84347  1.0000
  C   C717      1.0  0.84800  0.96982  0.49239  1.0000
  H   H1142     1.0  0.78597  0.79102  0.54505  1.0000
  H   H1143     1.0  0.00517  0.55915  0.89021  1.0000
  H   H1144     1.0  0.81556  0.90865  0.52426  1.0000
  Fe  Fe144     1.0  0.84180  0.70442  0.97033  1.0000
  H   H1145     1.0  0.90429  0.85504  0.96512  1.0000
  H   H1146     1.0  0.95587  0.51415  0.83810  1.0000
  H   H1147     1.0  0.91449  0.70673  0.96937  1.0000
  H   H1148     1.0  0.76507  0.95891  0.96212  1.0000
  C   C718      1.0  0.93789  0.51477  0.88935  1.0000
  C   C719      1.0  0.94362  0.72049  0.48544  1.0000
  C   C720      1.0  0.82222  0.80556  0.48170  1.0000
  H   H1149     1.0  0.79377  0.84545  0.97768  1.0000
  H   H1150     1.0  0.76001  0.61395  0.77442  1.0000
  H   H1151     1.0  0.75915  0.59425  0.74560  1.0000
  S   S287      1.0  0.96239  0.50609  0.60377  1.0000
  S   S288      1.0  0.99548  0.50611  0.79908  1.0000
  H   H1152     1.0  0.96797  0.85302  0.97680  1.0000
