data_image0
_chemical_formula_structural       FeS2FeS2FeSFeS3FeS2FeS2FeSFeS3FeS2FeS2FeSFeS3FeS2FeS2FeSFeS3C6H4C6H4C6H4C6H4C6H4C6H4C6H4C6H4FeS2FeS2FeSFeS3FeS2FeS2FeSFeS3FeS2FeS2FeSFeS3FeS2FeS2FeSFeS3C6H4C6H4C6H4C6H4C6H4C6H4C6H4C6H4NC4H12NC4H12NC4H12NC4H12NC4H12NC4H12NC4H12NC4H12NC4H12NC4H12NC4H12NC4H12NC4H12NC4H12NC4H12NC4H12
_chemical_formula_sum              "Fe32 S64 C160 H256 N16"
_cell_length_a       19.588948111826348
_cell_length_b       19.374556359038664
_cell_length_c       37.920686626543784
_cell_angle_alpha    90.14423600811652
_cell_angle_beta     89.55781421588703
_cell_angle_gamma    90.05093125710297

_space_group_name_H-M_alt    "P 1"
_space_group_IT_number       1

loop_
  _space_group_symop_operation_xyz
  'x, y, z'

loop_
  _atom_site_type_symbol
  _atom_site_label
  _atom_site_symmetry_multiplicity
  _atom_site_fract_x
  _atom_site_fract_y
  _atom_site_fract_z
  _atom_site_occupancy
  Fe  Fe1       1.0  0.5634138320644566  0.25163057300892644  0.1395349006208163  1.0000
  S   S1        1.0  0.5600636119858949  0.20540205845365023  0.19378622364846798  1.0000
  S   S2        1.0  0.5385870550876418  0.3616489829860222  0.12732053856253323  1.0000
  Fe  Fe2       1.0  0.6021355991038188  0.11803151454448435  0.10428763342819532  1.0000
  S   S3        1.0  0.6032406172587848  0.05897828500587754  0.15497083807672032  1.0000
  S   S4        1.0  0.6305784284418037  0.06668193158970004  0.05335705754038591  1.0000
  Fe  Fe3       1.0  0.5072853900426773  0.11681492210739153  0.16762458190160182  1.0000
  S   S5        1.0  0.41270431182338085  0.06895012019137203  0.19059138647481505  1.0000
  Fe  Fe4       1.0  0.6561047179386805  0.15250784139406415  0.17651239118831694  1.0000
  S   S6        1.0  0.7451209350802402  0.13835760106922712  0.21217684584189728  1.0000
  S   S7        1.0  0.5010719980000791  0.16789585680827912  0.11479337592451512  1.0000
  S   S8        1.0  0.6644875948346999  0.206265441008431  0.12449782960721484  1.0000
  Fe  Fe5       1.0  0.895965078007863  0.22828113345264667  0.39129587514339004  1.0000
  S   S9        1.0  0.924054692713272  0.28197729279395023  0.44169161738600843  1.0000
  S   S10       1.0  0.9071014532212093  0.11522763556051085  0.38140280887640804  1.0000
  Fe  Fe6       1.0  0.8604712164064315  0.35950910338977593  0.3535553579831163  1.0000
  S   S11       1.0  0.8857596759960101  0.425939595269909  0.3999218055591466  1.0000
  S   S12       1.0  0.8213370619037619  0.4015299133026544  0.3026519439006895  1.0000
  Fe  Fe7       1.0  0.9765575616286106  0.3570603932836838  0.4061156760259235  1.0000
  S   S13       1.0  0.07781268901723837  0.40169089005487213  0.4207771972263739  1.0000
  Fe  Fe8       1.0  0.8307881367480345  0.34559606711817586  0.43148433135400976  1.0000
  S   S14       1.0  0.7646462486855079  0.3866322801775633  0.4751078547333005  1.0000
  S   S15       1.0  0.956767122983998  0.2984088732937167  0.3563706116696504  1.0000
  S   S16       1.0  0.7971518900051693  0.28447303432714444  0.3844293391015892  1.0000
  Fe  Fe9       1.0  0.1521963733094616  0.9363337710534224  0.062055538392967534  1.0000
  S   S17       1.0  0.08499392027361785  0.9887129721474953  0.10213210875526382  1.0000
  S   S18       1.0  0.2667469647470672  0.9440527872078514  0.057437372300682465  1.0000
  Fe  Fe10      1.0  0.023620137616928053  0.7535299727187279  0.47236941843425306  1.0000
  S   S19       1.0  0.9374203545932623  0.7495703978525743  0.5116050516935551  1.0000
  S   S20       1.0  0.027651378698569706  0.6857954587766526  0.42435351638371915  1.0000
  Fe  Fe11      1.0  0.9505743656804313  0.8641890462873323  0.5149514522471803  1.0000
  S   S21       1.0  0.8662288433977791  0.9420695538776946  0.5189645488208589  1.0000
  Fe  Fe12      1.0  0.03811327093979888  0.8840771388857096  0.10884937772907219  1.0000
  S   S22       1.0  0.024324197414542725  0.8351790107304196  0.16167759495002176  1.0000
  S   S23       1.0  0.02901078987089623  0.868872429394087  0.4716612574545294  1.0000
  S   S24       1.0  0.11031697670517837  0.8308434363971143  0.0719299598096028  1.0000
  Fe  Fe13      1.0  0.4351986357999682  0.5680771603200228  0.2697315329486631  1.0000
  S   S25       1.0  0.3622579029777122  0.5346121590297419  0.22769963892291334  1.0000
  S   S26       1.0  0.5398727274251047  0.5215488443889562  0.270725552744521  1.0000
  Fe  Fe14      1.0  0.3301755277651165  0.6603503696453659  0.3050272494357438  1.0000
  S   S27       1.0  0.24843495359158796  0.6334748179331515  0.26648411621374585  1.0000
  S   S28       1.0  0.30800657331242887  0.7416637714027667  0.3455037116678895  1.0000
  Fe  Fe15      1.0  0.28759004800549937  0.5256518483402801  0.2721508266819983  1.0000
  S   S29       1.0  0.22188176730518916  0.4312800021688298  0.27355533745480737  1.0000
  Fe  Fe16      1.0  0.33148850347549863  0.645563645669437  0.2262498544967601  1.0000
  S   S30       1.0  0.3184591472047531  0.7093111240517056  0.17766929850011717  1.0000
  S   S31       1.0  0.362488489015168  0.5509027821289965  0.31467609880207864  1.0000
  S   S32       1.0  0.4112064708518463  0.6803081835547519  0.2643197984980993  1.0000
  C   C1        1.0  0.10591120842964319  0.8029513985228635  0.17046041256262734  1.0000
  C   C2        1.0  0.16284937158236268  0.8379094891345176  0.15704925690011143  1.0000
  C   C3        1.0  0.22799347743671006  0.8092516449219819  0.15976508101589545  1.0000
  C   C4        1.0  0.23662421567364333  0.7453081830736569  0.1759945604526867  1.0000
  C   C5        1.0  0.1799416448865119  0.710552933448108  0.1900398279795357  1.0000
  C   C6        1.0  0.11451341064440412  0.7396999576346088  0.18755711133396397  1.0000
  H   H1        1.0  0.15647718168075797  0.8868480009468549  0.14406339650957128  1.0000
  H   H2        1.0  0.27150671428314643  0.8367284465272737  0.14912022077678658  1.0000
  H   H3        1.0  0.1859025761659866  0.6599603014927503  0.20141755737316328  1.0000
  H   H4        1.0  0.07038261403202917  0.7119414449831556  0.1973696630893426  1.0000
  C   C7        1.0  0.10576215146495449  0.700896905276638  0.4026211868479084  1.0000
  C   C8        1.0  0.14703140295400477  0.7565957696720658  0.4125252740788189  1.0000
  C   C9        1.0  0.20905821102026143  0.7689981838771727  0.39491564849778305  1.0000
  C   C10       1.0  0.2304788591669852  0.725262510858372  0.3676104711850145  1.0000
  C   C11       1.0  0.18967984633643978  0.6689904081009632  0.3580595677552503  1.0000
  C   C12       1.0  0.1272977648408653  0.6569292016201901  0.3754272541636138  1.0000
  H   H5        1.0  0.13137927515210682  0.7903775008954681  0.43373127830905295  1.0000
  H   H6        1.0  0.24064101455377002  0.8122107977804757  0.4026817550221766  1.0000
  H   H7        1.0  0.20641971701551265  0.6344590971819342  0.3375260957417101  1.0000
  H   H8        1.0  0.09641516688936691  0.612955274078867  0.36824943390251574  1.0000
  C   C13       1.0  0.8839393740870101  0.06615537280432071  0.41813414062494697  1.0000
  C   C14       1.0  0.8617927892236263  0.09834549586783381  0.4492277113657205  1.0000
  C   C15       1.0  0.8532733463550511  0.05952867299286457  0.48004630257940434  1.0000
  C   C16       1.0  0.8659727591218241  0.988487837895755  0.47956384635791455  1.0000
  C   C17       1.0  0.8844105353964323  0.9558584678004434  0.4480187227029017  1.0000
  C   C18       1.0  0.8935190141278009  0.9947159705166633  0.4172930468322246  1.0000
  H   H9        1.0  0.8530708114942304  0.153315797373617  0.4497721324603628  1.0000
  H   H10       1.0  0.8401785732670436  0.08511039787049834  0.5044606087576083  1.0000
  H   H11       1.0  0.8925096010654349  0.9006610700938991  0.44736452241993346  1.0000
  H   H12       1.0  0.9098841262822221  0.9696605776647813  0.39312307230388704  1.0000
  C   C19       1.0  0.12860309069576892  0.4041821444643048  0.3826904457944692  1.0000
  C   C20       1.0  0.1676757939905964  0.4628104738633127  0.3752444747569385  1.0000
  C   C21       1.0  0.199007132366251  0.4698560753279738  0.34210910470475636  1.0000
  C   C22       1.0  0.19128403996437937  0.4184189135423964  0.3165056812431058  1.0000
  C   C23       1.0  0.15517838772882042  0.35824992025602764  0.32462251769987954  1.0000
  C   C24       1.0  0.12433114099034825  0.35096465109486574  0.35783025057897594  1.0000
  H   H13       1.0  0.17118730732385878  0.5041489614279215  0.3944231559978252  1.0000
  H   H14       1.0  0.2268513281886202  0.5163141855032396  0.33601606522904637  1.0000
  H   H15       1.0  0.14984114646410318  0.317886958008019  0.3050637918147335  1.0000
  H   H16       1.0  0.09700958776679669  0.3041875627932715  0.3641542414970035  1.0000
  C   C25       1.0  0.6127661000671346  0.11768798119839617  0.016459767016296256  1.0000
  C   C26       1.0  0.6206014890526766  0.23660809571686392  0.4723288909026736  1.0000
  C   C27       1.0  0.6788951562091963  0.2761538685549092  0.4647934764309763  1.0000
  C   C28       1.0  0.6928819864262793  0.3354927656387893  0.48455040853549647  1.0000
  C   C29       1.0  0.5594330514275498  0.21782737774251434  0.9898301840467526  1.0000
  C   C30       1.0  0.5739454681127588  0.17806769855080584  0.019738190748664453  1.0000
  H   H17       1.0  0.6098767588436028  0.1907270908436598  0.45698294029977055  1.0000
  H   H18       1.0  0.7129755354981254  0.2603079006692499  0.4438566875466833  1.0000
  H   H19       1.0  0.5295416575579694  0.2645597297684375  0.9924029088311475  1.0000
  H   H20       1.0  0.5551135064214407  0.19430459955593676  0.045256480735227304  1.0000
  C   C31       1.0  0.7659592618225608  0.21253987008944297  0.23643911292787237  1.0000
  C   C32       1.0  0.8039129993505648  0.20546957282519246  0.26723202522860673  1.0000
  C   C33       1.0  0.820614307033514  0.2636035011967304  0.2873490995941848  1.0000
  C   C34       1.0  0.8006354252857735  0.3294536924121485  0.2765201508621723  1.0000
  C   C35       1.0  0.7633675749501961  0.33690903906278313  0.24536260737678117  1.0000
  C   C36       1.0  0.7457583134952908  0.2782906554054212  0.22538341819597993  1.0000
  H   H21       1.0  0.819659855585942  0.1547576665730943  0.27591639603827933  1.0000
  H   H22       1.0  0.8491392997643069  0.2568285983425444  0.3112520006686882  1.0000
  H   H23       1.0  0.7477574395782879  0.38769141948548924  0.2367893960806637  1.0000
  H   H24       1.0  0.717502145160502  0.2838889563170457  0.20123047954030848  1.0000
  C   C37       1.0  0.37267141097432044  0.02665401039849513  0.15556295780772092  1.0000
  C   C38       1.0  0.41111764444218696  0.004039566353794877  0.12651931742910663  1.0000
  C   C39       1.0  0.3784461675932036  0.9755037316870377  0.09713900072841869  1.0000
  C   C40       1.0  0.3071450889602564  0.9714344463958867  0.09628517621981161  1.0000
  C   C41       1.0  0.2691537487457107  0.991856130646235  0.1258705395682495  1.0000
  C   C42       1.0  0.301792963105013  0.01897598518197885  0.1555955438644428  1.0000
  H   H25       1.0  0.4660941277562875  0.008991989430919833  0.12654577303133904  1.0000
  H   H26       1.0  0.4085731814394615  0.958375046089305  0.07479280481964382  1.0000
  H   H27       1.0  0.2145586659716793  0.9885751141237513  0.12568775554747488  1.0000
  H   H28       1.0  0.27179754245839366  0.03683566270325156  0.17785985885505362  1.0000
  C   C43       1.0  0.5506684035416693  0.41249422730203145  0.164959642261725  1.0000
  C   C44       1.0  0.5193422493851318  0.4770762115862015  0.16759245617726293  1.0000
  C   C45       1.0  0.5208253673139365  0.5134070597098467  0.19958047445449384  1.0000
  C   C46       1.0  0.5526653360635664  0.48470665876933905  0.22901035579081536  1.0000
  C   C47       1.0  0.5880128035490204  0.42239101866733664  0.22562616682446  1.0000
  C   C48       1.0  0.587126230905025  0.38650118448616105  0.1935280254450982  1.0000
  H   H29       1.0  0.4920954709069693  0.4979983862384651  0.1453427568075274  1.0000
  H   H30       1.0  0.4960065780412148  0.5630767593670117  0.2016970954729632  1.0000
  H   H31       1.0  0.6136687424296894  0.4003005978022794  0.24802829153262138  1.0000
  H   H32       1.0  0.6136943019672181  0.3381536757356443  0.1910850999376412  1.0000
  Fe  Fe17      1.0  0.4512492764311181  0.3048245934308481  0.6315885732885378  1.0000
  S   S33       1.0  0.4254389276236355  0.21444734753604044  0.6659614102717345  1.0000
  S   S34       1.0  0.4520237845893456  0.4113187396786225  0.6550701336322259  1.0000
  Fe  Fe18      1.0  0.47384234942036196  0.21516443805956428  0.5670663656473898  1.0000
  S   S35       1.0  0.44889624638331443  0.11766484098811048  0.5963087255562253  1.0000
  S   S36       1.0  0.5068030176340511  0.2031576927941247  0.5106280943935008  1.0000
  Fe  Fe19      1.0  0.3636628806847936  0.18010592725932972  0.6198014502093065  1.0000
  S   S37       1.0  0.25791107185955003  0.13959962928840053  0.6284991712750518  1.0000
  Fe  Fe20      1.0  0.5129623081499793  0.1625820631143624  0.6390451402454059  1.0000
  S   S38       1.0  0.5819368152583707  0.09623083101123697  0.6713249501085986  1.0000
  S   S39       1.0  0.38282854791037046  0.2741721828139276  0.5870610116078346  1.0000
  S   S40       1.0  0.5448727771297697  0.2557424873341401  0.6081763968283382  1.0000
  Fe  Fe21      1.0  0.798097200828966  0.16424047244644058  0.8793469337192796  1.0000
  S   S41       1.0  0.7634793637178894  0.23248240813650198  0.9234981886158272  1.0000
  S   S42       1.0  0.844123697011533  0.06221479452929635  0.8929600880389341  1.0000
  Fe  Fe22      1.0  0.7548980021000525  0.26543626993241753  0.8240637131947757  1.0000
  S   S43       1.0  0.7151233966009775  0.3426509467013092  0.8633947464712981  1.0000
  S   S44       1.0  0.7557786640521784  0.29538142435526726  0.7670197230004214  1.0000
  Fe  Fe23      1.0  0.8108874082306939  0.3182245121701131  0.8927063168460966  1.0000
  S   S45       1.0  0.8775513162379631  0.39543639525206764  0.9201219952085169  1.0000
  Fe  Fe24      1.0  0.6712530344952071  0.25019989350585753  0.8906478347522968  1.0000
  S   S46       1.0  0.5715385103192102  0.24996276597304654  0.9197406865705212  1.0000
  S   S47       1.0  0.8544990849731753  0.24831894368339502  0.851247538011561  1.0000
  S   S48       1.0  0.7013117691426377  0.17463071997854773  0.8486213882297822  1.0000
  Fe  Fe25      1.0  0.10483569213300092  0.8567418696586885  0.5149863446470665  1.0000
  S   S49       1.0  0.026880706970654256  0.8610785469711376  0.5584829665974782  1.0000
  S   S50       1.0  0.20119618436645056  0.9188830928858607  0.5102557447830214  1.0000
  Fe  Fe26      1.0  0.03461003184495115  0.8558864952587066  0.030439848405709347  1.0000
  S   S51       1.0  0.9571374449646487  0.898337397501057  0.06822823475576434  1.0000
  S   S52       1.0  0.007096498175363177  0.7776618933189937  0.9897927458793121  1.0000
  Fe  Fe27      1.0  0.010678321364352428  0.9987791073687347  0.05800651956977876  1.0000
  S   S53       1.0  0.9532279226077686  0.09620579562007836  0.04798083571233103  1.0000
  Fe  Fe28      1.0  0.02128757525379399  0.7465803120384001  0.5513828961631477  1.0000
  S   S54       1.0  0.01626027607416347  0.6741776077445147  0.5970260220224004  1.0000
  S   S55       1.0  0.0823013940364119  0.9573665901869063  0.016719876069371864  1.0000
  S   S56       1.0  0.1066175656398698  0.7412788078601502  0.5120619116381625  1.0000
  Fe  Fe29      1.0  0.212443727798916  0.5448676477965334  0.7920366963427721  1.0000
  S   S57       1.0  0.13550871560932642  0.593767342953136  0.7571253186021789  1.0000
  S   S58       1.0  0.23614147484861422  0.4348522687987234  0.778501173099061  1.0000
  Fe  Fe30      1.0  0.21671415802018668  0.668022394998931  0.8410050617977957  1.0000
  S   S59       1.0  0.140197453250404  0.7282926574749525  0.8099824709216509  1.0000
  S   S60       1.0  0.25851000011382796  0.7173891269351353  0.8899446139181201  1.0000
  Fe  Fe31      1.0  0.08422059510253987  0.6277923661687385  0.8071532289526056  1.0000
  S   S61       1.0  0.9699814076107294  0.6229591337817153  0.8111767497119496  1.0000
  Fe  Fe32      1.0  0.19827214933483894  0.6898495251749188  0.7627952970556885  1.0000
  S   S62       1.0  0.2226727630744212  0.7565127370440538  0.7156843436594663  1.0000
  S   S63       1.0  0.15586202572149177  0.5695927535910249  0.8418046203634274  1.0000
  S   S64       1.0  0.28064776149228243  0.6381331445197413  0.7939564376077016  1.0000
  C   C49       1.0  0.06849879672976367  0.7068423258939666  0.6303791729185305  1.0000
  C   C50       1.0  0.12690805711376085  0.7453217303199545  0.6218992482352856  1.0000
  C   C51       1.0  0.17297540126288635  0.7639599874724818  0.648462167174376  1.0000
  C   C52       1.0  0.15957229971324915  0.7456423666334036  0.6835495100339858  1.0000
  C   C53       1.0  0.0985319623215577  0.7121099458189046  0.6921560061288515  1.0000
  C   C54       1.0  0.053929275370612  0.6910479471072585  0.6655493307514804  1.0000
  H   H33       1.0  0.13804235387749664  0.7581586671879963  0.5947046870233075  1.0000
  H   H34       1.0  0.21979594742826647  0.7904523441990366  0.6416055055721587  1.0000
  H   H35       1.0  0.08565210994162409  0.7020582159628905  0.7193442888484267  1.0000
  H   H36       1.0  0.007897284141085594  0.6629135759540751  0.6722740098258401  1.0000
  C   C55       1.0  0.07911661072658906  0.7572694470390621  0.9643543391172369  1.0000
  C   C56       1.0  0.14126521504552203  0.7913403724968254  0.9697627237434469  1.0000
  C   C57       1.0  0.19712589986038576  0.7781678910010816  0.9473243031952941  1.0000
  C   C58       1.0  0.19027531182780946  0.7319326378171306  0.9191596761293124  1.0000
  C   C59       1.0  0.1281070071528847  0.698153497031659  0.9139705414994594  1.0000
  C   C60       1.0  0.07306710226509683  0.7097114839387813  0.9368580812865144  1.0000
  H   H37       1.0  0.14604560326130134  0.8285366031652833  0.9908343438942031  1.0000
  H   H38       1.0  0.24491191821687433  0.805036827473712  0.9511636514783671  1.0000
  H   H39       1.0  0.12216544893523484  0.6629313349840789  0.8923422462897196  1.0000
  H   H40       1.0  0.02556484584478591  0.6823742756104423  0.9328535538659306  1.0000
  C   C61       1.0  0.8774855092769407  0.07111189755091218  0.9354362937927047  1.0000
  C   C62       1.0  0.8796587397315452  0.014182546535122409  0.9579516809284511  1.0000
  C   C63       1.0  0.9031742514790392  0.022026535403634417  0.9925235012759884  1.0000
  C   C64       1.0  0.9238351408604365  0.08693463095118892  0.004744219558046714  1.0000
  C   C65       1.0  0.922892409449416  0.14363023766931615  0.9820509626195711  1.0000
  C   C66       1.0  0.8999913223170848  0.13564564608706497  0.947348163039839  1.0000
  H   H41       1.0  0.8616178470732357  0.9644429119628326  0.9490186200324094  1.0000
  H   H42       1.0  0.9039893685819929  0.9779496768818768  0.009856784088178472  1.0000
  H   H43       1.0  0.9414935757556921  0.1931951392689779  0.9909381532774281  1.0000
  H   H44       1.0  0.9008055510980455  0.17925381204070834  0.9296162112985368  1.0000
  C   C67       1.0  0.9001320579527858  0.4631093094892409  0.8916323326544718  1.0000
  C   C68       1.0  0.8611480783621689  0.47650937009404337  0.8616905843842323  1.0000
  C   C69       1.0  0.8808055499429007  0.5286597452569329  0.8381934274085584  1.0000
  C   C70       1.0  0.9410177736735492  0.5658210032758697  0.8437997328441618  1.0000
  C   C71       1.0  0.9793798247245722  0.5536147496832791  0.8741134761770677  1.0000
  C   C72       1.0  0.9585437244452003  0.5027127501667787  0.8982154573201074  1.0000
  H   H45       1.0  0.8156889641338033  0.4468704061378138  0.8566034306040061  1.0000
  H   H46       1.0  0.8505285783257036  0.5384886462622581  0.8149899879251868  1.0000
  H   H47       1.0  0.025114839014714674  0.5831427923586999  0.8790048408717601  1.0000
  H   H48       1.0  0.9886210683781339  0.49288388757920043  0.9214882759806047  1.0000
  C   C73       1.0  0.5770916782909292  0.2553897500442464  0.5001807808196858  1.0000
  C   C74       1.0  0.6383554131366984  0.09805806753089286  0.9834039269439551  1.0000
  C   C75       1.0  0.6254858437423793  0.13878811482755848  0.9537049587304921  1.0000
  C   C76       1.0  0.5856545563687032  0.19844145857626957  0.9568314503691124  1.0000
  C   C77       1.0  0.6489301864289138  0.35463799858040207  0.5121514372731839  1.0000
  C   C78       1.0  0.5912668016076869  0.3144550430745709  0.5200763511487159  1.0000
  H   H49       1.0  0.66918477662317  0.05192356746889071  0.9807947696223285  1.0000
  H   H50       1.0  0.6461794095983256  0.1236901050964676  0.9282803040535873  1.0000
  H   H51       1.0  0.6593820788074983  0.4006575143063212  0.5274307856287134  1.0000
  H   H52       1.0  0.5571186141790658  0.3300028845335763  0.5411586215995254  1.0000
  C   C79       1.0  0.6360449410345251  0.14856515577166762  0.6966682421866464  1.0000
  C   C80       1.0  0.6604975737664108  0.1251286829451259  0.7290787408410404  1.0000
  C   C81       1.0  0.6992319476228275  0.16922498856396537  0.7505521110618983  1.0000
  C   C82       1.0  0.714055631099542  0.23645339319164083  0.7394331987880001  1.0000
  C   C83       1.0  0.6921937798181882  0.2586431747153186  0.7063874613405347  1.0000
  C   C84       1.0  0.6529288436067981  0.2149953524156638  0.6852165019293199  1.0000
  H   H53       1.0  0.6483760125261323  0.07346512049872957  0.737936465928691  1.0000
  H   H54       1.0  0.7178723625267943  0.15093931226354962  0.7755297455928402  1.0000
  H   H55       1.0  0.704076209656578  0.31036351710737575  0.6975005297195336  1.0000
  H   H56       1.0  0.6357732780019285  0.23326627275947764  0.6601270358276061  1.0000
  C   C85       1.0  0.23740312284714657  0.08338026302018142  0.5940605221998693  1.0000
  C   C86       1.0  0.27961842442635143  0.07931715860140853  0.5642549682692795  1.0000
  C   C87       1.0  0.2680521635870295  0.028538333537752036  0.5386718932373554  1.0000
  C   C88       1.0  0.2134756482054852  0.9825165253782758  0.5424902284092176  1.0000
  C   C89       1.0  0.16982991649441193  0.9881983950357499  0.5717064012309555  1.0000
  C   C90       1.0  0.1816945688612097  0.03869290191220465  0.5974898367826473  1.0000
  H   H57       1.0  0.3214827896615034  0.11504238461363636  0.5609044669977756  1.0000
  H   H58       1.0  0.301708960321446  0.024753975613704737  0.5159692769591108  1.0000
  H   H59       1.0  0.12797185688440638  0.9528442059432256  0.5750197205261961  1.0000
  H   H60       1.0  0.14893247275874044  0.04169694704284055  0.6205551802590387  1.0000
  C   C91       1.0  0.3913261182067335  0.418522469604468  0.6889779999494959  1.0000
  C   C92       1.0  0.39071447330843556  0.47706773704729916  0.7106418436493764  1.0000
  C   C93       1.0  0.34246234502749734  0.48281730597905115  0.7380060730308946  1.0000
  C   C94       1.0  0.2958036634553407  0.4293933674755709  0.7441315938026302  1.0000
  C   C95       1.0  0.2963309002140748  0.37106625550152145  0.7224083808134389  1.0000
  C   C96       1.0  0.34309886624716385  0.36634983013295425  0.6944285645546744  1.0000
  H   H61       1.0  0.42768884105333077  0.5178193392872175  0.706373235585341  1.0000
  H   H62       1.0  0.3426126454692185  0.5277441632672809  0.7548834770982444  1.0000
  H   H63       1.0  0.2595208950993668  0.33016873758085485  0.7266819537148653  1.0000
  H   H64       1.0  0.34028503083633266  0.3231778358667027  0.6765609476690356  1.0000
  N   N1        1.0  0.3993507371435093  0.058869524617723545  0.989392659711659  1.0000
  C   C97       1.0  0.44180987165701374  0.08873761142615844  0.9608747437091163  1.0000
  C   C98       1.0  0.32653622510050073  0.07335665854757867  0.9825937001184433  1.0000
  C   C99       1.0  0.4188838824638661  0.08979567815722445  0.02356821277547949  1.0000
  C   C100      1.0  0.41032394797657284  0.9834195586491157  0.9905128010250195  1.0000
  H   H65       1.0  0.4278069678715899  0.0675303140401291  0.9346118139901748  1.0000
  H   H66       1.0  0.4967841769580625  0.07726852374889548  0.9649721944541613  1.0000
  H   H67       1.0  0.4364957799891093  0.14592854861815252  0.9595809639486731  1.0000
  H   H68       1.0  0.2930810055364273  0.05110353738256945  0.0036199404074241937  1.0000
  H   H69       1.0  0.31649533940171753  0.12986603940732078  0.9817290057167224  1.0000
  H   H70       1.0  0.3098539303290612  0.05066380640929946  0.9570764844146196  1.0000
  H   H71       1.0  0.3838997475521603  0.0730478853791805  0.04514878180432924  1.0000
  H   H72       1.0  0.4171282176737297  0.14718880124162625  0.022716519569756732  1.0000
  H   H73       1.0  0.4715977243382371  0.07468436097777742  0.031206684624349057  1.0000
  H   H74       1.0  0.39618478266747587  0.9584092692840559  0.9651350115733103  1.0000
  H   H75       1.0  0.37892545551452395  0.9590331106109976  0.01159187909469428  1.0000
  H   H76       1.0  0.4647459862675114  0.9707421222195952  0.9958727414342783  1.0000
  N   N2        1.0  0.9632412723201903  0.5286722473836684  0.4954099118885618  1.0000
  C   C101      1.0  0.9459252980191901  0.5516837133750204  0.5315801848218286  1.0000
  C   C102      1.0  0.9173695580792876  0.5625175761774382  0.4699701955705578  1.0000
  C   C103      1.0  0.9547791575778748  0.4530379667596581  0.49296674598734214  1.0000
  C   C104      1.0  0.03476260716759749  0.5473420214707249  0.4870464368180346  1.0000
  H   H77       1.0  0.9795676831073733  0.5272871660926067  0.55149087532572  1.0000
  H   H78       1.0  0.8920704012776002  0.5390510974763237  0.5386033897671751  1.0000
  H   H79       1.0  0.9522004075719213  0.6084029071899183  0.534568631500172  1.0000
  H   H80       1.0  0.9208665057326739  0.6197090170817565  0.47180233064517185  1.0000
  H   H81       1.0  0.9313776848475185  0.5487874252502115  0.44233290990419943  1.0000
  H   H82       1.0  0.8631104814477696  0.5474735621933555  0.47445954794335415  1.0000
  H   H83       1.0  0.9672006185097737  0.43413877608002327  0.46602754424837334  1.0000
  H   H84       1.0  0.9012967996200237  0.43710916641974934  0.4990261670825013  1.0000
  H   H85       1.0  0.989122303732848  0.425624881528597  0.5114627566690578  1.0000
  H   H86       1.0  0.04895286147891076  0.5323608493796768  0.4595329783045076  1.0000
  H   H87       1.0  0.07121996625468574  0.5215402892864178  0.5050243489323122  1.0000
  H   H88       1.0  0.0430183413249825  0.6040197481841069  0.48917451224308184  1.0000
  N   N3        1.0  0.09298405823459133  0.08120259056876278  0.45791625556663823  1.0000
  C   C105      1.0  0.1654734585077371  0.09605115640645945  0.46544551923659366  1.0000
  C   C106      1.0  0.08875034366831858  0.028992302836305495  0.42951371968240004  1.0000
  C   C107      1.0  0.058600575185592696  0.14523714233040597  0.4466067093796137  1.0000
  C   C108      1.0  0.05910915543080231  0.05435755029646083  0.49006487981655683  1.0000
  H   H89       1.0  0.170890865055763  0.13253781383555951  0.48798355945948735  1.0000
  H   H90       1.0  0.1919389528753126  0.11896914704333317  0.4421941066443255  1.0000
  H   H91       1.0  0.19353398563161273  0.04812088454192143  0.47243926271556536  1.0000
  H   H92       1.0  0.11290302750095949  0.047724845550589645  0.4046797191548042  1.0000
  H   H93       1.0  0.11487536138012056  0.9801854386670239  0.4370942621736132  1.0000
  H   H94       1.0  0.03473967618752938  0.015966908742616415  0.42340172709091517  1.0000
  H   H95       1.0  0.003705794363038528  0.13582240701586  0.4410864118355341  1.0000
  H   H96       1.0  0.08176124813035868  0.16626545249628744  0.421967176657832  1.0000
  H   H97       1.0  0.06150735556553033  0.18613386892377126  0.4671932102015417  1.0000
  H   H98       1.0  0.08418508386794565  0.006409983413651066  0.49948443523947916  1.0000
  H   H99       1.0  0.0045813884002186  0.041502586013182574  0.4851586243534096  1.0000
  H   H100      1.0  0.06084733652114682  0.0923475201134547  0.5120778127923691  1.0000
  N   N4        1.0  0.9362155541587501  0.8357908840094961  0.8838030464634932  1.0000
  C   C109      1.0  0.9672632682802993  0.7870883635768031  0.8582283620557373  1.0000
  C   C110      1.0  0.8989235114350024  0.7966265426261352  0.911270049034389  1.0000
  C   C111      1.0  0.8880945720630731  0.8817784157736073  0.8653903441429027  1.0000
  C   C112      1.0  0.990351828795231  0.8777668279108143  0.9003655161408513  1.0000
  H   H101      1.0  0.9957110044879858  0.8146095843242213  0.8369959117449537  1.0000
  H   H102      1.0  0.9279262168987926  0.7542155026890598  0.8453641388206357  1.0000
  H   H103      1.0  0.0038760304885803168  0.7514999225088564  0.8712277509770886  1.0000
  H   H104      1.0  0.8769668468815403  0.831508664201801  0.9317938140932183  1.0000
  H   H105      1.0  0.8566098365289326  0.765688227037838  0.8998344499249556  1.0000
  H   H106      1.0  0.9331648702058902  0.7600861035979782  0.9251002265184664  1.0000
  H   H107      1.0  0.8622221547483989  0.9175787537824461  0.8842030936689219  1.0000
  H   H108      1.0  0.8476403489620159  0.8519307291604652  0.8516563220322484  1.0000
  H   H109      1.0  0.9146765505016338  0.9142810216342449  0.8453790036363659  1.0000
  H   H110      1.0  0.01901210389792607  0.908620671465781  0.8804663896748811  1.0000
  H   H111      1.0  0.027871887811836027  0.8447979981129554  0.9142625403556965  1.0000
  H   H112      1.0  0.9688441130264379  0.9143948779562433  0.9202060776291054  1.0000
  N   N5        1.0  0.3541178071112147  0.3118586734926002  0.20700467921988933  1.0000
  C   C113      1.0  0.3032222063501804  0.2713015062304539  0.22716586436193598  1.0000
  C   C114      1.0  0.4043016023438295  0.3421762079712044  0.23153986531310414  1.0000
  C   C115      1.0  0.319506977896474  0.36779975129576087  0.1876889894912988  1.0000
  C   C116      1.0  0.38954462459708555  0.2661206616474626  0.1815830574005233  1.0000
  H   H113      1.0  0.26430646542694236  0.24810166826693034  0.20948967037692637  1.0000
  H   H114      1.0  0.2757480884795298  0.3040396489577208  0.24683280715241926  1.0000
  H   H115      1.0  0.32787834314922687  0.22840090332650165  0.24182633541628923  1.0000
  H   H116      1.0  0.4328891274643914  0.3015263782490706  0.24590960840929424  1.0000
  H   H117      1.0  0.44257337917252965  0.37439895354139857  0.21726134225995694  1.0000
  H   H118      1.0  0.37895505376619776  0.37606183335732807  0.2515072992666458  1.0000
  H   H119      1.0  0.2819739999801058  0.34694306210792664  0.16854813705305222  1.0000
  H   H120      1.0  0.35695201394450704  0.4000152593844517  0.17273215145537776  1.0000
  H   H121      1.0  0.2912127501771599  0.4025679509821495  0.206085637051978  1.0000
  H   H122      1.0  0.42988783744833164  0.29444870441310883  0.16665543049309853  1.0000
  H   H123      1.0  0.3536292803688755  0.2436418489183273  0.16206640114091428  1.0000
  H   H124      1.0  0.4141897540764922  0.22203699820142486  0.1952061222154904  1.0000
  N   N6        1.0  0.6336335188175917  0.4336005251327244  0.36082507036769007  1.0000
  C   C117      1.0  0.6110548581347253  0.3792845803575144  0.3856679762612317  1.0000
  C   C118      1.0  0.6997932469888597  0.46202740539911913  0.3724451597635182  1.0000
  C   C119      1.0  0.5823453164952552  0.4894999823096968  0.3600051882735079  1.0000
  C   C120      1.0  0.6415785947846909  0.40377453515324163  0.32509434795629394  1.0000
  H   H125      1.0  0.5608245578196678  0.35727785792315286  0.37794277882636207  1.0000
  H   H126      1.0  0.6058336852864855  0.3996539329130553  0.41307050044639754  1.0000
  H   H127      1.0  0.6482850076590371  0.33594764027945784  0.3865726836438297  1.0000
  H   H128      1.0  0.6963421967297297  0.4838213963326457  0.3996059757243105  1.0000
  H   H129      1.0  0.7397885071916095  0.4214981896288104  0.37254776379721743  1.0000
  H   H130      1.0  0.7181290918097195  0.5034126742351175  0.3543635502629105  1.0000
  H   H131      1.0  0.5741565839261659  0.5126674308410331  0.3865755936468008  1.0000
  H   H132      1.0  0.5321465872182105  0.47040804895412325  0.3503822945863987  1.0000
  H   H133      1.0  0.5983933425131337  0.5316447707611137  0.3417736012124723  1.0000
  H   H134      1.0  0.6605397326003589  0.4430522865086847  0.3059217678433871  1.0000
  H   H135      1.0  0.5922165967107997  0.3839437974706146  0.31485101803503507  1.0000
  H   H136      1.0  0.6788614549743619  0.36038905963955054  0.32472755162275657  1.0000
  N   N7        1.0  0.7867190450843412  0.2862847336275068  0.02976095130075862  1.0000
  C   C121      1.0  0.8392212976319648  0.2689410977770825  0.05608165175364535  1.0000
  C   C122      1.0  0.7346648910203118  0.331897591072831  0.045966530521605264  1.0000
  C   C123      1.0  0.7536858179660558  0.22212826963233206  0.017423823656677048  1.0000
  C   C124      1.0  0.819062011059382  0.3220878414444606  0.999541740292202  1.0000
  H   H137      1.0  0.8787355206093076  0.23386241777569522  0.044685826823425166  1.0000
  H   H138      1.0  0.8163988540848923  0.24219273183428294  0.07929311152675694  1.0000
  H   H139      1.0  0.8658067694502011  0.31598833045801483  0.06578866714314272  1.0000
  H   H140      1.0  0.6940398994346639  0.34537675227946346  0.026758870793085476  1.0000
  H   H141      1.0  0.7089709869532351  0.3067710308752396  0.06885006181636281  1.0000
  H   H142      1.0  0.7575967017761337  0.3810458683915718  0.055487191584856904  1.0000
  H   H143      1.0  0.7129795430281489  0.23328756887523622  0.9979736480099322  1.0000
  H   H144      1.0  0.7297608810561078  0.19319467814842228  0.039638988869135056  1.0000
  H   H145      1.0  0.7908723803266151  0.1867101228769661  0.004383407488532498  1.0000
  H   H146      1.0  0.8569150357014167  0.28860253828390636  0.9856915864357791  1.0000
  H   H147      1.0  0.846356468850698  0.36974594005910605  0.007866741670456978  1.0000
  H   H148      1.0  0.7806670538246692  0.3379396173017975  0.979638267642048  1.0000
  N   N8        1.0  0.6944180556035033  0.0995164984895518  0.5623912251743949  1.0000
  C   C125      1.0  0.7207477217913322  0.1570019066340138  0.540591305726658  1.0000
  C   C126      1.0  0.7320569432715749  0.03554828436140234  0.5537564863322217  1.0000
  C   C127      1.0  0.6211090222502292  0.08934140050417749  0.5551577015018285  1.0000
  C   C128      1.0  0.70359319658208  0.11611770537880695  0.600126910298851  1.0000
  H   H149      1.0  0.7149657027414378  0.14590107045691147  0.5119214790119968  1.0000
  H   H150      1.0  0.7758365893541497  0.1666964456801281  0.5455108600360152  1.0000
  H   H151      1.0  0.692709238536368  0.20588146121267156  0.546202477516475  1.0000
  H   H152      1.0  0.7277293798299967  0.021904164874142925  0.5252952987458327  1.0000
  H   H153      1.0  0.7873917891841423  0.040719638111801126  0.559709039711402  1.0000
  H   H154      1.0  0.7126661842007218  0.9907441398499885  0.5691759788109  1.0000
  H   H155      1.0  0.5992696944131449  0.04639873073517231  0.5710885960610106  1.0000
  H   H156      1.0  0.6120287215007667  0.07769143698971435  0.5267802705059987  1.0000
  H   H157      1.0  0.5913635717987804  0.13657951603763707  0.5615683824880577  1.0000
  H   H158      1.0  0.6849421280223281  0.0734307071646847  0.6173079923170497  1.0000
  H   H159      1.0  0.6748706715647361  0.16338508288904663  0.6078071308781654  1.0000
  H   H160      1.0  0.7582505333127249  0.12494853008746176  0.6065274968046973  1.0000
  N   N9        1.0  0.007802996889243907  0.3920108046214057  0.7795003578840229  1.0000
  C   C129      1.0  0.9487825682776277  0.34772915045438424  0.7886448226504699  1.0000
  C   C130      1.0  0.05546781243918364  0.3537246655977886  0.7562444108225385  1.0000
  C   C131      1.0  0.04365826918721849  0.41234350810596876  0.8120762958732468  1.0000
  C   C132      1.0  0.9834330628585617  0.4543508587594369  0.7610880752208347  1.0000
  H   H161      1.0  0.9123177034117032  0.3750469971539969  0.8065623381249716  1.0000
  H   H162      1.0  0.9652414556367817  0.2998535792804502  0.802293303650925  1.0000
  H   H163      1.0  0.9195582156999088  0.33203508983399255  0.7648339644766429  1.0000
  H   H164      1.0  0.07515331136732661  0.30655599763850083  0.7694277910072981  1.0000
  H   H165      1.0  0.03029536586033088  0.3373298492204617  0.7313845911871634  1.0000
  H   H166      1.0  0.10069036853756841  0.385941561364191  0.7491062450447141  1.0000
  H   H167      1.0  0.06360520292920757  0.36666689460972224  0.8264217720391286  1.0000
  H   H168      1.0  0.009118912231027565  0.4403200276510535  0.8305381479216493  1.0000
  H   H169      1.0  0.08783659571384717  0.44677647368499107  0.8062409743238622  1.0000
  H   H170      1.0  0.026262484886732995  0.4897322127688022  0.7543773820129871  1.0000
  H   H171      1.0  0.9470800615042009  0.4842330575241838  0.7777719883682248  1.0000
  H   H172      1.0  0.9564975855198571  0.44100802889951907  0.7362677233677084  1.0000
  N   N10       1.0  0.0037131374015888508  0.52622379216462  0.29240652978007947  1.0000
  C   C133      1.0  0.9932370334274074  0.5120094816392597  0.33032604157294365  1.0000
  C   C134      1.0  0.012957510478579959  0.46025404924926694  0.27326783526923365  1.0000
  C   C135      1.0  0.06506285978007909  0.5698529802832497  0.28759007081777244  1.0000
  C   C136      1.0  0.9432867501980469  0.5625258402947563  0.2785189791625705  1.0000
  H   H173      1.0  0.9860381174156106  0.5604553493409343  0.34579196515894817  1.0000
  H   H174      1.0  0.03766784269064827  0.48438722240187204  0.3416835648269201  1.0000
  H   H175      1.0  0.9474327000200456  0.4790430308526679  0.33464593534646253  1.0000
  H   H176      1.0  0.058077086035530856  0.4314850623433947  0.28311398065171317  1.0000
  H   H177      1.0  0.9675721098157014  0.4259675920448804  0.2765233244063357  1.0000
  H   H178      1.0  0.02098348945430084  0.4687750811486985  0.24453863541017212  1.0000
  H   H179      1.0  0.0745568736109623  0.5816851546487649  0.25926768777643583  1.0000
  H   H180      1.0  0.11156088058352864  0.5437477077812002  0.2976441649330102  1.0000
  H   H181      1.0  0.06010430326191485  0.6198158572855167  0.3019825224454627  1.0000
  H   H182      1.0  0.9493330848191198  0.5741871540248819  0.24993767824505883  1.0000
  H   H183      1.0  0.9344414384549187  0.6122809685511577  0.29258577824104093  1.0000
  H   H184      1.0  0.8961618187729996  0.5306890285372372  0.2816466825840301  1.0000
  N   N11       1.0  0.8406644066396181  0.019965678220112082  0.13846524547996647  1.0000
  C   C137      1.0  0.8382884609593445  0.0961819430574038  0.13840642269092507  1.0000
  C   C138      1.0  0.8003202250725455  0.9929427687372603  0.16849782844764166  1.0000
  C   C139      1.0  0.9122484770543094  0.9973723949353762  0.14193805670073897  1.0000
  C   C140      1.0  0.8121415545262656  0.9935685683811242  0.10502900331750331  1.0000
  H   H185      1.0  0.7849347403880504  0.11509096165459876  0.1363506543482883  1.0000
  H   H186      1.0  0.8681044415769513  0.11791410308196881  0.11589671861648675  1.0000
  H   H187      1.0  0.8595976504905092  0.11800967564231768  0.16320898733649072  1.0000
  H   H188      1.0  0.8013223627540232  0.9355450387114106  0.16929856600377616  1.0000
  H   H189      1.0  0.8203645713878613  0.012201252611281577  0.19413394801297404  1.0000
  H   H190      1.0  0.7460829269063557  0.0094970120909037  0.16706933485300896  1.0000
  H   H191      1.0  0.9164674247309706  0.940037437978999  0.14196502982808037  1.0000
  H   H192      1.0  0.935043556441318  0.016136600783101862  0.16700804929971194  1.0000
  H   H193      1.0  0.9441099622254475  0.017684038454158557  0.11991933534451717  1.0000
  H   H194      1.0  0.8133404531498704  0.9361754493867356  0.1039856045256777  1.0000
  H   H195      1.0  0.8415120864748517  0.012984674079776992  0.08179384729456116  1.0000
  H   H196      1.0  0.7580944938006101  0.010088417512797765  0.10159209701242367  1.0000
  N   N12       1.0  0.5274598888972735  0.33125864501187824  0.7749511780958022  1.0000
  C   C141      1.0  0.5750767672841164  0.3850660735276398  0.7621423277410474  1.0000
  C   C142      1.0  0.5611962216210223  0.2895112387321236  0.8023710129596028  1.0000
  C   C143      1.0  0.5077744083961527  0.2863248333557625  0.7451464770151828  1.0000
  C   C144      1.0  0.4657800940428083  0.3642897750502917  0.790035910616223  1.0000
  H   H197      1.0  0.6222086487676798  0.36185767915888695  0.750588496674517  1.0000
  H   H198      1.0  0.5913954227823046  0.419874410567279  0.7839059883969487  1.0000
  H   H199      1.0  0.5513501571098341  0.4173606758617307  0.7412681034331118  1.0000
  H   H200      1.0  0.5272661502297096  0.24761320094702743  0.8122719477034654  1.0000
  H   H201      1.0  0.6086538140675518  0.26486813344977495  0.792039485346719  1.0000
  H   H202      1.0  0.5758858583362376  0.3216795095128596  0.825484493163943  1.0000
  H   H203      1.0  0.5528239790379404  0.25912142047647246  0.7337883196246887  1.0000
  H   H204      1.0  0.4842518901076986  0.3166683681452979  0.7234715909435036  1.0000
  H   H205      1.0  0.47035751383127006  0.2462096800138432  0.7534560489675346  1.0000
  H   H206      1.0  0.4284480954577321  0.32528490665427817  0.7998094478842408  1.0000
  H   H207      1.0  0.43921366808239254  0.3961189315036308  0.7700247152713587  1.0000
  H   H208      1.0  0.4786246113611922  0.3987549090355052  0.8125759647228012  1.0000
  N   N13       1.0  0.3280780310004846  0.8861602295510335  0.25546321677320916  1.0000
  C   C145      1.0  0.2727288811470308  0.8343511275569828  0.25761694100445576  1.0000
  C   C146      1.0  0.37357971518237126  0.8783620295143765  0.28613045270556975  1.0000
  C   C147      1.0  0.29826786004724626  0.9561984002700757  0.25558905211468486  1.0000
  C   C148      1.0  0.36769643936433216  0.8758650641388637  0.22251168974878302  1.0000
  H   H209      1.0  0.235552752138825  0.8404935537229972  0.23580748906111004  1.0000
  H   H210      1.0  0.24406133776067573  0.8381337212483164  0.28304468879723327  1.0000
  H   H211      1.0  0.29332187954866845  0.781013254230928  0.25587399101188696  1.0000
  H   H212      1.0  0.415941543582634  0.9166678285530012  0.2855047427262572  1.0000
  H   H213      1.0  0.34517995984771127  0.8850033875467846  0.31149531236062383  1.0000
  H   H214      1.0  0.3967508641657306  0.8259853380172137  0.28692045025506413  1.0000
  H   H215      1.0  0.3386857551274947  0.9965321563437225  0.2533245526857526  1.0000
  H   H216      1.0  0.2686399141354631  0.9661113547432731  0.28024359136836424  1.0000
  H   H217      1.0  0.2631346591321071  0.9633585908096364  0.23294882960450616  1.0000
  H   H218      1.0  0.33498329800241017  0.882021323726324  0.1988966122014389  1.0000
  H   H219      1.0  0.39035694338864785  0.823207302521513  0.2211737271226976  1.0000
  H   H220      1.0  0.41002091036052085  0.9140686009240928  0.22006101274050774  1.0000
  N   N14       1.0  0.24889335076722696  0.5530294195433537  0.6344807651228257  1.0000
  C   C149      1.0  0.20439136825339285  0.5847647807529706  0.6077162654201005  1.0000
  C   C150      1.0  0.22245413583825213  0.48382886077774556  0.6435909178724941  1.0000
  C   C151      1.0  0.24950711988661456  0.596647825883673  0.6665110759873115  1.0000
  C   C152      1.0  0.31908766642978587  0.5468470954146408  0.6202028015816807  1.0000
  H   H221      1.0  0.20326865390320337  0.5536749957722054  0.5830205680988786  1.0000
  H   H222      1.0  0.22209065895104316  0.6376200247694971  0.6006487735749203  1.0000
  H   H223      1.0  0.15082730615441675  0.5895841417995642  0.6175066258700832  1.0000
  H   H224      1.0  0.22252725510111337  0.448812297417946  0.6202665238581753  1.0000
  H   H225      1.0  0.25417782825376833  0.45915883041761485  0.6641803302304015  1.0000
  H   H226      1.0  0.16931532069507504  0.48667098505126805  0.6541192895709016  1.0000
  H   H227      1.0  0.2693082073676628  0.6493356573137018  0.6608102986189672  1.0000
  H   H228      1.0  0.2822281318660058  0.5742593977723592  0.6874098653139196  1.0000
  H   H229      1.0  0.19733375392636276  0.6026013685517854  0.6779428528580335  1.0000
  H   H230      1.0  0.3543336069591598  0.5243011891868214  0.6399399213356138  1.0000
  H   H231      1.0  0.34020283792843026  0.5980445423607983  0.612536653448606  1.0000
  H   H232      1.0  0.3210309001128126  0.5127683802578799  0.5965266478943815  1.0000
  N   N15       1.0  0.3007418318672179  0.7176603275234298  0.06259618846107529  1.0000
  C   C153      1.0  0.24517788101331828  0.6902902996566724  0.08518894312442105  1.0000
  C   C154      1.0  0.3473362891850287  0.6608250766498878  0.05258011956455566  1.0000
  C   C155      1.0  0.3389995405210815  0.7709729860673177  0.08220633675456179  1.0000
  C   C156      1.0  0.27147519232677575  0.7485575312326156  0.030468997968319478  1.0000
  H   H233      1.0  0.26565334701094767  0.6645914251131156  0.10911347437048291  1.0000
  H   H234      1.0  0.21325999072725899  0.6520425694458466  0.07085087541821422  1.0000
  H   H235      1.0  0.21076910706440688  0.7321720861343076  0.09459670657635577  1.0000
  H   H236      1.0  0.31994282444208055  0.6196942269743535  0.03775981029730158  1.0000
  H   H237      1.0  0.3899178882363814  0.6795665722177694  0.0355021479590365  1.0000
  H   H238      1.0  0.3703923324982088  0.6365808726563832  0.07630275850555734  1.0000
  H   H239      1.0  0.3810952865360855  0.7932416207034041  0.06600574752316213  1.0000
  H   H240      1.0  0.36151743232602174  0.7497137491661848  0.10677238402600775  1.0000
  H   H241      1.0  0.30511156957573515  0.814453500862758  0.09012013982213074  1.0000
  H   H242      1.0  0.31197186988363623  0.7681292091922599  0.012347819120790637  1.0000
  H   H243      1.0  0.23795593066493215  0.7931647063514153  0.03704136355757126  1.0000
  H   H244      1.0  0.24021199702699048  0.7105699568423339  0.015496120495171573  1.0000
  N   N16       1.0  0.35117312948779267  0.9510891246457265  0.6679488373042756  1.0000
  C   C157      1.0  0.42605479397522017  0.9489754853175171  0.6725169459335202  1.0000
  C   C158      1.0  0.3193712849266428  0.8912796708382159  0.6857968965983038  1.0000
  C   C159      1.0  0.33490883029010865  0.9487335992044317  0.629954566684637  1.0000
  C   C160      1.0  0.3240690971789051  0.015557059989735444  0.6835285459094645  1.0000
  H   H245      1.0  0.4515397601837374  0.9935238036581847  0.6592574324090652  1.0000
  H   H246      1.0  0.44835131855684596  0.90088778493475  0.6612160888493884  1.0000
  H   H247      1.0  0.44014062004133137  0.9512342448474042  0.7008864335004303  1.0000
  H   H248      1.0  0.2626940364742336  0.8921100436320148  0.6833269168709599  1.0000
  H   H249      1.0  0.3373978528003534  0.8414561615870487  0.6744323045616327  1.0000
  H   H250      1.0  0.33084982956577313  0.8904777542018475  0.7144999897275309  1.0000
  H   H251      1.0  0.27875940270002864  0.948032337760681  0.625654162039068  1.0000
  H   H252      1.0  0.35628646569012634  0.9018657417650029  0.616979386934467  1.0000
  H   H253      1.0  0.3555426991510111  0.9946244236344839  0.6158351002232602  1.0000
  H   H254      1.0  0.34886318739473143  0.06176483482665196  0.6716124411609747  1.0000
  H   H255      1.0  0.3327931198313636  0.01787303477864155  0.7124535818540949  1.0000
  H   H256      1.0  0.26811048558755957  0.02061187981851753  0.679051828438693  1.0000
