data_image0
_chemical_formula_structural       FeS2FeS2FeSFeS3FeS2FeS2FeSFeS3FeS2FeS2FeSFeS3FeS2FeS2FeSFeS3FeS2FeS2FeSFeS3FeS2FeS2FeSFeS3FeS2FeS2FeSFeS3FeS2FeS2FeSFeS3FeS2FeS2FeSFeS3FeS2FeS2FeSFeS3FeS2FeS2FeSFeS3FeS2FeS2FeSFeS3FeS2FeS2FeSFeS3FeS2FeS2FeSFeS3FeS2FeS2FeSFeS3FeS2FeS2FeSFeS3C6H4C6H4C6H4C6H4C6H4C6H4C6H4C6H4C6H4C6H4C6H4C6H4C6H4C6H4C6H4C6H4C6H4C6H4C6H4C6H4C6H4C6H4C6H4C6H4C6H4C6H4C6H4C6H4C6H4C6H4C6H4C6H4FeS2FeS2FeSFeS3FeS2FeS2FeSFeS3FeS2FeS2FeSFeS3FeS2FeS2FeSFeS3FeS2FeS2FeSFeS3FeS2FeS2FeSFeS3FeS2FeS2FeSFeS3FeS2FeS2FeSFeS3FeS2FeS2FeSFeS3FeS2FeS2FeSFeS3FeS2FeS2FeSFeS3FeS2FeS2FeSFeS3FeS2FeS2FeSFeS3FeS2FeS2FeSFeS3FeS2FeS2FeSFeS3FeS2FeS2FeSFeS3C6H4C6H4C6H4C6H4C6H4C6H4C6H4C6H4C6H4C6H4C6H4C6H4C6H4C6H4C6H4C6H4C6H4C6H4C6H4C6H4C6H4C6H4C6H4C6H4C6H4C6H4C6H4C6H4C6H4C6H4C6H4C6H4NC4H12NC4H12NC4H12NC4H12NC4H12NC4H12NC4H12NC4H12NC4H12NC4H12NC4H12NC4H12NC4H12NC4H12NC4H12NC4H12NC4H12NC4H12NC4H12NC4H12NC4H12NC4H12NC4H12NC4H12NC4H12NC4H12NC4H12NC4H12NC4H12NC4H12NC4H12NC4H12NC4H12NC4H12NC4H12NC4H12NC4H12NC4H12NC4H12NC4H12NC4H12NC4H12NC4H12NC4H12NC4H12NC4H12NC4H12NC4H12NC4H12NC4H12NC4H12NC4H12NC4H12NC4H12NC4H12NC4H12NC4H12NC4H12NC4H12NC4H12NC4H12NC4H12NC4H12NC4H12
_chemical_formula_sum              "Fe128 S256 C640 H1024 N64"
_cell_length_a       44.526094655284844
_cell_length_b       43.54758503692198
_cell_length_c       35.975563460900986
_cell_angle_alpha    90.12264668150362
_cell_angle_beta     90.21517151436727
_cell_angle_gamma    89.54910404627037

_space_group_name_H-M_alt    "P 1"
_space_group_IT_number       1

loop_
  _space_group_symop_operation_xyz
  'x, y, z'

loop_
  _atom_site_type_symbol
  _atom_site_label
  _atom_site_symmetry_multiplicity
  _atom_site_fract_x
  _atom_site_fract_y
  _atom_site_fract_z
  _atom_site_occupancy
  Fe  Fe1       1.0  0.30687082909668223  0.7737203866533431  0.3015381744488011  1.0000
  S   S1        1.0  0.35262590114351916  0.7818924866471647  0.278430910784952  1.0000
  S   S2        1.0  0.26745967689355843  0.7662681283045484  0.26357694381347546  1.0000
  Fe  Fe2       1.0  0.32710889948061334  0.7816750092306306  0.38170825245505385  1.0000
  S   S3        1.0  0.3748188462502629  0.7908724103698692  0.3657472635400759  1.0000
  S   S4        1.0  0.3155942325513074  0.7778639640946242  0.4424982529621895  1.0000
  Fe  Fe3       1.0  0.35483144007503786  0.8199367480650063  0.32045743721415054  1.0000
  S   S5        1.0  0.3689151418983671  0.8683681015444259  0.3089503363165613  1.0000
  Fe  Fe4       1.0  0.36860891075442587  0.7520247157910633  0.3254571220987726  1.0000
  S   S6        1.0  0.4016589393994286  0.7134066327788758  0.31678041219900194  1.0000
  S   S7        1.0  0.3074839333604512  0.8142360010745386  0.339812332360368  1.0000
  S   S8        1.0  0.3223316456250579  0.7403492594997387  0.34505904135287496  1.0000
  Fe  Fe5       1.0  0.2545665465142676  0.9622260123276988  0.6109403863822026  1.0000
  S   S9        1.0  0.2799833600297365  0.9545871145729066  0.5580071879674017  1.0000
  S   S10       1.0  0.2276706966088699  0.005499346960475826  0.621148691545386  1.0000
  Fe  Fe6       1.0  0.35912717474594724  0.9301201297369966  0.11611363203586274  1.0000
  S   S11       1.0  0.3785430753807198  0.9613126952795433  0.07302353631064815  1.0000
  S   S12       1.0  0.3848616644738373  0.8889225271515495  0.13672970967844536  1.0000
  Fe  Fe7       1.0  0.352296489454044  0.9980822572448799  0.10242716656769782  1.0000
  S   S13       1.0  0.36976702681732876  0.04582143176334941  0.10983785616065779  1.0000
  Fe  Fe8       1.0  0.2597553900512525  0.9077961971248372  0.5581849443105654  1.0000
  S   S14       1.0  0.24240909510185552  0.8921816552562766  0.5026343712126795  1.0000
  S   S15       1.0  0.33616478629957164  0.967695679370274  0.1485607102710346  1.0000
  S   S16       1.0  0.23096209468281123  0.9169943551976034  0.6079668712975869  1.0000
  Fe  Fe9       1.0  0.6743348901607487  0.14762706657773556  0.4160662796565083  1.0000
  S   S17       1.0  0.641686226452978  0.11815344559554175  0.44666639635335975  1.0000
  S   S18       1.0  0.66071447186612  0.17895725410338337  0.36937778446062647  1.0000
  Fe  Fe10      1.0  0.7286944442253759  0.11899679793009983  0.4546920408440703  1.0000
  S   S19       1.0  0.7006039748161633  0.08736723487809783  0.48897443603246626  1.0000
  S   S20       1.0  0.7789564272199025  0.11592640179313099  0.4602733794606356  1.0000
  Fe  Fe11      1.0  0.6747829209175344  0.08013485697831513  0.4361873342931245  1.0000
  S   S21       1.0  0.6607869626588035  0.034042069500673566  0.41430459890633003  1.0000
  Fe  Fe12      1.0  0.67059160129865  0.12853193345241842  0.49635931238078895  1.0000
  S   S22       1.0  0.6515559952791139  0.14372802431580034  0.5511444722950808  1.0000
  S   S23       1.0  0.7051726306805409  0.1087967288557643  0.4011437656336135  1.0000
  S   S24       1.0  0.7009955405429711  0.1611197823413651  0.46650795174421855  1.0000
  Fe  Fe13      1.0  0.5174279733816902  0.15198345078505504  0.27446265319661045  1.0000
  S   S25       1.0  0.53227480725227  0.1793659357848595  0.22502500233723513  1.0000
  S   S26       1.0  0.5224455749972486  0.16677865657650437  0.33411065119340994  1.0000
  Fe  Fe14      1.0  0.49533879327465696  0.09877728794468177  0.22766194489290165  1.0000
  S   S27       1.0  0.5080201587244701  0.12130472135211726  0.1744497216441395  1.0000
  S   S28       1.0  0.4760175928991512  0.0515186592786776  0.22599013388909467  1.0000
  Fe  Fe15      1.0  0.5503343492298007  0.13427432861727742  0.20407687363277546  1.0000
  S   S29       1.0  0.5959855692288697  0.1262320837323975  0.17897419095550776  1.0000
  Fe  Fe16      1.0  0.4886186098187454  0.16394712151668528  0.19994239204925374  1.0000
  S   S30       1.0  0.456101368574672  0.19200587064063931  0.16619456714526365  1.0000
  S   S31       1.0  0.5392188453808916  0.10811532409486801  0.25569511360497266  1.0000
  S   S32       1.0  0.47215368987523315  0.14019563021481418  0.2510877924487961  1.0000
  Fe  Fe17      1.0  0.8872264862396619  0.47506245940042274  0.29672183582958345  1.0000
  S   S33       1.0  0.8371773987766447  0.4818332153108796  0.2959177603105457  1.0000
  S   S34       1.0  0.9165384301055554  0.5139788753283355  0.3159538030186288  1.0000
  Fe  Fe18      1.0  0.8835292283324245  0.41003793405071115  0.2668525405121627  1.0000
  S   S35       1.0  0.8333379779782827  0.4109583011828226  0.2642111064645727  1.0000
  S   S36       1.0  0.9119249435349377  0.3690965551544307  0.25230051371312295  1.0000
  Fe  Fe19      1.0  0.8392603913773944  0.45796707462751807  0.24063513846138837  1.0000
  S   S37       1.0  0.8100479410442109  0.46988003611315565  0.1918288093012051  1.0000
  Fe  Fe20      1.0  0.8360456984239102  0.43443386717855015  0.3194312881093991  1.0000
  S   S38       1.0  0.8054182285735499  0.42081785604686517  0.3656557324488893  1.0000
  S   S39       1.0  0.8894936625580504  0.4555266600743249  0.23884728783587444  1.0000
  S   S40       1.0  0.8859387987115056  0.4290288323327694  0.32432088741097714  1.0000
  Fe  Fe21      1.0  0.8624768504380118  0.2633938942463247  0.48420881515883074  1.0000
  S   S41       1.0  0.9068768582441253  0.2854057164869581  0.47359475718806043  1.0000
  S   S42       1.0  0.8353982217677082  0.24635172714043063  0.435742734340266  1.0000
  Fe  Fe22      1.0  0.862203606243723  0.269138020623175  0.09868756436015859  1.0000
  S   S43       1.0  0.9013803323009647  0.2964764112173868  0.07867218685690823  1.0000
  S   S44       1.0  0.8399274187676617  0.275053717861068  0.154114458900906  1.0000
  Fe  Fe23      1.0  0.8882270616525367  0.3247395887846877  0.5065279637139001  1.0000
  S   S45       1.0  0.8958000938187822  0.37337854038756485  0.48810271581886416  1.0000
  Fe  Fe24      1.0  0.9184397942476956  0.2510659179977345  0.05749701449702015  1.0000
  S   S46       1.0  0.9646528797899238  0.2319738030470045  0.06790925227430777  1.0000
  S   S47       1.0  0.8427288785707018  0.3041827117468774  0.5133873229742337  1.0000
  S   S48       1.0  0.8810704405235814  0.22361189633982162  0.08169483771549788  1.0000
  Fe  Fe25      1.0  0.4708285646444482  0.6157166032671487  0.4658278693129367  1.0000
  S   S49       1.0  0.4582406821137998  0.5730819791639923  0.434337355726506  1.0000
  S   S50       1.0  0.4424276648728613  0.6584031879525021  0.47082148234347565  1.0000
  Fe  Fe26      1.0  0.5328483431550862  0.5919843347303372  0.48585767960868625  1.0000
  S   S51       1.0  0.5260263383954501  0.5473343318986277  0.456248356556245  1.0000
  S   S52       1.0  0.5778959071491813  0.6007638315654572  0.5118989500657886  1.0000
  Fe  Fe27      1.0  0.504974825922676  0.5758787191744654  0.411529187698173  1.0000
  S   S53       1.0  0.5150655579618593  0.5681531762417351  0.3512437874134594  1.0000
  Fe  Fe28      1.0  0.4802810927131429  0.5482319728131598  0.48191917128653655  1.0000
  S   S54       1.0  0.4648783558020502  0.5041828666024318  0.5079766113090859  1.0000
  S   S55       1.0  0.5156550812399087  0.6207603045204968  0.43877484580182147  1.0000
  S   S56       1.0  0.4888258857845841  0.5906377231683392  0.5158074895575097  1.0000
  Fe  Fe29      1.0  0.665854459147298  0.6510981641780624  0.18255080321448997  1.0000
  S   S57       1.0  0.6907461888665946  0.6117719700378746  0.1564129950747948  1.0000
  S   S58       1.0  0.6582735352919054  0.6960648851343  0.15333632755112328  1.0000
  Fe  Fe30      1.0  0.6577540946096084  0.6174947590252965  0.25597323342895206  1.0000
  S   S59       1.0  0.6818912772602065  0.5752699430324087  0.2360219320255283  1.0000
  S   S60       1.0  0.6431103196977526  0.621101666498973  0.3154516561231938  1.0000
  Fe  Fe31      1.0  0.714453545318209  0.6083379659623366  0.21116978669094927  1.0000
  S   S61       1.0  0.7644494411790684  0.6052877306820026  0.2176720969334379  1.0000
  Fe  Fe32      1.0  0.6555420609114497  0.5829276885893044  0.1834407896466259  1.0000
  S   S62       1.0  0.6301409045256002  0.5455795935236721  0.15457048861266823  1.0000
  S   S63       1.0  0.6925144464340398  0.6501183630228237  0.2353403149960221  1.0000
  S   S64       1.0  0.6285710784730909  0.6226837933802631  0.20546072352913605  1.0000
  Fe  Fe33      1.0  0.7919757072293946  0.7472669066316476  0.043707385850344505  1.0000
  S   S65       1.0  0.8385365828272111  0.7332995758123425  0.06137740362241817  1.0000
  S   S66       1.0  0.7594010498678261  0.7093202936877698  0.03266437113696408  1.0000
  Fe  Fe34      1.0  0.8181443168727439  0.7582976962577022  0.5307324027661223  1.0000
  S   S67       1.0  0.8664320756600254  0.7519511486719418  0.5470545727807303  1.0000
  S   S68       1.0  0.805648341892476  0.769428000845952  0.47186949866184574  1.0000
  Fe  Fe35      1.0  0.8512844107391022  0.7067489353961358  0.5695392045508484  1.0000
  S   S69       1.0  0.8725134524181699  0.661022384017188  0.5569137643356601  1.0000
  Fe  Fe36      1.0  0.835193299728531  0.7738157078257105  0.09953475854111317  1.0000
  S   S70       1.0  0.8537538637642543  0.7725028950134715  0.15750451063697188  1.0000
  S   S71       1.0  0.8039294109784759  0.7117029829163635  0.5492908573867655  1.0000
  S   S72       1.0  0.7873376274298538  0.7854022947753937  0.08539528604795046  1.0000
  Fe  Fe37      1.0  0.7852665878718686  0.9599783477526667  0.30844534595249506  1.0000
  S   S73       1.0  0.8238782634905419  0.9627777913866655  0.347986248709016  1.0000
  S   S74       1.0  0.7579229004469578  0.00157469198501059  0.29409133628907075  1.0000
  Fe  Fe38      1.0  0.7953650360151484  0.8926724317811926  0.2926218219782987  1.0000
  S   S75       1.0  0.8357232766559557  0.8890257496491094  0.3301909473800347  1.0000
  S   S76       1.0  0.7722663905752539  0.8554774852495288  0.26030052187115865  1.0000
  Fe  Fe39      1.0  0.808113251852075  0.9175304602430193  0.3695287588958957  1.0000
  S   S77       1.0  0.8074347198520784  0.9103999744035977  0.4314160218826935  1.0000
  Fe  Fe40      1.0  0.8482111428721684  0.9345349572917121  0.3055735557287399  1.0000
  S   S78       1.0  0.8948671740382315  0.9500125268089767  0.29306542240353617  1.0000
  S   S79       1.0  0.7665673580579139  0.9175630975017374  0.33416089398447624  1.0000
  S   S80       1.0  0.8107416670839896  0.9353853001380319  0.2639029116037729  1.0000
  Fe  Fe41      1.0  0.009862276092732047  0.10812741720919972  0.24249338874540122  1.0000
  S   S81       1.0  0.024847837720675114  0.1484378979185893  0.276552037362629  1.0000
  S   S82       1.0  0.0395643964979695  0.08053122205782604  0.20454344418173798  1.0000
  Fe  Fe42      1.0  0.9458287778890779  0.11075901654176468  0.27179353908447695  1.0000
  S   S83       1.0  0.9551625921492363  0.15153645622649797  0.30771387424756974  1.0000
  S   S84       1.0  0.8987276570901287  0.09279683553860174  0.2669277627297458  1.0000
  Fe  Fe43      1.0  0.9808127548827204  0.16911534197424016  0.2588588973476924  1.0000
  S   S85       1.0  0.9747015102288131  0.218179549230841  0.24179178907390186  1.0000
  Fe  Fe44      1.0  0.997981404358848  0.1268120174921787  0.3218790942885844  1.0000
  S   S86       1.0  0.01408217167259207  0.12452526157908451  0.3807589806601252  1.0000
  S   S87       1.0  0.9676722733743127  0.13036605329474527  0.22129946608794548  1.0000
  S   S88       1.0  0.9868896353744369  0.08444987381021751  0.2895605235335911  1.0000
  Fe  Fe45      1.0  0.16261339841052638  0.09527159323474121  0.42262609074964563  1.0000
  S   S89       1.0  0.14254523647550119  0.14251117846174494  0.4205563920741182  1.0000
  S   S90       1.0  0.13881591860014533  0.057261280560652494  0.3932168338026556  1.0000
  Fe  Fe46      1.0  0.21576898274271591  0.1157455448828022  0.4676368392363386  1.0000
  S   S91       1.0  0.20089782052017216  0.16506759994933767  0.46904046820150297  1.0000
  S   S92       1.0  0.25843665386033743  0.09879526092417601  0.49425121142845846  1.0000
  Fe  Fe47      1.0  0.15543675101019033  0.14544415942691116  0.4804369892405212  1.0000
  S   S93       1.0  0.1253588373545316  0.16987441673203882  0.5208933788257838  1.0000
  Fe  Fe48      1.0  0.1892551765928388  0.1578992301270698  0.40896240756984253  1.0000
  S   S94       1.0  0.1918725859816637  0.1931530691684664  0.36360011930971803  1.0000
  S   S95       1.0  0.17111796003180135  0.0964470483592581  0.4838288197001784  1.0000
  S   S96       1.0  0.2085364100797087  0.1102573983061712  0.4060659746143154  1.0000
  Fe  Fe49      1.0  0.30925110644347603  0.32148040425222174  0.230897565577862  1.0000
  S   S97       1.0  0.3425184393717601  0.35795030474442646  0.24553699783861271  1.0000
  S   S98       1.0  0.27800927133326025  0.3299377797582816  0.18267026767748248  1.0000
  Fe  Fe50      1.0  0.32586644514197993  0.2817936857383374  0.2972341870381051  1.0000
  S   S99       1.0  0.3601252875883446  0.31536986374000847  0.3175249757062548  1.0000
  S   S100      1.0  0.3234139629200235  0.2378434980035796  0.3298602171277166  1.0000
  Fe  Fe51      1.0  0.3258745665794249  0.35137179308341765  0.3035846478997587  1.0000
  S   S101      1.0  0.3144589748863849  0.39186850193763645  0.33975801618677326  1.0000
  Fe  Fe52      1.0  0.3734192836191213  0.3182892099196009  0.2577230119714502  1.0000
  S   S102      1.0  0.4228516780860233  0.31663502996307374  0.24612493620726994  1.0000
  S   S103      1.0  0.2901180241272934  0.31772278959262135  0.2884091382403878  1.0000
  S   S104      1.0  0.3415678635313298  0.28202980258772314  0.23810798789692397  1.0000
  Fe  Fe53      1.0  0.24775829696680365  0.457617675059799  0.02249400044527139  1.0000
  S   S105      1.0  0.2884531314487245  0.46865732334720245  0.05693603976604122  1.0000
  S   S106      1.0  0.2021710470940099  0.45125357603093763  0.047522024537969054  1.0000
  Fe  Fe54      1.0  0.29117409674767264  0.38087623653822955  0.5433448437596492  1.0000
  S   S107      1.0  0.3380478436436565  0.3992560171276955  0.5412994863499426  1.0000
  S   S108      1.0  0.27822005196100913  0.34637420135244196  0.49981624175463973  1.0000
  Fe  Fe55      1.0  0.31032737674478633  0.4315245528597693  0.023195760343218463  1.0000
  S   S109      1.0  0.341651640910863  0.39732643020878605  0.04945827081130094  1.0000
  Fe  Fe56      1.0  0.31594583332512216  0.4442493013732807  0.5556677876312885  1.0000
  S   S110      1.0  0.32549508794588516  0.4901688337180118  0.5302743081362156  1.0000
  S   S111      1.0  0.26886574266928814  0.41782322800966026  0.9921750775188216  1.0000
  S   S112      1.0  0.26888874080749425  0.426523794447511  0.5529007478514638  1.0000
  Fe  Fe57      1.0  0.0005130679251912351  0.5432596540620923  0.48853921905240083  1.0000
  S   S113      1.0  0.015172294064022429  0.5768625777777949  0.4450730493703294  1.0000
  S   S114      1.0  0.9621487913510013  0.5104222084095175  0.48214175355187494  1.0000
  Fe  Fe58      1.0  0.05019085722148642  0.5613696050832138  0.5426651234073325  1.0000
  S   S115      1.0  0.06927082366733583  0.5962632540358795  0.503608644500473  1.0000
  S   S116      1.0  0.06410875827249685  0.5547578480540131  0.6023395340395062  1.0000
  Fe  Fe59      1.0  0.021022081409348914  0.6091069827240072  0.4933566309673606  1.0000
  S   S117      1.0  0.00569609713439112  0.6582844296706303  0.49743745729442757  1.0000
  Fe  Fe60      1.0  0.06169984792130778  0.5606092325269765  0.4595130494243794  1.0000
  S   S118      1.0  0.09563744475120162  0.5445134542518916  0.417421593968929  1.0000
  S   S119      1.0  0.0025388128850620806  0.5767186410024367  0.5355419027579376  1.0000
  S   S120      1.0  0.04657799046635813  0.5244255876171631  0.4996013626748933  1.0000
  Fe  Fe61      1.0  0.2194429092269041  0.6091666324014979  0.20797233199075513  1.0000
  S   S121      1.0  0.19861459761059982  0.5816291488006051  0.2536051419685916  1.0000
  S   S122      1.0  0.2662015675717321  0.6275629846297789  0.21365512362571756  1.0000
  Fe  Fe62      1.0  0.16794825196771793  0.5982511508300598  0.15436210861210153  1.0000
  S   S123      1.0  0.14209588416345306  0.5698377010522135  0.195043127910204  1.0000
  S   S124      1.0  0.15688430898689998  0.6063492176244535  0.09425302094411073  1.0000
  Fe  Fe63      1.0  0.15586613803804852  0.6056176911900829  0.23673879698936945  1.0000
  S   S125      1.0  0.12471100471000551  0.6276681930291406  0.2783775680958408  1.0000
  Fe  Fe64      1.0  0.18679991188329728  0.5483561314321292  0.20837112184954001  1.0000
  S   S126      1.0  0.19146040197365416  0.4971459502694387  0.21287285320724622  1.0000
  S   S127      1.0  0.17779395764787204  0.6361238879245059  0.19459989070750436  1.0000
  S   S128      1.0  0.21142944251649  0.5737612551793054  0.16426219033084133  1.0000
  C   C1        1.0  0.099687885375213  0.569459953031404  0.6127485375928532  1.0000
  C   C2        1.0  0.10798117001256065  0.5730134300511849  0.649981766160721  1.0000
  C   C3        1.0  0.09807927994557256  0.6102225308489418  0.1161290005300835  1.0000
  C   C4        1.0  0.11834673704693625  0.6115168056871194  0.08659430018931404  1.0000
  C   C5        1.0  0.10767915681166373  0.6152124392529589  0.05022872764183028  1.0000
  C   C6        1.0  0.11958691653173248  0.578076003065709  0.5846670750068882  1.0000
  H   H1        1.0  0.09265456709305496  0.5667200898197746  0.671842640783304  1.0000
  H   H2        1.0  0.10618708964900508  0.6078897517520676  0.14432140886823108  1.0000
  H   H3        1.0  0.1233381258487174  0.6165404543263608  0.027400350922163863  1.0000
  H   H4        1.0  0.11356618665270624  0.5748305642113347  0.5558375166543313  1.0000
  C   C7        1.0  0.10402474891006408  0.5684904316238477  0.3796974874225352  1.0000
  C   C8        1.0  0.12326025045538958  0.557438876972138  0.3518929899876085  1.0000
  C   C9        1.0  0.1295063798710421  0.5754199628149284  0.3206107545380971  1.0000
  C   C10       1.0  0.11672361659988661  0.6046817148287009  0.3171417698346364  1.0000
  C   C11       1.0  0.0975521179580574  0.6158479845167389  0.3450167215844034  1.0000
  C   C12       1.0  0.0911168626254375  0.5977342989081343  0.37625711519170596  1.0000
  H   H5        1.0  0.13324723956233775  0.5347964080809275  0.3544332123604802  1.0000
  H   H6        1.0  0.14412594700962372  0.5665349682930448  0.2991469185722685  1.0000
  H   H7        1.0  0.08753755259855467  0.6384615214043597  0.34235970232045054  1.0000
  H   H8        1.0  0.07618516205740211  0.6063615870701046  0.39759588032071386  1.0000
  C   C13       1.0  0.20144908121607535  0.4620306596584481  0.09439418206884599  1.0000
  C   C14       1.0  0.1809111024700738  0.44830131575083587  0.11846489419020408  1.0000
  C   C15       1.0  0.1786159189525056  0.45834723360327995  0.15539565199502203  1.0000
  C   C16       1.0  0.1966626653818414  0.4823271245776504  0.16812779710210174  1.0000
  C   C17       1.0  0.2178633783495108  0.495342599575283  0.14442253004910877  1.0000
  C   C18       1.0  0.22013418303384813  0.4853461617347956  0.10749887218750538  1.0000
  H   H9        1.0  0.1665415097038869  0.43012609124099216  0.10841432807913409  1.0000
  H   H10       1.0  0.16226367362974012  0.44817534737080905  0.1737346084357763  1.0000
  H   H11       1.0  0.23250259708183005  0.5131681812454851  0.15452517628163703  1.0000
  H   H12       1.0  0.23562774660351893  0.4963895418307626  0.08888012264922145  1.0000
  C   C19       1.0  0.2959444838920622  0.348366150598059  0.14565570992917948  1.0000
  C   C20       1.0  0.32721902174227663  0.34726504848438816  0.1422317601412376  1.0000
  C   C21       1.0  0.3412571890656134  0.36239799778501763  0.1126562624657055  1.0000
  C   C22       1.0  0.3241195806123375  0.3793078241396655  0.08706694332968612  1.0000
  C   C23       1.0  0.29288002907710375  0.3808361235990758  0.09088307559859236  1.0000
  C   C24       1.0  0.2787858262605813  0.3649664742292418  0.11977242661883628  1.0000
  H   H13       1.0  0.34060921763470187  0.33445505012455906  0.1621225605053893  1.0000
  H   H14       1.0  0.3654386821107211  0.3612068508734716  0.10985423444807843  1.0000
  H   H15       1.0  0.2794715437038087  0.39385787395301924  0.07126941147951854  1.0000
  H   H16       1.0  0.25457858011915524  0.3657808840862638  0.12218090478112538  1.0000
  C   C25       1.0  0.2885857968883789  0.359387797554493  0.4556371121087207  1.0000
  C   C26       1.0  0.2991166461245737  0.3383573751400485  0.42919934732247794  1.0000
  C   C27       1.0  0.30649485813141064  0.3481983999868396  0.39335445553500514  1.0000
  C   C28       1.0  0.3036422151621312  0.3792067017506534  0.38391219892531764  1.0000
  C   C29       1.0  0.29321239840353847  0.4003360561762369  0.41036233211265866  1.0000
  C   C30       1.0  0.28596918197983606  0.39049011684121077  0.4463675009552297  1.0000
  H   H17       1.0  0.3021372746926254  0.31448850967177505  0.43656468816045796  1.0000
  H   H18       1.0  0.3146483146683244  0.33175858197637614  0.3731845893265744  1.0000
  H   H19       1.0  0.2906872682748154  0.42429469875782333  0.4029993915913419  1.0000
  H   H20       1.0  0.27775270790150114  0.4068270829181499  0.46670361471628485  1.0000
  C   C31       1.0  0.22859484100895555  0.20408747131033933  0.3527648008743985  1.0000
  C   C32       1.0  0.23320048130827956  0.22724854326906177  0.3264976076092036  1.0000
  C   C33       1.0  0.2623502113997849  0.23742840388719905  0.31888335960483943  1.0000
  C   C34       1.0  0.28694346462762593  0.2243539279578138  0.3374327412143318  1.0000
  C   C35       1.0  0.2823552719951618  0.2008045621068491  0.36324817737618964  1.0000
  C   C36       1.0  0.2531826663318643  0.19074898178699548  0.37104634105751294  1.0000
  H   H21       1.0  0.21420816323826708  0.23754058148636956  0.3122376648499688  1.0000
  H   H22       1.0  0.26577229287132537  0.2553060231764303  0.2985942164751903  1.0000
  H   H23       1.0  0.3013471811009648  0.1905970416791217  0.3776005880806767  1.0000
  H   H24       1.0  0.24975176976117366  0.1728038506305427  0.3913231139840991  1.0000
  C   C37       1.0  0.065585474482033  0.10293771534062035  0.18021547134849783  1.0000
  C   C38       1.0  0.0669828588745045  0.13467049203632211  0.1859661429997217  1.0000
  C   C39       1.0  0.08643760114612009  0.15880188904800108  0.5772933450473687  1.0000
  C   C40       1.0  0.10312799372381105  0.14591883522808397  0.5482495509377163  1.0000
  C   C41       1.0  0.10122709447913338  0.11442956003300075  0.5409589091603283  1.0000
  C   C42       1.0  0.0854576464814858  0.08884974940465473  0.15522229575424823  1.0000
  H   H25       1.0  0.05132446629863274  0.14586480669652702  0.20446530517089695  1.0000
  H   H26       1.0  0.0874838755881131  0.1832513458629365  0.5826390191985361  1.0000
  H   H27       1.0  0.11340455920113414  0.10448759307300937  0.5179672534341049  1.0000
  H   H28       1.0  0.08445418842741036  0.06431769266677612  0.15059133394662827  1.0000
  C   C43       1.0  0.04677739344511345  0.10215133657406206  0.3849998901201081  1.0000
  C   C44       1.0  0.057606641693719096  0.08466513862867742  0.3551034616725457  1.0000
  C   C45       1.0  0.08499907841034249  0.06863330036104553  0.35843508740619934  1.0000
  C   C46       1.0  0.1017363311394831  0.07073735986104146  0.39133974720826603  1.0000
  C   C47       1.0  0.09042039302613003  0.08744564463980131  0.42143901986071763  1.0000
  C   C48       1.0  0.06293233126403774  0.10295038898983311  0.4183347224814919  1.0000
  H   H29       1.0  0.0452300411715747  0.08395948498788552  0.3292543974270887  1.0000
  H   H30       1.0  0.09381954477932841  0.055800372631794826  0.33506399814310583  1.0000
  H   H31       1.0  0.10327507557765145  0.08912856486978882  0.4469333481778308  1.0000
  H   H32       1.0  0.05478735550849145  0.11642347955316246  0.44138723563430543  1.0000
  C   C49       1.0  0.8941288761831305  0.9900907683357706  0.28972501890163505  1.0000
  C   C50       1.0  0.8700125563330959  0.005148940412083469  0.27235713469900397  1.0000
  C   C51       1.0  0.8710535276691291  0.03695544796546901  0.266379394051559  1.0000
  C   C52       1.0  0.895998681695034  0.05373684447500304  0.278256934715408  1.0000
  C   C53       1.0  0.9190323180444006  0.038950741340036954  0.2979209442623359  1.0000
  C   C54       1.0  0.918364293786657  0.0070998986478514325  0.30313426983744224  1.0000
  H   H33       1.0  0.8510793944512911  0.9921163031385017  0.2622286095912664  1.0000
  H   H34       1.0  0.852929160896238  0.048313870535627634  0.2515704304619115  1.0000
  H   H35       1.0  0.9373842960185542  0.05195603773344337  0.3091876490543998  1.0000
  H   H36       1.0  0.9366026590050337  0.9955895464142098  0.31757098088168556  1.0000
  C   C55       1.0  0.9092929447912973  0.6612538683071618  0.5397660011377736  1.0000
  C   C56       1.0  0.9270225581684653  0.6876064643129507  0.5416543498792115  1.0000
  C   C57       1.0  0.9563516979502855  0.6870373341100431  0.5273493007386229  1.0000
  C   C58       1.0  0.9680567010609098  0.6600097494694607  0.5116601458790392  1.0000
  C   C59       1.0  0.9500918544148231  0.6339123666823897  0.5092574092912614  1.0000
  C   C60       1.0  0.9208487086685945  0.6344911502473085  0.5234479455841773  1.0000
  H   H37       1.0  0.9182915980187335  0.7082751921041698  0.5544862965034125  1.0000
  H   H38       1.0  0.9701813500546111  0.7073110542518938  0.5292001858791393  1.0000
  H   H39       1.0  0.9586367725099698  0.613222355716884  0.49629833532672557  1.0000
  H   H40       1.0  0.9071224258891668  0.6141257560066452  0.5216983838617117  1.0000
  C   C61       1.0  0.8313430307719308  0.79443160441319  0.1876440564507301  1.0000
  C   C62       1.0  0.8446599096300726  0.8132486627067949  0.21458620117821478  1.0000
  C   C63       1.0  0.826696410123688  0.8319935354008534  0.2374412799732475  1.0000
  C   C64       1.0  0.795409776387694  0.8311557883758526  0.23401921295353809  1.0000
  C   C65       1.0  0.7821465441622469  0.8117432929335257  0.20774613112915657  1.0000
  C   C66       1.0  0.8000806742810044  0.7937368518618245  0.18427302995857425  1.0000
  H   H41       1.0  0.8688674224048903  0.8138448401301949  0.21725231300124187  1.0000
  H   H42       1.0  0.8370247802477273  0.8470173628875599  0.25769396694892066  1.0000
  H   H43       1.0  0.7579311038735035  0.8110951880995546  0.2051086877704281  1.0000
  H   H44       1.0  0.7896493701810001  0.7790408326603933  0.1639076121527507  1.0000
  C   C67       1.0  0.8060043877956321  0.808694813603398  0.4611949960085561  1.0000
  C   C68       1.0  0.8119170384569664  0.830652293754464  0.48864992321737644  1.0000
  C   C69       1.0  0.8121290162898159  0.8619679082413134  0.47944107750758325  1.0000
  C   C70       1.0  0.8068508568881665  0.8712649991501856  0.4427197383086421  1.0000
  C   C71       1.0  0.800865330048406  0.8493088004421995  0.4153332628791132  1.0000
  C   C72       1.0  0.8003692355064433  0.8180616069044908  0.42460091976332703  1.0000
  H   H45       1.0  0.8163463393930824  0.823517087777169  0.5169105239941613  1.0000
  H   H46       1.0  0.816767670054286  0.8789324285839892  0.500648375718059  1.0000
  H   H47       1.0  0.7965002518560212  0.8563455893944423  0.3870034335686584  1.0000
  H   H48       1.0  0.795683993261504  0.8011402815231426  0.4033311418648415  1.0000
  C   C73       1.0  0.6839123266568811  0.700694808886812  0.11696533287351482  1.0000
  C   C74       1.0  0.6968822641397062  0.7293950884175979  0.11075534832315365  1.0000
  C   C75       1.0  0.7197616750984321  0.7324899643733207  0.08429301833476244  1.0000
  C   C76       1.0  0.7290593521522845  0.7070405519469294  0.06338204988469265  1.0000
  C   C77       1.0  0.7147130783233111  0.6788416680495667  0.068012611333923  1.0000
  C   C78       1.0  0.692341578237658  0.6756193812137267  0.09495801166046422  1.0000
  H   H49       1.0  0.6899705928579264  0.7489992134353016  0.12726176299183484  1.0000
  H   H50       1.0  0.7300906128064828  0.7545348034067224  0.08000660916455814  1.0000
  H   H51       1.0  0.7215337383790412  0.6592130676701523  0.051472761083436236  1.0000
  H   H52       1.0  0.68159048210697  0.6537224651590318  0.0984722123946144  1.0000
  C   C79       1.0  0.42627697285755023  0.5021931077119244  0.5165597024191804  1.0000
  C   C80       1.0  0.4064537189669172  0.5245446765345234  0.5028391726977446  1.0000
  C   C81       1.0  0.3754134671456663  0.5213503401490585  0.5081178133891918  1.0000
  C   C82       1.0  0.36429809341112956  0.49597064702626503  0.5273813608571584  1.0000
  C   C83       1.0  0.38422314203153823  0.47413244979681396  0.5420043055441537  1.0000
  C   C84       1.0  0.415149870587129  0.4771408521095737  0.536385682488663  1.0000
  H   H53       1.0  0.41496935827280024  0.5439853943998998  0.48763649453892843  1.0000
  H   H54       1.0  0.3600159475410266  0.5382319318325327  0.4967083980687916  1.0000
  H   H55       1.0  0.37580092642586665  0.4546136176040608  0.5571548803506681  1.0000
  H   H56       1.0  0.43038070092686626  0.4597403545402397  0.5469588615287053  1.0000
  C   C85       1.0  0.5796613829604088  0.5867144945511773  0.5573668144670809  1.0000
  C   C86       1.0  0.5554187773804097  0.5907225841549105  0.5815040844343428  1.0000
  C   C87       1.0  0.556809667196772  0.5786687724476418  0.6175704539342586  1.0000
  C   C88       1.0  0.6225075345577842  0.554917565899302  0.10809370396450635  1.0000
  C   C89       1.0  0.644320136145871  0.5690511354683709  0.08626297658033359  1.0000
  C   C90       1.0  0.6378704940012327  0.576890235942254  0.04929117151511852  1.0000
  H   H57       1.0  0.5356700716437618  0.6032636340000628  0.5724543725660439  1.0000
  H   H58       1.0  0.5380111704916993  0.5817995031793243  0.6362034568307462  1.0000
  H   H59       1.0  0.6663866674293969  0.5733242850824939  0.09761178362832731  1.0000
  H   H60       1.0  0.6548878939876617  0.5876567628889842  0.03245825409392755  1.0000
  C   C91       1.0  0.5518815511613581  0.5795815998951727  0.34146283345134915  1.0000
  C   C92       1.0  0.5706709613458093  0.5896922163158229  0.37014014092835684  1.0000
  C   C93       1.0  0.5988741743380732  0.6019525889426137  0.36190832496565056  1.0000
  C   C94       1.0  0.6086551402956819  0.6036058782257618  0.32504590174474435  1.0000
  C   C95       1.0  0.5903705936080511  0.5923783256320752  0.296433354142569  1.0000
  C   C96       1.0  0.5619058476354991  0.5805283882729765  0.30463195972341633  1.0000
  H   H61       1.0  0.5634028114485067  0.5884406876101947  0.39869916305773834  1.0000
  H   H62       1.0  0.6130661877095365  0.6103293255921387  0.3841486516546033  1.0000
  H   H63       1.0  0.5979350112685082  0.5931810123809326  0.26796988762909096  1.0000
  H   H64       1.0  0.5475434801285294  0.5724419366465278  0.28240023734591696  1.0000
  C   C97       1.0  0.9698411308570404  0.22911167342752495  0.11607170443724957  1.0000
  C   C98       1.0  0.9597668544814598  0.25266662480755175  0.13944730526339438  1.0000
  C   C99       1.0  0.9627104056692598  0.24982029386767188  0.17807970658694974  1.0000
  C   C100      1.0  0.9753479685766632  0.22319664215645832  0.19345414822776238  1.0000
  C   C101      1.0  0.9861560779616682  0.19992573844971762  0.17004503992202372  1.0000
  C   C102      1.0  0.9831889848377134  0.2027988521204775  0.1313657505286695  1.0000
  H   H65       1.0  0.9499615775708211  0.2732465042840683  0.12771124656285796  1.0000
  H   H66       1.0  0.954578716231965  0.2679918997676997  0.19608295030584513  1.0000
  H   H67       1.0  0.9964252919342286  0.17955416646426955  0.18172574774665193  1.0000
  H   H68       1.0  0.9903408388775743  0.18422725987259989  0.11341421555591046  1.0000
  C   C103      1.0  0.9259945301537662  0.5135746269736813  0.36344962498742167  1.0000
  C   C104      1.0  0.9370517871727853  0.5403089654181079  0.38012182231900427  1.0000
  C   C105      1.0  0.9470833770832255  0.5398051764880206  0.41714180976839405  1.0000
  C   C106      1.0  0.9465546441250144  0.5124343680069335  0.4373915886904951  1.0000
  C   C107      1.0  0.9350495483259265  0.4858851839689196  0.4209849627558331  1.0000
  C   C108      1.0  0.9248216274736188  0.4864554957326806  0.3841125246040817  1.0000
  H   H69       1.0  0.9379170129853793  0.5614071700548542  0.3643388076367016  1.0000
  H   H70       1.0  0.9550149580340264  0.5606358919084197  0.4300329877291996  1.0000
  H   H71       1.0  0.9351185185791976  0.46456081460479026  0.43625008491413253  1.0000
  H   H72       1.0  0.9170864998272117  0.46560348540627683  0.371469595011337  1.0000
  C   C109      1.0  0.7988841246520676  0.5084182663060492  0.1953433909434178  1.0000
  C   C110      1.0  0.7716429233537789  0.5181658191818701  0.17958232677238817  1.0000
  C   C111      1.0  0.7610827703204646  0.5481719406446454  0.18585089786912065  1.0000
  C   C112      1.0  0.7782370585588844  0.5686216704001129  0.20697949849447986  1.0000
  C   C113      1.0  0.8060017044465159  0.5592060363256328  0.22148227499511441  1.0000
  C   C114      1.0  0.8161622074361796  0.5290128962886813  0.21603018157789972  1.0000
  H   H73       1.0  0.7582436076651273  0.5022664249986062  0.1635235113311485  1.0000
  H   H74       1.0  0.7396131937751258  0.5554058765673252  0.17453594451163076  1.0000
  H   H75       1.0  0.8192931642392456  0.5749938355835201  0.2378350816282411  1.0000
  H   H76       1.0  0.8374198753963848  0.5217096324394475  0.22782765092489574  1.0000
  C   C115      1.0  0.8280828477761265  0.4104566196783442  0.4036090691282132  1.0000
  C   C116      1.0  0.82076498929035  0.3848848923512519  0.4251104163533562  1.0000
  C   C117      1.0  0.8411875896885489  0.3736810162843331  0.4517014668962311  1.0000
  C   C118      1.0  0.8687915055768826  0.3881690662570011  0.45710844333504713  1.0000
  C   C119      1.0  0.875474972470749  0.41451042729134213  0.4366664257158535  1.0000
  C   C120      1.0  0.8551339067026607  0.42568706443009807  0.41006296008663895  1.0000
  H   H77       1.0  0.7998376971711143  0.3730333953524531  0.4202166592215367  1.0000
  H   H78       1.0  0.8355836561230598  0.35365639568157364  0.4675428267984915  1.0000
  H   H79       1.0  0.8967358148283843  0.42585313557312404  0.44065062017912154  1.0000
  H   H80       1.0  0.8605349008964494  0.44599442732595557  0.3942654249785802  1.0000
  C   C121      1.0  0.89221946211276  0.34125917963358915  0.22725204067843272  1.0000
  C   C122      1.0  0.8615497397849727  0.3367387794519393  0.23323735398956696  1.0000
  C   C123      1.0  0.8457203873329977  0.31557431349401965  0.2114907215275442  1.0000
  C   C124      1.0  0.8604261532151557  0.2994184364769787  0.18321879030185353  1.0000
  C   C125      1.0  0.891205083206685  0.3034180451291158  0.17782595670153345  1.0000
  C   C126      1.0  0.9071979869850803  0.3239700534482583  0.20020409726930447  1.0000
  H   H81       1.0  0.8499572485539996  0.3494118933630465  0.25460300197352415  1.0000
  H   H82       1.0  0.821916965487939  0.31235146684551757  0.21590377797930302  1.0000
  H   H83       1.0  0.9028382244240852  0.2904629198834529  0.1566917784525403  1.0000
  H   H84       1.0  0.9310242682434314  0.3271164976910613  0.19580019994616618  1.0000
  C   C127      1.0  0.4484143756847504  0.22811413288530488  0.18575976821704288  1.0000
  C   C128      1.0  0.4681408691724609  0.2411941483537811  0.21155083233267408  1.0000
  C   C129      1.0  0.46076702597318586  0.26917975690410983  0.22876693725281716  1.0000
  C   C130      1.0  0.4332953466553678  0.2837034245273773  0.22098863373387112  1.0000
  C   C131      1.0  0.41378160741497305  0.27087579190665456  0.1947744436083209  1.0000
  C   C132      1.0  0.4214922499804598  0.24328105958849028  0.1768629208481653  1.0000
  H   H85       1.0  0.4890835200331816  0.2298068097598796  0.21823067516328043  1.0000
  H   H86       1.0  0.4760104094841301  0.2791873473759498  0.24883002099937893  1.0000
  H   H87       1.0  0.39288933077571964  0.2823858126363343  0.18800517639182737  1.0000
  H   H88       1.0  0.40625907861815375  0.23330126386585845  0.1567848236700036  1.0000
  C   C133      1.0  0.6883652764366747  0.022129167085748636  0.3828850903818801  1.0000
  C   C134      1.0  0.6810000189134753  0.0027697517433060703  0.3531630070056729  1.0000
  C   C135      1.0  0.7024745318719167  0.9960770775707937  0.3258163852536175  1.0000
  C   C136      1.0  0.7313459697988121  0.008356300505722336  0.3286800149241629  1.0000
  C   C137      1.0  0.73899544717895  0.02647978336427581  0.3592436042628197  1.0000
  C   C138      1.0  0.7175482668447233  0.033350782774848264  0.3863664814747774  1.0000
  H   H89       1.0  0.6584701267944356  0.9938455632194666  0.3505843544892816  1.0000
  H   H90       1.0  0.6966698887189541  0.9817660576303368  0.3022585847276974  1.0000
  H   H91       1.0  0.7614327618153187  0.035311781821875776  0.36174417387321445  1.0000
  H   H92       1.0  0.7236990141949039  0.04716409012373357  0.4101621722924856  1.0000
  C   C139      1.0  0.7955613181888762  0.1514165534044151  0.4516201933873675  1.0000
  C   C140      1.0  0.8233538982632499  0.1583652243675145  0.46778698897357734  1.0000
  C   C141      1.0  0.8358487555832208  0.18755959510946707  0.46299669841324176  1.0000
  C   C142      1.0  0.8210143225095259  0.20934759078292428  0.4409510920721282  1.0000
  C   C143      1.0  0.7937654999962517  0.20195624762115577  0.42372079518293215  1.0000
  C   C144      1.0  0.7807806572773414  0.17317858716397275  0.4295506858768784  1.0000
  H   H93       1.0  0.8347739914367407  0.14151121327397034  0.48493389032301126  1.0000
  H   H94       1.0  0.8570292450776545  0.19313279699082264  0.47609398073080683  1.0000
  H   H95       1.0  0.7822439618336711  0.21881979284547107  0.4066727939779404  1.0000
  H   H96       1.0  0.7593508991406926  0.16784729776010754  0.4168829124519496  1.0000
  C   C145      1.0  0.6203979403566926  0.12197248776688441  0.5644880341664534  1.0000
  C   C146      1.0  0.6016409072675883  0.13254366773188164  0.5930602104974151  1.0000
  C   C147      1.0  0.5752551316490164  0.11667103831681036  0.6018097985670247  1.0000
  C   C148      1.0  0.5930693997328083  0.11791019732219978  0.13131478610710903  1.0000
  C   C149      1.0  0.5682528950660819  0.12822729942915045  0.11082052953319542  1.0000
  C   C150      1.0  0.6133346542285009  0.09487256784149901  0.5455975939618438  1.0000
  H   H97       1.0  0.6071283547273872  0.15345776411186862  0.6077994211434131  1.0000
  H   H98       1.0  0.5603106941817158  0.1255754016593782  0.6229290892223258  1.0000
  H   H99       1.0  0.5512006097467697  0.14223446870522222  0.12393809709361348  1.0000
  H   H100      1.0  0.5465776808626742  0.12923772834069375  0.05715452492841089  1.0000
  C   C151      1.0  0.6219173207451707  0.17898414157392423  0.360661152695218  1.0000
  C   C152      1.0  0.6014827573756094  0.17307516193588302  0.38915154458393175  1.0000
  C   C153      1.0  0.5707296797941996  0.17070356635042994  0.38105976823518123  1.0000
  C   C154      1.0  0.5604346975177634  0.1734116523442648  0.3444102962792751  1.0000
  C   C155      1.0  0.5807897737447021  0.1801017232198242  0.3160934709642033  1.0000
  C   C156      1.0  0.6114169578767908  0.18338903666380488  0.32432618466427593  1.0000
  H   H101      1.0  0.6093645192968149  0.17076489864742972  0.4174464409366055  1.0000
  H   H102      1.0  0.5549804666692602  0.16631604803146272  0.4030193117713196  1.0000
  H   H103      1.0  0.5730103943675616  0.1827127033892625  0.28782170928990514  1.0000
  H   H104      1.0  0.6270857282663802  0.1885575266336922  0.3023372221009672  1.0000
  C   C157      1.0  0.23846234805648683  0.03474869849967854  0.5906768323422177  1.0000
  C   C158      1.0  0.21793243720081412  0.058020366818442914  0.5814334815232434  1.0000
  C   C159      1.0  0.2246731383522438  0.07895116850128003  0.5531488130280805  1.0000
  C   C160      1.0  0.25189170514475134  0.07657179067749764  0.53400413119054  1.0000
  C   C161      1.0  0.273193632135669  0.0545628893307013  0.5449472168133487  1.0000
  C   C162      1.0  0.26647489005784  0.033665270283664395  0.5732651736741878  1.0000
  H   H105      1.0  0.19637804016914864  0.059127154524784675  0.5950619897860802  1.0000
  H   H106      1.0  0.20877596098288193  0.09684444710984907  0.5460657935897554  1.0000
  H   H107      1.0  0.2945473124479508  0.05305647511218714  0.5307529733234718  1.0000
  H   H108      1.0  0.2829581189618132  0.01664697754892841  0.5814622335029856  1.0000
  C   C163      1.0  0.39821334566610384  0.04733504206209771  0.14353855527117831  1.0000
  C   C164      1.0  0.4082348410833636  0.02058137712362229  0.16129901284712694  1.0000
  C   C165      1.0  0.4317410385535807  0.022023746722009463  0.18733682441775026  1.0000
  C   C166      1.0  0.44522283108118793  0.050183012341325606  0.19558039869098467  1.0000
  C   C167      1.0  0.4348990567201216  0.07696502177884468  0.17815826175168112  1.0000
  C   C168      1.0  0.41149169849081646  0.07552437301845205  0.15206484575468532  1.0000
  H   H109      1.0  0.39812579473877513  0.9987181099458964  0.15477187581190957  1.0000
  H   H110      1.0  0.439669962107962  0.0012720851191387883  0.20081817516151937  1.0000
  H   H111      1.0  0.4449708592636445  0.09883500833334669  0.1846975417890269  1.0000
  H   H112      1.0  0.4038061735694367  0.09627690261355792  0.13842660294136452  1.0000
  C   C169      1.0  0.2687096006034055  0.7287494804229349  0.24589080780638956  1.0000
  C   C170      1.0  0.29286578644105654  0.7092963527826012  0.25450741440348534  1.0000
  C   C171      1.0  0.2924047168148939  0.6784355098074958  0.24339832625196833  1.0000
  C   C172      1.0  0.2677737906660161  0.6669450773465961  0.22371439249918648  1.0000
  C   C173      1.0  0.24424779893746326  0.6867410536118385  0.21361433799628265  1.0000
  C   C174      1.0  0.24466795037660907  0.7176241226749236  0.22476998158066164  1.0000
  H   H113      1.0  0.31187958295890383  0.7178763334405205  0.2699834335604888  1.0000
  H   H114      1.0  0.3108848612220935  0.6633258228650046  0.25083272742137175  1.0000
  H   H115      1.0  0.225693854704325  0.6783060061163105  0.19729146120782726  1.0000
  H   H116      1.0  0.22613609564806478  0.7327239046448826  0.21757292084064112  1.0000
  C   C175      1.0  0.4148738332793885  0.6985246173297973  0.35895556530658823  1.0000
  C   C176      1.0  0.41963359124576133  0.7178540426432016  0.3894543839382526  1.0000
  C   C177      1.0  0.42943680083137825  0.705566682158862  0.4234076745843676  1.0000
  C   C178      1.0  0.43419771028448567  0.6738997943984927  0.4270407179418495  1.0000
  C   C179      1.0  0.4305113610405487  0.6547023116799471  0.39618022909431355  1.0000
  C   C180      1.0  0.42080130956207  0.6670220154049467  0.3621620955655423  1.0000
  H   H117      1.0  0.41592821723807466  0.7422857356550369  0.3868502785458205  1.0000
  H   H118      1.0  0.43305155906056153  0.7206041188415957  0.446960917576425  1.0000
  H   H119      1.0  0.43417075195839283  0.6302324481127601  0.39878329164766324  1.0000
  H   H120      1.0  0.41711163393539563  0.6520246249417816  0.3385754061195998  1.0000
  C   C181      1.0  0.2927739158135019  0.8079125030450993  0.4592331024403881  1.0000
  C   C182      1.0  0.277084122011681  0.8271735246098705  0.43478356676414104  1.0000
  C   C183      1.0  0.260827401565011  0.852480997620716  0.44839273917361516  1.0000
  C   C184      1.0  0.26011836953292544  0.8585681338448015  0.4865609417521058  1.0000
  C   C185      1.0  0.2746967765226151  0.8385533611684366  0.5111923884251642  1.0000
  C   C186      1.0  0.2910095677296497  0.8132464462935176  0.49755108442167767  1.0000
  H   H121      1.0  0.2773550868405396  0.822646831833197  0.4053972456086965  1.0000
  H   H122      1.0  0.24920261376024092  0.8676228914541971  0.4292439961509992  1.0000
  H   H123      1.0  0.2732334850503288  0.8424079181783868  0.5407607960016234  1.0000
  H   H124      1.0  0.30263906884649805  0.798117904760126  0.5166938351088656  1.0000
  C   C187      1.0  0.3771286487886702  0.8748567218155724  0.26191609828561924  1.0000
  C   C188      1.0  0.3866987598622522  0.8507843131827056  0.23894135857281845  1.0000
  C   C189      1.0  0.390399534201226  0.8556398163832692  0.20068314595063416  1.0000
  C   C190      1.0  0.3841877356257745  0.8844844876073465  0.18523719221038057  1.0000
  C   C191      1.0  0.3758683658722681  0.9088825170017069  0.20845908001057095  1.0000
  C   C192      1.0  0.37239583410180677  0.9040863411458966  0.24676023788975104  1.0000
  H   H125      1.0  0.391424970447811  0.8284522441062423  0.25064882879535183  1.0000
  H   H126      1.0  0.39736401942158495  0.8368126955585024  0.1829443516883874  1.0000
  H   H127      1.0  0.37200909434153  0.9314339175604163  0.19699628578943296  1.0000
  H   H128      1.0  0.3654094122284047  0.9229030666160475  0.26450975333573357  1.0000
  Fe  Fe65      1.0  0.36035196889775367  0.7405765167469919  0.8588818316841981  1.0000
  S   S129      1.0  0.40357781500915446  0.7631799111486106  0.8432634536709116  1.0000
  S   S130      1.0  0.35215156805987974  0.6915732802854639  0.842937442993948  1.0000
  Fe  Fe66      1.0  0.3347786081098488  0.7978990022818235  0.8939619338497178  1.0000
  S   S131      1.0  0.37561402534503074  0.8257431414219462  0.8815232535978281  1.0000
  S   S132      1.0  0.2952441279922584  0.8169356178432075  0.9249592600024912  1.0000
  Fe  Fe67      1.0  0.37419092536703735  0.8027285751186842  0.8258667355304392  1.0000
  S   S133      1.0  0.38273971033504367  0.8271899918012157  0.7719433294059563  1.0000
  Fe  Fe68      1.0  0.4010460673612009  0.783968371479414  0.9001716164994731  1.0000
  S   S134      1.0  0.4405285070287839  0.7924643763150822  0.9374593993360013  1.0000
  S   S135      1.0  0.33106124651158697  0.7783221767358288  0.8366570416288893  1.0000
  S   S136      1.0  0.3603590337393928  0.7578854990698727  0.9175966782857283  1.0000
  Fe  Fe69      1.0  0.2971664112024631  0.9591311072360937  0.11055058610869906  1.0000
  S   S137      1.0  0.3111115778358037  0.9928250921572043  0.0671757852873438  1.0000
  S   S138      1.0  0.24955778354913252  0.9533986488961679  0.12875273229829198  1.0000
  Fe  Fe70      1.0  0.2704484825396247  0.8990595861912019  0.6406609248181547  1.0000
  S   S139      1.0  0.29745990226666674  0.885972169453883  0.5904341764588114  1.0000
  S   S140      1.0  0.2635307077823532  0.8686692943596096  0.6903456571519044  1.0000
  Fe  Fe71      1.0  0.315352135484466  0.9337246510531356  0.5944801501053153  1.0000
  S   S141      1.0  0.3642808206038096  0.9412042533699149  0.58309636857505  1.0000
  Fe  Fe72      1.0  0.3357250424829222  0.9531519116592879  0.041855234282376585  1.0000
  S   S142      1.0  0.3359457295599487  0.9471868145928176  0.9799194351791272  1.0000
  S   S143      1.0  0.29179045439687423  0.9451446585356695  0.6479370871699144  1.0000
  S   S144      1.0  0.318462711594584  0.918775957151214  0.08233103397859454  1.0000
  Fe  Fe73      1.0  0.6494221299139756  0.11270423895429668  0.8975652159604058  1.0000
  S   S145      1.0  0.6420856401873486  0.06937587478808038  0.9296673730279671  1.0000
  S   S146      1.0  0.6387948902462942  0.11885944773039747  0.8369903226955101  1.0000
  Fe  Fe74      1.0  0.6775635831508011  0.14573307381467954  0.9630207030516095  1.0000
  S   S147      1.0  0.6728924504828779  0.10537398376652396  0.0010365646731718137  1.0000
  S   S148      1.0  0.6948622168401651  0.19086016502830133  0.9840083764455863  1.0000
  Fe  Fe75      1.0  0.6885245433882741  0.07771457312607533  0.9517465372622999  1.0000
  S   S149      1.0  0.7206754160237564  0.037908224615497366  0.958083878725036  1.0000
  Fe  Fe76      1.0  0.6271230130117934  0.10087578869751068  0.9756245054581221  1.0000
  S   S150      1.0  0.5844203317799506  0.09508803057792381  0.007994224228074831  1.0000
  S   S151      1.0  0.6971529923366959  0.1187384929750573  0.915874446595558  1.0000
  S   S152      1.0  0.6304291615047086  0.1436445579032899  0.941404828582418  1.0000
  Fe  Fe77      1.0  0.5142011735572316  0.059255817778001596  0.7237913155306587  1.0000
  S   S153      1.0  0.5328260731117077  0.1001228431415251  0.6939930757759158  1.0000
  S   S154      1.0  0.5377684281519036  0.0342993917265475  0.7703008045160504  1.0000
  Fe  Fe78      1.0  0.4534412459828899  0.0644916350323761  0.6848259748961105  1.0000
  S   S155      1.0  0.46737535133389163  0.10529573270909888  0.6514053268021773  1.0000
  S   S156      1.0  0.4048252661888165  0.05107142063441894  0.6845134752297347  1.0000
  Fe  Fe79      1.0  0.5107229490143492  0.07932766638318367  0.6437810411345136  1.0000
  S   S157      1.0  0.5323677957158266  0.0730095017322252  0.5876549940535748  1.0000
  Fe  Fe80      1.0  0.4877645261624691  0.12191665716209459  0.704746998114732  1.0000
  S   S158      1.0  0.48238619746298084  0.1713392968302112  0.7230527670856619  1.0000
  S   S159      1.0  0.49495277421230455  0.03673014238435446  0.6729774389841795  1.0000
  S   S160      1.0  0.4711434426041427  0.08269820165239183  0.7386734114510155  1.0000
  Fe  Fe81      1.0  0.9177244818584176  0.44821815147710653  0.7745240004742519  1.0000
  S   S161      1.0  0.896637777073121  0.4341373304214633  0.8282689044044544  1.0000
  S   S162      1.0  0.9610587145363996  0.4741784238101637  0.7703808067976888  1.0000
  Fe  Fe82      1.0  0.8648217728051629  0.4265400991256118  0.7285149517449246  1.0000
  S   S163      1.0  0.8386968557071707  0.410528512531682  0.7779122695378929  1.0000
  S   S164      1.0  0.8489901978066202  0.42492459259968696  0.6692791429353172  1.0000
  Fe  Fe83      1.0  0.8542437036812952  0.4543071649695305  0.8046208587618118  1.0000
  S   S165      1.0  0.8263621532155134  0.4885059864689874  0.836620825270452  1.0000
  Fe  Fe84      1.0  0.8831879427265932  0.39165452620726415  0.7972907578764281  1.0000
  S   S166      1.0  0.8894279223760428  0.3445413560283263  0.8216983161546287  1.0000
  S   S167      1.0  0.8764251300304396  0.47201037081000036  0.7533360292173883  1.0000
  S   S168      1.0  0.9081210942299985  0.40389059376349923  0.7452497377752725  1.0000
  Fe  Fe85      1.0  0.8577190922244052  0.2321040382269479  0.027549521679616884  1.0000
  S   S169      1.0  0.8968802137696126  0.2555891251813318  0.001269123438067954  1.0000
  S   S170      1.0  0.8361970277537597  0.19290529874749607  0.9971363713745502  1.0000
  Fe  Fe86      1.0  0.8618249467469022  0.2833213199567027  0.5650272713661904  1.0000
  S   S171      1.0  0.9060282903207055  0.30716262845312303  0.5608809396977237  1.0000
  S   S172      1.0  0.8374580480493071  0.2864409459659568  0.6192552334706523  1.0000
  Fe  Fe87      1.0  0.8762929848628672  0.29873894537571877  0.024560001137576615  1.0000
  S   S173      1.0  0.8681984000126564  0.34380103182245325  0.9956078061263685  1.0000
  Fe  Fe88      1.0  0.9200477205645033  0.2654204033250112  0.528811903935745  1.0000
  S   S174      1.0  0.9659947986107905  0.24509594150290173  0.5378621098519093  1.0000
  S   S175      1.0  0.8353280238891112  0.27555625605522166  0.04662432441330733  1.0000
  S   S176      1.0  0.8769271510485671  0.23976063978874113  0.5369552079451538  1.0000
  Fe  Fe89      1.0  0.502020667683133  0.6368530942718532  0.9903588801399312  1.0000
  S   S177      1.0  0.4712165992328894  0.6153345358395395  0.9483173590588573  1.0000
  S   S178      1.0  0.4957967015549377  0.6795107909711047  0.02445971973233063  1.0000
  Fe  Fe90      1.0  0.5523529690639272  0.5907461724993134  0.9774481005958473  1.0000
  S   S179      1.0  0.5262170188329311  0.5647167461081001  0.9347286156297627  1.0000
  S   S180      1.0  0.6014113498011564  0.5826121727379451  0.9886371115717839  1.0000
  Fe  Fe91      1.0  0.5126825065025616  0.6109898031375282  0.9132444505004682  1.0000
  S   S181      1.0  0.5135441964424793  0.6192682930430469  0.8516211858352837  1.0000
  Fe  Fe92      1.0  0.48717588208427515  0.5708514188590798  0.9735925714862436  1.0000
  S   S182      1.0  0.4587512118150556  0.5295911146603594  0.986344001416239  1.0000
  S   S183      1.0  0.5418827612635286  0.636674022880876  0.9529600183344317  1.0000
  S   S184      1.0  0.5148395409190171  0.5928445474359477  0.018648315973193164  1.0000
  Fe  Fe93      1.0  0.6915731406694061  0.5719777368852594  0.6899286981509649  1.0000
  S   S185      1.0  0.6698722317698831  0.5257459167360026  0.6879370720517393  1.0000
  S   S186      1.0  0.7282467129586545  0.5822663688420225  0.6494382708181192  1.0000
  Fe  Fe94      1.0  0.6564672089037125  0.5922491885271484  0.7573443423093492  1.0000
  S   S187      1.0  0.6321923934846136  0.5475939105197757  0.7617732664872428  1.0000
  S   S188      1.0  0.6480133926218208  0.6291215623809349  0.7995392487587417  1.0000
  Fe  Fe95      1.0  0.6769512523834147  0.5261501034179458  0.7497279767039061  1.0000
  S   S189      1.0  0.6927636150854021  0.4831354343313445  0.7784109272377425  1.0000
  Fe  Fe96      1.0  0.6274583609185647  0.5517838798317386  0.7000518972083349  1.0000
  S   S190      1.0  0.5827524776866312  0.5446460103818046  0.672916987427478  1.0000
  S   S191      1.0  0.7019438885654612  0.5705327948811771  0.7507595093000026  1.0000
  S   S192      1.0  0.6483848724416964  0.5982722809178175  0.6963300876615661  1.0000
  Fe  Fe97      1.0  0.7949034088890631  0.7339255225344267  0.6041517502395584  1.0000
  S   S193      1.0  0.8410372027143581  0.724728826982915  0.6265537331753357  1.0000
  S   S194      1.0  0.7549635967581495  0.7238130252109358  0.6398696677116896  1.0000
  Fe  Fe98      1.0  0.8073797706181655  0.8148093840345109  0.04090599616042501  1.0000
  S   S195      1.0  0.8549074952925536  0.8066069702029735  0.05876520225575321  1.0000
  S   S196      1.0  0.7900662268569826  0.8618331024802741  0.026606104330894054  1.0000
  Fe  Fe99      1.0  0.8534045242453839  0.7673100932689584  0.01876065798949167  1.0000
  S   S197      1.0  0.8914040278003236  0.7604418537064761  0.978953110362702  1.0000
  Fe  Fe100     1.0  0.8516142756889203  0.7707544830887638  0.6022846134983181  1.0000
  S   S198      1.0  0.8793984796807046  0.8034029660480341  0.6360771019733582  1.0000
  S   S199      1.0  0.8072632029168034  0.7778313479184327  0.9976325498315122  1.0000
  S   S200      1.0  0.8044598253861669  0.781543141012242  0.5838449050031538  1.0000
  Fe  Fe101     1.0  0.8102332631620255  0.9545514213435341  0.8097535855925443  1.0000
  S   S201      1.0  0.856725578547799  0.9695346465890509  0.8250013006858156  1.0000
  S   S202      1.0  0.7741612735379024  0.9906582859243598  0.8059776182523948  1.0000
  Fe  Fe102     1.0  0.8289127658659045  0.8881401250772899  0.7995724665742454  1.0000
  S   S203      1.0  0.8767848166265584  0.8975925255702252  0.8140247189177847  1.0000
  S   S204      1.0  0.814236145065327  0.8404449647156407  0.7849678708068876  1.0000
  Fe  Fe103     1.0  0.8576792512706873  0.9268748895863645  0.8594571105315796  1.0000
  S   S205      1.0  0.879926272612822  0.9245143435706513  0.9155117381620851  1.0000
  Fe  Fe104     1.0  0.8712642070502259  0.9390425429457719  0.7780110633592557  1.0000
  S   S206      1.0  0.9080856941034202  0.949447110401581  0.7374299462197442  1.0000
  S   S207      1.0  0.8098455014235598  0.9139567549267197  0.8479868065026345  1.0000
  S   S208      1.0  0.8246290397515813  0.9273784177228261  0.7596269825407187  1.0000
  Fe  Fe105     1.0  0.031593411953549255  0.1077529488724176  0.6748228930435043  1.0000
  S   S209      1.0  0.0564539500457486  0.14830673568610994  0.6975833507938725  1.0000
  S   S210      1.0  0.04478781055035563  0.08508451869808398  0.6208479728423022  1.0000
  Fe  Fe106     1.0  0.991239479218558  0.10336164333525977  0.7426681991593972  1.0000
  S   S211      1.0  0.013472444143789897  0.14313771622497964  0.7711310619264423  1.0000
  S   S212      1.0  0.9509384309331861  0.08347899455931751  0.7712142393182722  1.0000
  Fe  Fe107     1.0  0.010828463133240263  0.1651782521110513  0.7147933165630305  1.0000
  S   S213      1.0  0.9920696257164402  0.21277128274027285  0.706108037481948  1.0000
  Fe  Fe108     1.0  0.05671506033676943  0.12200731050938662  0.7510819873251088  1.0000
  S   S214      1.0  0.10076960025604631  0.11282888268381051  0.7805839900714255  1.0000
  S   S215      1.0  0.985871795489629  0.1267335885337637  0.6875752635968959  1.0000
  S   S216      1.0  0.034593573891053886  0.08018300645524801  0.7273001557442993  1.0000
  Fe  Fe109     1.0  0.143035536849857  0.13762766297595785  0.9850144133708361  1.0000
  S   S217      1.0  0.16873215910830464  0.168935080348174  0.022743966122864334  1.0000
  S   S218      1.0  0.11033117303438514  0.16094103185032504  0.9462368161545651  1.0000
  Fe  Fe110     1.0  0.1672749815762519  0.080525886141672  0.023153462329017493  1.0000
  S   S219      1.0  0.1944054764474611  0.10699272651702296  0.06472169099540426  1.0000
  S   S220      1.0  0.16382788664009057  0.02914326222868424  0.02240650752836948  1.0000
  Fe  Fe111     1.0  0.15383514761039005  0.13767522896848483  0.06828069046648833  1.0000
  S   S221      1.0  0.13519491699091105  0.16041626245911808  0.11946507378493831  1.0000
  Fe  Fe112     1.0  0.20691479030693458  0.13572630065506353  0.015421222984088212  1.0000
  S   S222      1.0  0.2554569239032723  0.14771084822705008  0.005840578671777008  1.0000
  S   S223      1.0  0.1253615528375378  0.10862791739986277  0.03111612159805799  1.0000
  S   S224      1.0  0.18263024680307965  0.10692868360343732  0.9732383576849393  1.0000
  Fe  Fe113     1.0  0.3360634759598744  0.2671976230299777  0.7937507756298287  1.0000
  S   S225      1.0  0.3841168899438587  0.27169317413763555  0.8110162404802181  1.0000
  S   S226      1.0  0.32170792705909756  0.26472355064322495  0.7339374950581482  1.0000
  Fe  Fe114     1.0  0.31339182439047014  0.2667548258571317  0.8733187380411428  1.0000
  S   S227      1.0  0.3595386733623462  0.27151378430296735  0.8978895075630065  1.0000
  S   S228      1.0  0.2712948895025805  0.26649920434681323  0.9077312205414657  1.0000
  Fe  Fe115     1.0  0.36654643073616555  0.30580360721180894  0.8523960217028225  1.0000
  S   S229      1.0  0.38810786151113713  0.35179466485842187  0.8589320957599476  1.0000
  Fe  Fe116     1.0  0.37277117126305287  0.23696906805083143  0.854373620381257  1.0000
  S   S230      1.0  0.4023736169962515  0.19612327025654694  0.8648594476803457  1.0000
  S   S231      1.0  0.3191669036028656  0.30428055367059037  0.831484891492588  1.0000
  S   S232      1.0  0.32587976280682485  0.2291885666981212  0.8335324064033941  1.0000
  Fe  Fe117     1.0  0.2754996618148243  0.4166445605842619  0.6136589522663153  1.0000
  S   S233      1.0  0.32108165448139364  0.4377261296294002  0.6168396840750419  1.0000
  S   S234      1.0  0.23956273979423032  0.42624697838387227  0.6561872628753349  1.0000
  Fe  Fe118     1.0  0.28249016338125227  0.4534272332045459  0.9508291048459142  1.0000
  S   S235      1.0  0.3261538320011467  0.46333657642494563  0.9788109114206115  1.0000
  S   S236      1.0  0.28552823173173536  0.448675692943682  0.8890948775104098  1.0000
  Fe  Fe119     1.0  0.33799826704813185  0.39058767845795844  0.6027601388545899  1.0000
  S   S237      1.0  0.3759841423547437  0.37085706854062483  0.6365853531875877  1.0000
  Fe  Fe120     1.0  0.30035762401443356  0.4994975125584842  0.009500771437542133  1.0000
  S   S238      1.0  0.3196562109352699  0.5468370384152491  0.013276905233733816  1.0000
  S   S239      1.0  0.29258756831531535  0.36889652429527564  0.6039208578024087  1.0000
  S   S240      1.0  0.25753119296894084  0.4921598610599124  0.9780122654671195  1.0000
  Fe  Fe121     1.0  0.9986547271994181  0.5561403987066428  0.944602761998269  1.0000
  S   S241      1.0  0.9814470048445184  0.5899074039173747  0.9026247532381769  1.0000
  S   S242      1.0  0.0014967119484285973  0.5054999016486105  0.9340094517303137  1.0000
  Fe  Fe122     1.0  0.006944643600577116  0.6047221678845789  0.004076532482746309  1.0000
  S   S243      1.0  0.9906639892745135  0.6428857513856546  0.9674416281786818  1.0000
  S   S244      1.0  0.017634481234935606  0.6135091273790793  0.06409145077396383  1.0000
  Fe  Fe123     1.0  0.9550612838502286  0.6097008363179265  0.9496475956557718  1.0000
  S   S245      1.0  0.9058800408262008  0.620230661349412  0.9436715788395417  1.0000
  Fe  Fe124     1.0  0.018608529430131693  0.6195619689337144  0.9238584423881988  1.0000
  S   S246      1.0  0.04687995331737116  0.645472387025095  0.8835772210089067  1.0000
  S   S247      1.0  0.9688928556419414  0.5734018773395708  0.9902244719716672  1.0000
  S   S248      1.0  0.03829471344082025  0.5840140249510712  0.9620898580407355  1.0000
  Fe  Fe125     1.0  0.207172363918822  0.6266909600084375  0.7825192672780591  1.0000
  S   S249      1.0  0.20170424259299555  0.5807300755472714  0.8093467671201555  1.0000
  S   S250      1.0  0.21402960877844737  0.667887470975179  0.8190997942452605  1.0000
  Fe  Fe126     1.0  0.19703462928569224  0.6017372777264224  0.7047216573785351  1.0000
  S   S251      1.0  0.1914171309796164  0.5536887263236507  0.7248862731554827  1.0000
  S   S252      1.0  0.1913983040606609  0.6083430544774763  0.6433809391230888  1.0000
  Fe  Fe127     1.0  0.1633289423471465  0.5751837838292466  0.7693779208332527  1.0000
  S   S253      1.0  0.1203122496231539  0.552416145032039  0.7856276034041313  1.0000
  Fe  Fe128     1.0  0.230255801100442  0.5639486051679278  0.7623878394619171  1.0000
  S   S254      1.0  0.2686395228535275  0.5311389187908768  0.7707352168238673  1.0000
  S   S255      1.0  0.1661527395361799  0.6229442119611572  0.7466644024542708  1.0000
  S   S256      1.0  0.23877936512859382  0.6103891604730377  0.7379456569499411  1.0000
  C   C193      1.0  0.05637807273265416  0.6143868352979627  0.07267351454368587  1.0000
  C   C194      1.0  0.06708939518335066  0.6116376881808184  0.10915352217987784  1.0000
  C   C195      1.0  0.13608263285134523  0.5849861304759981  0.6592016818682077  1.0000
  C   C196      1.0  0.15600515358100187  0.593814688954696  0.631299919999693  1.0000
  C   C197      1.0  0.14772188168049838  0.590397104701418  0.5939489749836085  1.0000
  C   C198      1.0  0.07671201466610644  0.6167856248653008  0.043299798067877315  1.0000
  H   H129      1.0  0.051415809115835875  0.6100964711722557  0.13198296352089978  1.0000
  H   H130      1.0  0.14212952970886872  0.5874640963401576  0.6880441666783496  1.0000
  H   H131      1.0  0.16309219233126626  0.5970103448521126  0.5722218501238764  1.0000
  H   H132      1.0  0.06859934392465528  0.620011993139945  0.015288666585531185  1.0000
  C   C199      1.0  0.0631817105262984  0.6192851764128665  0.8525976669507511  1.0000
  C   C200      1.0  0.08075477824514898  0.630062526329541  0.82339749893841  1.0000
  C   C201      1.0  0.0976003036589212  0.6094074030157548  0.801956460039192  1.0000
  C   C202      1.0  0.09668781972973105  0.5779515203929446  0.8094236250183134  1.0000
  C   C203      1.0  0.07762113468212606  0.5669694981927096  0.8370911047634888  1.0000
  C   C204      1.0  0.06100040092789172  0.5876707890231225  0.8588513077436618  1.0000
  H   H133      1.0  0.08193002881085398  0.6544509641568225  0.8179518745522588  1.0000
  H   H134      1.0  0.1111980372143403  0.6179153906948007  0.7796584630644715  1.0000
  H   H135      1.0  0.07661269787573999  0.5426040374135224  0.8428131659311152  1.0000
  H   H136      1.0  0.047334880174546345  0.5791388935275916  0.881227690983808  1.0000
  C   C205      1.0  0.24867983820871026  0.45247783169927214  0.6915299407086288  1.0000
  C   C206      1.0  0.27830125620629975  0.4617813093001374  0.6975519171362387  1.0000
  C   C207      1.0  0.28473890592888274  0.4847471024307885  0.7236592936740412  1.0000
  C   C208      1.0  0.26145789208950443  0.4985752476042565  0.7436963727611309  1.0000
  C   C209      1.0  0.2320747948611964  0.48802786846368074  0.7393696440021579  1.0000
  C   C210      1.0  0.22569397251921422  0.4649683104450426  0.7133513942014493  1.0000
  H   H137      1.0  0.2963218218951238  0.451547313149066  0.6821182622042682  1.0000
  H   H138      1.0  0.3075612969162733  0.4926608665851423  0.7271702293050951  1.0000
  H   H139      1.0  0.21417198247892633  0.4978270224240487  0.7559050625791164  1.0000
  H   H140      1.0  0.20278575562156553  0.4574379375622624  0.7094377786495406  1.0000
  C   C211      1.0  0.3390695769632023  0.29241099124175457  0.7060649474480067  1.0000
  C   C212      1.0  0.3615068504627712  0.3113554917073659  0.7205333146519799  1.0000
  C   C213      1.0  0.37397922966900343  0.3345063968426722  0.6984607928065142  1.0000
  C   C214      1.0  0.3637942196709254  0.33895188721860875  0.6619873412072452  1.0000
  C   C215      1.0  0.34222838088549157  0.3191906595808817  0.6471047621364975  1.0000
  C   C216      1.0  0.3298353431044985  0.29600632999736276  0.6691194310459866  1.0000
  H   H141      1.0  0.36886341742370715  0.3087438189044938  0.7489466956212962  1.0000
  H   H142      1.0  0.3907544928892666  0.34965809904918826  0.7100575777795143  1.0000
  H   H143      1.0  0.3350755038198597  0.3217764930664518  0.6185460365486753  1.0000
  H   H144      1.0  0.3126838330710621  0.28124408208760987  0.6576391029517735  1.0000
  C   C217      1.0  0.3135679481562964  0.4214498048630846  0.8800264217364373  1.0000
  C   C218      1.0  0.33651966663214883  0.4281819036125158  0.8549370668581339  1.0000
  C   C219      1.0  0.36003906434202393  0.40710375198666676  0.8494017263284108  1.0000
  C   C220      1.0  0.3597523375675669  0.37873696665383416  0.8675465914386895  1.0000
  C   C221      1.0  0.3365246106926357  0.37177388030455166  0.8921092561135346  1.0000
  C   C222      1.0  0.31377701089667936  0.3934377123757287  0.8989866926468126  1.0000
  H   H145      1.0  0.3364086609804755  0.44985268099474035  0.8402985368701594  1.0000
  H   H146      1.0  0.3779826721673969  0.4123816415842112  0.8302822192275083  1.0000
  H   H147      1.0  0.3362877882660714  0.34979392175584095  0.9060798629141025  1.0000
  H   H148      1.0  0.2960065270158448  0.3882392476689778  0.9183576521435098  1.0000
  C   C223      1.0  0.260694228867345  0.1816091107238103  0.9803747039296672  1.0000
  C   C224      1.0  0.2869884260887696  0.18547526229850442  0.959653686470607  1.0000
  C   C225      1.0  0.29067263517542874  0.21173819555467388  0.9375647678748543  1.0000
  C   C226      1.0  0.2681856065070381  0.23431916776571696  0.9365787443893916  1.0000
  C   C227      1.0  0.24241774088383097  0.23097384748916872  0.9583110247484067  1.0000
  C   C228      1.0  0.23864614253963967  0.20462817265711902  0.9800636222830024  1.0000
  H   H149      1.0  0.30422782904588724  0.16780631245312666  0.9599465086589698  1.0000
  H   H150      1.0  0.3107317790853677  0.21424937195504193  0.9209649198499996  1.0000
  H   H151      1.0  0.225129290471924  0.24858613686098552  0.9579529349288871  1.0000
  H   H152      1.0  0.2187243507090587  0.20223944475425362  0.9967195106711163  1.0000
  C   C229      1.0  0.06669488900562959  0.10869701554231948  0.5925749323408139  1.0000
  C   C230      1.0  0.06805085892718732  0.1402737671901335  0.599196029585512  1.0000
  C   C231      1.0  0.08882201219649022  0.15207655587347244  0.16778582025946553  1.0000
  C   C232      1.0  0.10867016076350061  0.1379956198910245  0.14278018069972198  1.0000
  C   C233      1.0  0.10679043297287734  0.10640471021758646  0.13622114067692537  1.0000
  C   C234      1.0  0.08299548804287517  0.09582216443435665  0.5631165163216671  1.0000
  H   H153      1.0  0.05444328227794526  0.15064065987718225  0.6206260546280113  1.0000
  H   H154      1.0  0.09009041404377194  0.1765412688979114  0.17280336136271002  1.0000
  H   H155      1.0  0.12212021117065458  0.09536362815526611  0.11702181320556049  1.0000
  H   H156      1.0  0.0815114609552159  0.0714707102305896  0.5574080316114721  1.0000
  C   C235      1.0  0.10213133541739317  0.12515576158177236  0.8271164115582724  1.0000
  C   C236      1.0  0.08377384622823314  0.14921776457552993  0.839540867449314  1.0000
  C   C237      1.0  0.08626549561289965  0.15980640817072467  0.8763065655570568  1.0000
  C   C238      1.0  0.10677468867726628  0.14609591534792554  0.900942442021795  1.0000
  C   C239      1.0  0.12482755015172715  0.12169624293127117  0.8887152061219062  1.0000
  C   C240      1.0  0.12268533772884839  0.11143630413039149  0.8517449270787161  1.0000
  H   H157      1.0  0.06799745010368241  0.16003667424580748  0.8206419832959931  1.0000
  H   H158      1.0  0.07224213384556122  0.17869975345893785  0.8856114807979539  1.0000
  H   H159      1.0  0.14048581440007504  0.11079322505718164  0.9076223242521869  1.0000
  H   H160      1.0  0.13679431566736908  0.09268142545883462  0.8422623371978539  1.0000
  C   C241      1.0  0.9187878244507444  0.9880107985694919  0.740617650767773  1.0000
  C   C242      1.0  0.8986852256448409  0.009875405130922665  0.75462928883076  1.0000
  C   C243      1.0  0.9083257073406605  0.03986253638214943  0.7615532372831049  1.0000
  C   C244      1.0  0.9380789861419323  0.04811836345333664  0.7544907265256128  1.0000
  C   C245      1.0  0.9577661884637092  0.02678258196463834  0.7383549405999285  1.0000
  C   C246      1.0  0.948074215970772  0.9966648808248272  0.7313828005082958  1.0000
  H   H161      1.0  0.8757521172435646  0.003646431293647945  0.760518413586855  1.0000
  H   H162      1.0  0.8928549350374293  0.05654631810616406  0.773211102417466  1.0000
  H   H163      1.0  0.980775148767862  0.03307106498630197  0.732848082852624  1.0000
  H   H164      1.0  0.9636379167228402  0.9798106808657193  0.7203088575264913  1.0000
  C   C247      1.0  0.8930693075759529  0.7224620018402266  0.9632770894615199  1.0000
  C   C248      1.0  0.8694676521349844  0.7023151191307625  0.9703641335134547  1.0000
  C   C249      1.0  0.872727256992827  0.6709875181447787  0.9621113891498309  1.0000
  C   C250      1.0  0.8997172926202806  0.6598480404939694  0.9472949224900983  1.0000
  C   C251      1.0  0.9226645704144796  0.6802736812616987  0.9384871007684403  1.0000
  C   C252      1.0  0.9192821305601817  0.7116209160891347  0.9462899306595032  1.0000
  H   H165      1.0  0.8489603730036551  0.7106820023597245  0.9829962347936027  1.0000
  H   H166      1.0  0.854840678084377  0.6552398752335106  0.9687369464260428  1.0000
  H   H167      1.0  0.9431761612668705  0.671886992237268  0.9259726704791645  1.0000
  H   H168      1.0  0.9374905710848567  0.7272162207511447  0.9405651134281722  1.0000
  C   C253      1.0  0.8616379148857496  0.811764120273785  0.6783136201414306  1.0000
  C   C254      1.0  0.8309717387873011  0.80615069454596  0.6827743813678328  1.0000
  C   C255      1.0  0.8164291978712455  0.8151344848439507  0.7155773844059834  1.0000
  C   C256      1.0  0.8325633188148012  0.8294022344857892  0.7440894438794389  1.0000
  C   C257      1.0  0.8632553737595008  0.8348189679549782  0.739777076435155  1.0000
  C   C258      1.0  0.8778153264813501  0.8258084582753343  0.7070085290237866  1.0000
  H   H169      1.0  0.8182716675528972  0.7955525783093058  0.6606522089970432  1.0000
  H   H170      1.0  0.7925285245814588  0.8118024842682656  0.7184742484518615  1.0000
  H   H171      1.0  0.8759019657310515  0.8456486364581682  0.7618014869026171  1.0000
  H   H172      1.0  0.9016232887941056  0.8298153102280039  0.7038619274342484  1.0000
  C   C259      1.0  0.8152130993818165  0.8817436094047528  0.9980853947273888  1.0000
  C   C260      1.0  0.8041885327060738  0.9013153599785336  0.9703229291492319  1.0000
  C   C261      1.0  0.8240807500453194  0.9155609074993438  0.9457085226003287  1.0000
  C   C262      1.0  0.8550460476840335  0.9106233011022563  0.9491687042177706  1.0000
  C   C263      1.0  0.8661399985085305  0.8925598279014985  0.9783143211804596  1.0000
  C   C264      1.0  0.8462427181654635  0.8778587574219647  0.0024522764602332714  1.0000
  H   H173      1.0  0.7802226914308444  0.904895880588873  0.9672284959063994  1.0000
  H   H174      1.0  0.8153933324189236  0.9305139281874988  0.9242340784006263  1.0000
  H   H175      1.0  0.8900997718537987  0.8890874747331317  0.981505691846899  1.0000
  H   H176      1.0  0.8550231440281688  0.8637322548512943  0.024540564765357376  1.0000
  C   C265      1.0  0.7375270548482329  0.6212790827183513  0.6498050687633297  1.0000
  C   C266      1.0  0.7607050611849349  0.6317358804425538  0.6270720984389394  1.0000
  C   C267      1.0  0.7668226763745181  0.6632033691110621  0.6248930251216546  1.0000
  C   C268      1.0  0.7492502467014418  0.684307457158087  0.6446979700590896  1.0000
  C   C269      1.0  0.7264888990737494  0.6738070400510042  0.6680868208432071  1.0000
  C   C270      1.0  0.7209261444784602  0.6422660858035383  0.6710530946273904  1.0000
  H   H177      1.0  0.7737933104107242  0.6155459472689373  0.6108461625891631  1.0000
  H   H178      1.0  0.784807819405943  0.6710566146140045  0.6073530026823513  1.0000
  H   H179      1.0  0.7129822465316292  0.6900546854406798  0.6836896963687915  1.0000
  H   H180      1.0  0.7033320446429275  0.634306975462082  0.6891585539892213  1.0000
  C   C271      1.0  0.4207367821196774  0.5364188588718937  0.996658169376433  1.0000
  C   C272      1.0  0.40627767030135525  0.563924537752428  0.9868926430088376  1.0000
  C   C273      1.0  0.3752961363980923  0.5676152365057877  0.9931290991115701  1.0000
  C   C274      1.0  0.35879311238198686  0.5436914680503394  0.008821930222976837  1.0000
  C   C275      1.0  0.3734459800580896  0.5166499982774031  0.0196566541435077  1.0000
  C   C276      1.0  0.40433352711568654  0.5130881390521133  0.0136767653737071  1.0000
  H   H181      1.0  0.41879348006353334  0.5820866671316335  0.973902079298612  1.0000
  H   H182      1.0  0.3640891556066158  0.5886786168655005  0.984919773809652  1.0000
  H   H183      1.0  0.3610589756666842  0.49853950814395626  0.033057220893737416  1.0000
  H   H184      1.0  0.4156679613061128  0.49235167376582784  0.02265799931068191  1.0000
  C   C277      1.0  0.6093993469493855  0.5711878067405198  0.03431619074095216  1.0000
  C   C278      1.0  0.5875235777345409  0.5571397552108766  0.05610550358334421  1.0000
  C   C279      1.0  0.5942156046044433  0.5486578157780787  0.09284807259416694  1.0000
  C   C280      1.0  0.5824094892963596  0.562531365774108  0.6294326009052263  1.0000
  C   C281      1.0  0.6070343886003264  0.5593516574644481  0.6056981467271512  1.0000
  C   C282      1.0  0.6055758706338306  0.5713119828728248  0.5695788526738808  1.0000
  H   H185      1.0  0.56562183843801  0.5523042322014471  0.04453124912419271  1.0000
  H   H186      1.0  0.5773536527216686  0.537583704038757  0.10964177503443784  1.0000
  H   H187      1.0  0.6268020664627355  0.5468041125075742  0.6147866457495417  1.0000
  H   H188      1.0  0.6241583451662659  0.5678632703730105  0.550726211796547  1.0000
  C   C283      1.0  0.5502401682145396  0.624898970929819  0.835366643158193  1.0000
  C   C284      1.0  0.5714112490021109  0.6401112524018262  0.8573723248913903  1.0000
  C   C285      1.0  0.6010605074699386  0.6431192668403161  0.8451136496635189  1.0000
  C   C286      1.0  0.6098170568389197  0.6303635026323707  0.8111095391072274  1.0000
  C   C287      1.0  0.5883943027163168  0.6163094750795599  0.788277921723543  1.0000
  C   C288      1.0  0.5585500330539133  0.6138089113919478  0.8003025494682359  1.0000
  H   H189      1.0  0.5650871686635637  0.6496700008491372  0.883820932136729  1.0000
  H   H190      1.0  0.6174965860633018  0.6543118604764941  0.8626421820381994  1.0000
  H   H191      1.0  0.5949139799270042  0.6067742138128127  0.7616858247754823  1.0000
  H   H192      1.0  0.5421884702987387  0.602334887625415  0.7829339646382765  1.0000
  C   C289      1.0  0.9728740509410171  0.23519388180564257  0.5844687652554424  1.0000
  C   C290      1.0  0.002419910705577122  0.23001842464261782  0.5965760281101131  1.0000
  C   C291      1.0  0.008287808176609346  0.22185948761414062  0.633618350439234  1.0000
  C   C292      1.0  0.984634414141809  0.21930660109767797  0.6588298075975423  1.0000
  C   C293      1.0  0.9550542053038527  0.22419255441724592  0.6466939245779022  1.0000
  C   C294      1.0  0.949150337990542  0.23221804847568583  0.6095642902265522  1.0000
  H   H193      1.0  0.02091855657181685  0.23311038355128455  0.5776158030714881  1.0000
  H   H194      1.0  0.031197018999882475  0.2184332023632181  0.6429844497881152  1.0000
  H   H195      1.0  0.9367493201097387  0.22162454973089896  0.6660537541197425  1.0000
  H   H196      1.0  0.9262753498130861  0.23591065212503373  0.600319579968428  1.0000
  C   C295      1.0  0.9746863962249046  0.4818420422442474  0.8151299615729518  1.0000
  C   C296      1.0  0.9876570218904636  0.5103035101769079  0.8229736815470396  1.0000
  C   C297      1.0  0.9968894493402549  0.5173086716415579  0.859288667543414  1.0000
  C   C298      1.0  0.9930537504643685  0.4959301658746194  0.8878142979204527  1.0000
  C   C299      1.0  0.9811386644693497  0.46704822694722314  0.8796508649256105  1.0000
  C   C300      1.0  0.9718728932340479  0.4600334916454134  0.843338304798077  1.0000
  H   H197      1.0  0.9899767308613868  0.5271903469397943  0.8012088230479841  1.0000
  H   H198      1.0  0.0071215477113832915  0.5391705403636465  0.8651409270160099  1.0000
  H   H199      1.0  0.9784363656744587  0.45031711876846603  0.9015769294973571  1.0000
  H   H200      1.0  0.9625127762305585  0.43773236966322926  0.8372443219544722  1.0000
  C   C301      1.0  0.7882009087633286  0.48657033011651946  0.8247156191802038  1.0000
  C   C302      1.0  0.7711662507883418  0.5136476407233355  0.8220289067003584  1.0000
  C   C303      1.0  0.7415145974549329  0.5127356467797017  0.8087198448233613  1.0000
  C   C304      1.0  0.7287113704057159  0.4847005855773279  0.7985794003870422  1.0000
  C   C305      1.0  0.7452771755478892  0.45747959818858297  0.8030591961761107  1.0000
  C   C306      1.0  0.7750895836195003  0.45842975537881764  0.8157220990032098  1.0000
  H   H201      1.0  0.7811483418917976  0.535432496713583  0.8293013541827811  1.0000
  H   H202      1.0  0.728589065120854  0.5337008847108644  0.8065632464248137  1.0000
  H   H203      1.0  0.7353075250504123  0.43567521149799926  0.7958068545561995  1.0000
  H   H204      1.0  0.7878904906114498  0.4373820201602102  0.8185779383753881  1.0000
  C   C307      1.0  0.8847314523422983  0.3451347798347092  0.8701854951943155  1.0000
  C   C308      1.0  0.896658942000533  0.32126347804932737  0.89186265112988  1.0000
  C   C309      1.0  0.8922083583682806  0.3210235559828035  0.9305034163044258  1.0000
  C   C310      1.0  0.8755513114185777  0.34446417794197554  0.9475535953244794  1.0000
  C   C311      1.0  0.8639052151048275  0.36848674550864247  0.9258871918505768  1.0000
  C   C312      1.0  0.8684761523094771  0.36883827425019683  0.887286685850597  1.0000
  H   H205      1.0  0.9096007387873964  0.3031159924057231  0.878800004271147  1.0000
  H   H206      1.0  0.9020219619290647  0.30293285709081186  0.9470925759229439  1.0000
  H   H207      1.0  0.8510463741349006  0.38672497289725094  0.9388945699233485  1.0000
  H   H208      1.0  0.8589845539462423  0.38722449417039345  0.8707240323015235  1.0000
  C   C313      1.0  0.8438327130947002  0.3866598569626694  0.6556136131519195  1.0000
  C   C314      1.0  0.837332458927066  0.3639298293837392  0.6818008760084022  1.0000
  C   C315      1.0  0.8339899671800963  0.33325386865137036  0.6704233081126699  1.0000
  C   C316      1.0  0.8382748028627632  0.32515163985648426  0.6331049950567279  1.0000
  C   C317      1.0  0.8447241403016295  0.3479798045683845  0.6070749687694508  1.0000
  C   C318      1.0  0.8470228806970274  0.3787025685797621  0.6182010048579517  1.0000
  H   H209      1.0  0.8346551170702925  0.36996443680419916  0.7107564480947466  1.0000
  H   H210      1.0  0.8287710225974398  0.31576468178534833  0.6906628771313134  1.0000
  H   H211      1.0  0.8478770785309239  0.3420943524189471  0.5782224908785634  1.0000
  H   H212      1.0  0.8518823420199124  0.39617169625349963  0.5978726944660132  1.0000
  C   C319      1.0  0.46006958702568973  0.17796748414129557  0.7625529675944706  1.0000
  C   C320      1.0  0.45892770266859934  0.20742752430699327  0.7782527508144425  1.0000
  C   C321      1.0  0.44143316767719026  0.21310485761682124  0.8099518244509055  1.0000
  C   C322      1.0  0.42523348315495807  0.18925829507891878  0.8262160782456012  1.0000
  C   C323      1.0  0.4265794759233861  0.1598227884977145  0.8107694984854171  1.0000
  C   C324      1.0  0.443629293669974  0.15432769802546692  0.7787638859830965  1.0000
  H   H213      1.0  0.47148198085261617  0.22592880772409143  0.7658338042070834  1.0000
  H   H214      1.0  0.44070898840053335  0.23585797272326306  0.8220463344725445  1.0000
  H   H215      1.0  0.4138296079191358  0.14139445843377066  0.8230602919777823  1.0000
  H   H216      1.0  0.4433940974095286  0.13190797474141447  0.7664314199271395  1.0000
  C   C325      1.0  0.7387442625241273  0.026385373025400005  0.9169120416119598  1.0000
  C   C326      1.0  0.7529864291733961  0.9976036498905265  0.9151632640400835  1.0000
  C   C327      1.0  0.7651675483896646  0.9869409275225011  0.8815074943750044  1.0000
  C   C328      1.0  0.7631689618223126  0.005077570689597577  0.8495280687023216  1.0000
  C   C329      1.0  0.7501861687377448  0.03437416782975622  0.8517022556711826  1.0000
  C   C330      1.0  0.7379179299416404  0.0449751529777529  0.8852827190893398  1.0000
  H   H217      1.0  0.7538610895315246  0.9831758253562124  0.9396116596061791  1.0000
  H   H218      1.0  0.7751455531745732  0.9643082208957298  0.8801440500092397  1.0000
  H   H219      1.0  0.7491744409403064  0.04871231856413427  0.8271926583030832  1.0000
  H   H220      1.0  0.7274977878766998  0.06735793342682861  0.8864822192775628  1.0000
  C   C331      1.0  0.7339843554930225  0.19068328090151207  0.9895235452993901  1.0000
  C   C332      1.0  0.748144571008715  0.21627467159659955  0.0051037003117004875  1.0000
  C   C333      1.0  0.7794974767074765  0.2166905844056426  0.00894315686513103  1.0000
  C   C334      1.0  0.796788005938205  0.1917335354303162  0.9966327830469124  1.0000
  C   C335      1.0  0.782549045008842  0.16604479497922978  0.9814326125037346  1.0000
  C   C336      1.0  0.7511756657908958  0.1653741870357184  0.9782473990299592  1.0000
  H   H221      1.0  0.734891682680406  0.23585526236116716  0.01399906545050622  1.0000
  H   H222      1.0  0.7901576019894427  0.23649329789836507  0.020906949200610203  1.0000
  H   H223      1.0  0.7957943933901551  0.14663348686278935  0.9719092509232885  1.0000
  H   H224      1.0  0.7404212376560028  0.14536120167119895  0.9666711640518336  1.0000
  C   C337      1.0  0.5885404442390066  0.10441910194899462  0.055125156230131145  1.0000
  C   C338      1.0  0.6138900252488796  0.09493100160218937  0.07526721047804674  1.0000
  C   C339      1.0  0.6161161726229935  0.10162825448931878  0.11338691291091041  1.0000
  C   C340      1.0  0.5676370211157253  0.09017939751002202  0.5819797794557366  1.0000
  C   C341      1.0  0.5869830824274115  0.0790342669894728  0.5543280863705498  1.0000
  C   C342      1.0  0.5658306916228703  0.12119664502104113  0.07291303160465579  1.0000
  H   H225      1.0  0.631390775487421  0.08173789853081703  0.06168295573943228  1.0000
  H   H226      1.0  0.635490090069435  0.09379531022734322  0.12906083389369494  1.0000
  H   H227      1.0  0.5813697660096712  0.05833109507675838  0.5392353569758375  1.0000
  H   H228      1.0  0.6279526302973917  0.0863582939539478  0.5238866818107071  1.0000
  C   C343      1.0  0.6111452596669857  0.09456565755435122  0.8190268154561723  1.0000
  C   C344      1.0  0.5936509022681562  0.07644710310993452  0.8424386979099849  1.0000
  C   C345      1.0  0.5714800801276568  0.05737023251040463  0.8273026831164118  1.0000
  C   C346      1.0  0.5666438337025872  0.05666337626283746  0.7888312385929962  1.0000
  C   C347      1.0  0.5844549125164463  0.07444145773435573  0.7654826159134964  1.0000
  C   C348      1.0  0.6066252566355995  0.09343154470346504  0.7805706920260815  1.0000
  H   H229      1.0  0.5967983584733757  0.07749382516975634  0.8721945002331863  1.0000
  H   H230      1.0  0.5576392830729313  0.04365419073867449  0.8454202233816343  1.0000
  H   H231      1.0  0.581374670725551  0.07331793723730096  0.7357018408149222  1.0000
  H   H232      1.0  0.6203007755558749  0.10724871928439272  0.7623589679136721  1.0000
  C   C349      1.0  0.22507670000489635  0.9759705501648973  0.10172067925776607  1.0000
  C   C350      1.0  0.23339089669831484  0.005303475880086284  0.08981629501301236  1.0000
  C   C351      1.0  0.21424053345796704  0.022353384122218323  0.06637618772592013  1.0000
  C   C352      1.0  0.18692519210019423  0.009873330401441338  0.05455207908810911  1.0000
  C   C353      1.0  0.17868043175803067  0.9805956511047323  0.06654670478892832  1.0000
  C   C354      1.0  0.19749593416706893  0.9638714371333663  0.0905076418780606  1.0000
  H   H233      1.0  0.2544825090297015  0.014863734326481248  0.09891660630564747  1.0000
  H   H234      1.0  0.22093519956679583  0.04474151976300722  0.05673218043388539  1.0000
  H   H235      1.0  0.1576175456556704  0.9708590944197814  0.05738389310142922  1.0000
  H   H236      1.0  0.19098019736615984  0.941234966246689  0.0996604947523907  1.0000
  C   C355      1.0  0.37604509247112633  0.9745458006990291  0.6061489996597179  1.0000
  C   C356      1.0  0.3547216209027077  0.9942966725954526  0.6219159978930922  1.0000
  C   C357      1.0  0.3639030019029796  0.018446228814220422  0.6449083691940902  1.0000
  C   C358      1.0  0.39445808500896545  0.023241808549025578  0.6517784843605059  1.0000
  C   C359      1.0  0.4159223166547611  0.00436627484603247  0.6346614730498239  1.0000
  C   C360      1.0  0.4066914310782132  0.9799365746078171  0.611865919291764  1.0000
  H   H237      1.0  0.3310754199994965  0.9907655837238603  0.6168799300217925  1.0000
  H   H238      1.0  0.3472540933630271  0.03318255753253241  0.6578464804923274  1.0000
  H   H239      1.0  0.43955357650655247  0.008008980075024041  0.6398581445416496  1.0000
  H   H240      1.0  0.4232669819025338  0.9647080404829973  0.5996717004053691  1.0000
  C   C361      1.0  0.31368048467474996  0.6837255881949607  0.8399027571971412  1.0000
  C   C362      1.0  0.29238197337482574  0.7048624657003515  0.8530436985981206  1.0000
  C   C363      1.0  0.26163615278189123  0.6994048155381156  0.8477955324571659  1.0000
  C   C364      1.0  0.2521877229227486  0.6727701263912609  0.8294993337979536  1.0000
  C   C365      1.0  0.2734399750354483  0.6509764637509226  0.8179390812607917  1.0000
  C   C366      1.0  0.30416150445584655  0.6565156670461566  0.8229744430554223  1.0000
  H   H241      1.0  0.2995785580612499  0.7254635360943282  0.8672011895772213  1.0000
  H   H242      1.0  0.24525304072838774  0.716121040099577  0.85729614238717  1.0000
  H   H243      1.0  0.2663117145685558  0.6300260595264747  0.8046685880362832  1.0000
  H   H244      1.0  0.3206028848233807  0.6400516161781878  0.8130060708060758  1.0000
  C   C367      1.0  0.4542021055011292  0.7605660955412623  0.9621533467812452  1.0000
  C   C368      1.0  0.44360566751016783  0.7308940438616592  0.9551744614672563  1.0000
  C   C369      1.0  0.45642180026313295  0.7056250294323143  0.9739459747509277  1.0000
  C   C370      1.0  0.47916170012092824  0.7102757429460682  0.0003903049263680458  1.0000
  C   C371      1.0  0.4889951858909795  0.740048983700891  0.007978815680528939  1.0000
  C   C372      1.0  0.47685798451974704  0.7650597169267496  0.9885523896843543  1.0000
  H   H245      1.0  0.4257424879407172  0.7274123664673223  0.9351870723055192  1.0000
  H   H246      1.0  0.4484151982961925  0.6826597238992093  0.9684688698622376  1.0000
  H   H247      1.0  0.506454285246078  0.7437345084292111  0.028476094402010377  1.0000
  H   H248      1.0  0.48514005853417114  0.7879345013266604  0.9939900490288527  1.0000
  C   C373      1.0  0.3029311443390253  0.8546470393202068  0.9383371192627733  1.0000
  C   C374      1.0  0.3194679538270748  0.87374684325723  0.9150564546108615  1.0000
  C   C375      1.0  0.3287649783208477  0.9025944967660701  0.9276827685083378  1.0000
  C   C376      1.0  0.3217633940155291  0.9122363072050597  0.9637241259240864  1.0000
  C   C377      1.0  0.30396756833070254  0.8937370679692299  0.9863501099956005  1.0000
  C   C378      1.0  0.29441314231716564  0.8650017840696285  0.973591469074712  1.0000
  H   H249      1.0  0.32513148783204654  0.8662501729173296  0.8872786934055257  1.0000
  H   H250      1.0  0.3420939536851079  0.9170572032150622  0.9098317242977195  1.0000
  H   H251      1.0  0.2975394291829112  0.9013750630400881  0.013651598909382168  1.0000
  H   H252      1.0  0.2813717950364252  0.8503189594614067  0.9915078906318199  1.0000
  C   C379      1.0  0.34966683155500056  0.8392567982143732  0.7496135924946605  1.0000
  C   C380      1.0  0.3226419037736063  0.8413611816773267  0.7691383097194482  1.0000
  C   C381      1.0  0.29627386326405913  0.8506253911653757  0.7507700002400434  1.0000
  C   C382      1.0  0.29695974922675716  0.8583163629029619  0.7130155006796771  1.0000
  C   C383      1.0  0.3240751532447159  0.8567468424546769  0.693608178893365  1.0000
  C   C384      1.0  0.35037922443887054  0.8470114011486554  0.7118663162147207  1.0000
  H   H253      1.0  0.32210024899534484  0.8362789109067452  0.7985133650031933  1.0000
  H   H254      1.0  0.27535423741418  0.8521846122687211  0.7659158680996565  1.0000
  H   H255      1.0  0.324643037303929  0.8624307240559608  0.6643739170352814  1.0000
  H   H256      1.0  0.37125059778485014  0.8452161600080067  0.6966630109299494  1.0000
  N   N1        1.0  0.30067407746743774  0.10918828154012017  0.0996009743258277  1.0000
  C   C385      1.0  0.3266958405216897  0.12155295474706396  0.12026577030002339  1.0000
  C   C386      1.0  0.27640326880989774  0.13252568177506396  0.09865520350951607  1.0000
  C   C387      1.0  0.2897521263063697  0.08119024557179344  0.11823111086477334  1.0000
  C   C388      1.0  0.30978960713195575  0.10150880057010525  0.06118219999757346  1.0000
  H   H257      1.0  0.3454733452950596  0.1045794969650915  0.1215197497378615  1.0000
  H   H258      1.0  0.3206888030966846  0.12744912895378424  0.14943306256605493  1.0000
  H   H259      1.0  0.33554856797390337  0.14262307874325875  0.10685859592480562  1.0000
  H   H260      1.0  0.25645920518464604  0.12395223880932926  0.08324172539082264  1.0000
  H   H261      1.0  0.2689352361993276  0.1389933456424337  0.12711615381936814  1.0000
  H   H262      1.0  0.28369948763669395  0.15379945644120574  0.08423487244927608  1.0000
  H   H263      1.0  0.2699755146631459  0.07143657283003702  0.10345162677524145  1.0000
  H   H264      1.0  0.28294524917654335  0.08598063365087794  0.14741383236490346  1.0000
  H   H265      1.0  0.3074621731470663  0.06298249712544957  0.11913907028871473  1.0000
  H   H266      1.0  0.29062057635180266  0.09221854235570381  0.04478326215972572  1.0000
  H   H267      1.0  0.32818217133943534  0.08398401706488867  0.060881435489138935  1.0000
  H   H268      1.0  0.3178893376670972  0.12214387836813656  0.046108394743590075  1.0000
  N   N2        1.0  0.14881934456184406  0.6422922477771621  0.9029184563193688  1.0000
  C   C389      1.0  0.18147418819310096  0.6362935564936801  0.9004744734113177  1.0000
  C   C390      1.0  0.14192531396174335  0.6582348905171121  0.9382416671698907  1.0000
  C   C391      1.0  0.13250278992012166  0.6128658895857476  0.9015198213324188  1.0000
  C   C392      1.0  0.13929851863351553  0.6618201782229115  0.8713768786132055  1.0000
  H   H269      1.0  0.19446005654364346  0.6580731863684075  0.9006343274651781  1.0000
  H   H270      1.0  0.1872495242966106  0.6241333028818661  0.8741677490905572  1.0000
  H   H271      1.0  0.18964521950645433  0.6219439288163316  0.924020482861489  1.0000
  H   H272      1.0  0.1486299261671784  0.6441164065361207  0.9627181654983216  1.0000
  H   H273      1.0  0.15385956160268915  0.680551190708195  0.9402634077109385  1.0000
  H   H274      1.0  0.11738086791532455  0.6631603505695814  0.9407279290812816  1.0000
  H   H275      1.0  0.10791408185914797  0.6165346200932161  0.9051156218305351  1.0000
  H   H276      1.0  0.14002624809588674  0.5969892996928713  0.9239215877901106  1.0000
  H   H277      1.0  0.13581019550630047  0.6008956831685515  0.8744018016305515  1.0000
  H   H278      1.0  0.14362867340663227  0.6502499448296243  0.8442343767531705  1.0000
  H   H279      1.0  0.15176071019365503  0.683884730072238  0.8709548908570626  1.0000
  H   H280      1.0  0.11485487362250202  0.6673803848383301  0.8727989867499953  1.0000
  N   N3        1.0  0.8718684983560664  0.7033213025573744  0.4365410797776666  1.0000
  C   C393      1.0  0.9029239281743561  0.7003476696095359  0.4508168082659707  1.0000
  C   C394      1.0  0.8682303097029479  0.6837950485396913  0.4032076586345317  1.0000
  C   C395      1.0  0.8657226719355142  0.7357389580898499  0.42675787849549185  1.0000
  C   C396      1.0  0.8505691821472166  0.6934039629260946  0.4654750164296487  1.0000
  H   H281      1.0  0.906414601326701  0.7151216399276006  0.47573633635604207  1.0000
  H   H282      1.0  0.9197211950409204  0.707234849070647  0.42965095408974363  1.0000
  H   H283      1.0  0.9082043239211445  0.6762757744461972  0.45913763910521566  1.0000
  H   H284      1.0  0.8449342732782138  0.6854315616439391  0.39194575454716185  1.0000
  H   H285      1.0  0.883861726698617  0.690710879211484  0.38070129176059075  1.0000
  H   H286      1.0  0.8728505230570778  0.6591960360586102  0.40969472815450514  1.0000
  H   H287      1.0  0.8677298318780841  0.7510462506171043  0.4515091976575473  1.0000
  H   H288      1.0  0.8424736092342292  0.7388895330393588  0.4157529659982003  1.0000
  H   H289      1.0  0.8815317624740361  0.7442342088590258  0.40531412359799374  1.0000
  H   H290      1.0  0.8268077581999346  0.6963176163706671  0.45625432584515907  1.0000
  H   H291      1.0  0.8532130224599818  0.7071448882318124  0.49125690504095443  1.0000
  H   H292      1.0  0.8542277875780834  0.6689302255971499  0.4733806536953695  1.0000
  N   N4        1.0  0.1272243392718577  0.1405537813336694  0.29891652708355776  1.0000
  C   C397      1.0  0.10844642210790509  0.15490122768303263  0.32810071526805673  1.0000
  C   C398      1.0  0.14168613068187544  0.16480292457594178  0.27670260124301854  1.0000
  C   C399      1.0  0.10821832172463151  0.12147255604861111  0.27439453382137524  1.0000
  C   C400      1.0  0.15060117992896047  0.12110552323541306  0.31652423150198705  1.0000
  H   H293      1.0  0.12202703586214488  0.1701664943006753  0.3464015182040676  1.0000
  H   H294      1.0  0.09795086524265262  0.1372908064666229  0.3462167284010141  1.0000
  H   H295      1.0  0.08995769163144574  0.16903211046181502  0.3159205805566683  1.0000
  H   H296      1.0  0.12469533603234131  0.18009887165747362  0.26328774530022664  1.0000
  H   H297      1.0  0.15644687127465817  0.17946002698784588  0.2943505361739803  1.0000
  H   H298      1.0  0.15588601341446162  0.15481128205115227  0.2542452528358928  1.0000
  H   H299      1.0  0.12162879406068151  0.11013147983388794  0.25211353872985637  1.0000
  H   H300      1.0  0.09052294240943093  0.13549326758738203  0.260456051956443  1.0000
  H   H301      1.0  0.09668969731226616  0.10313084298194442  0.2902559430839688  1.0000
  H   H302      1.0  0.16533870162392264  0.1348284582213008  0.33521319248192205  1.0000
  H   H303      1.0  0.16523602409248261  0.10985450013696085  0.29544070249872906  1.0000
  H   H304      1.0  0.14049100656680402  0.10264286188776284  0.3336528384319776  1.0000
  N   N5        1.0  0.11958976756699373  0.5148314561509998  0.06967740006275554  1.0000
  C   C401      1.0  0.0890858148659124  0.5284332398435416  0.06772468345830167  1.0000
  C   C402      1.0  0.1388546192459555  0.528925512455854  0.04112282972732073  1.0000
  C   C403      1.0  0.11784103807030645  0.4813976550963195  0.06292256824776321  1.0000
  C   C404      1.0  0.13266036611236987  0.5205815616572783  0.10687374187176164  1.0000
  H   H305      1.0  0.07397118907174338  0.5183433415776778  0.08894102299504088  1.0000
  H   H306      1.0  0.07856098082325214  0.5248276875053937  0.03993399046272872  1.0000
  H   H307      1.0  0.08953280149177621  0.553603907215799  0.07278759816963803  1.0000
  H   H308      1.0  0.1409824669789079  0.5541171928766004  0.045673463042741336  1.0000
  H   H309      1.0  0.16197523011848092  0.5188755084838824  0.0417457235468941  1.0000
  H   H310      1.0  0.1295839255659851  0.5253282040244099  0.012695561665094333  1.0000
  H   H311      1.0  0.14054397165343752  0.47055671356083584  0.0629777240295093  1.0000
  H   H312      1.0  0.10746854468359683  0.4762880621049125  0.03540813298803802  1.0000
  H   H313      1.0  0.10430955992491547  0.46976906239116367  0.084609481385194  1.0000
  H   H314      1.0  0.11936524438434132  0.5095629302767815  0.1292407787155394  1.0000
  H   H315      1.0  0.13355872362518897  0.545603755981208  0.11312537751841015  1.0000
  H   H316      1.0  0.15604920637632003  0.5115623334519519  0.10889148840759567  1.0000
  N   N6        1.0  0.5133638025969659  0.6705687088965469  0.331484181767731  1.0000
  C   C405      1.0  0.51465117954606  0.6862904628856652  0.2951595276756591  1.0000
  C   C406      1.0  0.4946147315177741  0.6428479936259479  0.3279947055045664  1.0000
  C   C407      1.0  0.5001055679613572  0.6914729484286524  0.35950319024257593  1.0000
  C   C408      1.0  0.5440453647563325  0.6616028779370982  0.34320136369277354  1.0000
  H   H317      1.0  0.5287369800694416  0.7072598900131529  0.2966817535680503  1.0000
  H   H318      1.0  0.49181268729469985  0.6934337509860206  0.2855481055270919  1.0000
  H   H319      1.0  0.5244235706474797  0.6709727785385009  0.27341927806041205  1.0000
  H   H320      1.0  0.49227611546141437  0.6308985785862768  0.3551570948399436  1.0000
  H   H321      1.0  0.47161536931086484  0.6485718102734763  0.317899550922165  1.0000
  H   H322      1.0  0.5045843044345683  0.6259122542155579  0.30822266169202434  1.0000
  H   H323      1.0  0.5141417715857276  0.7122046245615358  0.36378051758703844  1.0000
  H   H324      1.0  0.49771514426811647  0.6799007958917157  0.3869335970059848  1.0000
  H   H325      1.0  0.47736042478820173  0.6994876505761417  0.3508297647154935  1.0000
  H   H326      1.0  0.543846452087606  0.6491315989111102  0.3701627193593981  1.0000
  H   H327      1.0  0.5588687236559605  0.6818666422057431  0.3465448851103118  1.0000
  H   H328      1.0  0.5548335495486475  0.6460926852003379  0.32245852530617664  1.0000
  N   N7        1.0  0.8517289042652804  0.38652693174587655  0.11822435662196586  1.0000
  C   C409      1.0  0.8293793632072878  0.41141179051947824  0.12371766778281246  1.0000
  C   C410      1.0  0.8663211791155817  0.390096643775204  0.08163422697153871  1.0000
  C   C411      1.0  0.8365505286023301  0.35648096309418326  0.11959416074572705  1.0000
  C   C412      1.0  0.874655571990866  0.38806289416304246  0.1479950322206957  1.0000
  H   H329      1.0  0.8178316166098047  0.40929325675296646  0.1510162569116249  1.0000
  H   H330      1.0  0.8118057917617126  0.41123221900304296  0.10164887542376085  1.0000
  H   H331      1.0  0.8400633281012675  0.4344675130166429  0.12343556494722169  1.0000
  H   H332      1.0  0.883232279557343  0.37157226984945335  0.0765020139294242  1.0000
  H   H333      1.0  0.8497074125081405  0.3888639858042748  0.05843702088720248  1.0000
  H   H334      1.0  0.8780359142579012  0.4124900505982715  0.07944656720978878  1.0000
  H   H335      1.0  0.8527951134502942  0.33719702560502957  0.11572781326144042  1.0000
  H   H336      1.0  0.8192461022605853  0.3543869804356027  0.09734352802950688  1.0000
  H   H337      1.0  0.8252670808455078  0.3528658207866112  0.1467830377853249  1.0000
  H   H338      1.0  0.8918739162885154  0.3695668539721597  0.1448858890577095  1.0000
  H   H339      1.0  0.864379892371613  0.3854916736511403  0.17598065068300484  1.0000
  H   H340      1.0  0.8865553947713922  0.41044869172180687  0.14788544484994837  1.0000
  N   N8        1.0  0.35434670009342406  0.8942111623374961  0.4806388289453768  1.0000
  C   C413      1.0  0.35593327118774315  0.8725335714085704  0.5121645564108236  1.0000
  C   C414      1.0  0.3498493955338767  0.8769309530298495  0.44563234826035597  1.0000
  C   C415      1.0  0.38262843857503465  0.9116867555757613  0.47868127547695066  1.0000
  C   C416      1.0  0.3289434857656066  0.91575486930015  0.4862638767447012  1.0000
  H   H341      1.0  0.35947329637359693  0.8848300448275779  0.5390000228181303  1.0000
  H   H342      1.0  0.3746746878191256  0.8557302811079089  0.5087698638158559  1.0000
  H   H343      1.0  0.3348091026766105  0.859278823393913  0.5147688659850365  1.0000
  H   H344      1.0  0.36840628145998694  0.8601512630367238  0.44063479274356715  1.0000
  H   H345      1.0  0.3285638586908279  0.8637324708120786  0.44619586021128144  1.0000
  H   H346      1.0  0.348739031396595  0.8924931316200776  0.4211211588688299  1.0000
  H   H347      1.0  0.38218567827967304  0.9283798392917302  0.45528333369207824  1.0000
  H   H348      1.0  0.40232428786379776  0.8961779611553397  0.47453405442491176  1.0000
  H   H349      1.0  0.3865928244337737  0.9249708455983285  0.5047902979041285  1.0000
  H   H350      1.0  0.32674205345149  0.9322222786481287  0.4627998593047451  1.0000
  H   H351      1.0  0.33191421457500264  0.9294173519715848  0.5122058808942532  1.0000
  H   H352      1.0  0.30727186579176413  0.9033595952690078  0.4886246329213302  1.0000
  N   N9        1.0  0.30411105646892467  0.30418518688554663  0.012468047082184075  1.0000
  C   C417      1.0  0.3079987268570725  0.33597372600205294  0.9990724330261264  1.0000
  C   C418      1.0  0.2721294987866674  0.29566815673119534  0.009298349352787616  1.0000
  C   C419      1.0  0.3137414910387106  0.30206626056806374  0.05176296643337852  1.0000
  C   C420      1.0  0.3225339034534534  0.2830579329924829  0.9896356011035534  1.0000
  H   H353      1.0  0.29464861666069014  0.3525997861939897  0.0159183642215861  1.0000
  H   H354      1.0  0.30071030681960165  0.3384470964898093  0.9695673896157538  1.0000
  H   H355      1.0  0.3318953102772562  0.34319472567690296  0.0008903878333874626  1.0000
  H   H356      1.0  0.2576036872790033  0.3110980771012802  0.02634621755685007  1.0000
  H   H357      1.0  0.2641120786219424  0.29724857035763746  0.979986646263647  1.0000
  H   H358      1.0  0.2683757071953788  0.2716721313177156  0.01874149657978008  1.0000
  H   H359      1.0  0.33735522211487007  0.3097978900387887  0.05553253409915526  1.0000
  H   H360      1.0  0.3122276090903657  0.27814405743689563  0.06236796958371382  1.0000
  H   H361      1.0  0.2994687260718158  0.31673179079812513  0.06999994905115425  1.0000
  H   H362      1.0  0.31942560259554226  0.25868926593238795  0.9980196584868105  1.0000
  H   H363      1.0  0.3468810512795099  0.28838359118937246  0.9919806821923907  1.0000
  H   H364      1.0  0.3162915133128339  0.28472269161412234  0.9597471298539755  1.0000
  N   N10       1.0  0.9013710999939559  0.456379748059403  0.5482440540693898  1.0000
  C   C421      1.0  0.9015472068799153  0.48971105127306325  0.540515132186635  1.0000
  C   C422      1.0  0.8728621107820324  0.4431391207413392  0.5347592682986412  1.0000
  C   C423      1.0  0.9042117774634304  0.45111010634851745  0.5887109667432978  1.0000
  C   C424      1.0  0.926874907362803  0.4415243723398751  0.5288649992140716  1.0000
  H   H365      1.0  0.9228481743758841  0.5004620922321258  0.550104697697312  1.0000
  H   H366      1.0  0.8825944899880804  0.50181210083616  0.5544565336857785  1.0000
  H   H367      1.0  0.8997764335619711  0.4943245288741474  0.5100960266020491  1.0000
  H   H368      1.0  0.8722925232571351  0.4178704520415093  0.5393257639085255  1.0000
  H   H369      1.0  0.8531476336169426  0.453365600229405  0.5492386973796414  1.0000
  H   H370      1.0  0.8697840195584702  0.4470094980987032  0.5044090373581656  1.0000
  H   H371      1.0  0.9040663420977354  0.42612603856422493  0.5953598346243049  1.0000
  H   H372      1.0  0.8852560454749969  0.4618363564842274  0.6042941501990483  1.0000
  H   H373      1.0  0.9254875736892235  0.46077424454417043  0.5998706326929892  1.0000
  H   H374      1.0  0.9280831605885865  0.4164645130679261  0.5348349662165529  1.0000
  H   H375      1.0  0.9487055058458852  0.45188518307125347  0.5370794429233922  1.0000
  H   H376      1.0  0.9248076273687327  0.4440444720565643  0.49819254058338014  1.0000
  N   N11       1.0  0.9756729177176428  0.011184455894228673  0.20825433003879387  1.0000
  C   C425      1.0  0.9967973501759831  0.005573035932987747  0.1773148104115398  1.0000
  C   C426      1.0  0.952582168709684  0.9869585228527282  0.20855681355633865  1.0000
  C   C427      1.0  0.9610014037708196  0.041487997902820206  0.20329188930972325  1.0000
  C   C428      1.0  0.9923843456493818  0.01076679657671975  0.2438436270902252  1.0000
  H   H377      1.0  0.008324360135677944  0.9829249858118254  0.18015507163940273  1.0000
  H   H378      1.0  0.014576155939034718  0.023455239230624647  0.17646278985408254  1.0000
  H   H379      1.0  0.9850699867374263  0.0059683743753708995  0.149953039830143  1.0000
  H   H380      1.0  0.9360304134797705  0.9907831073932656  0.23121581661817112  1.0000
  H   H381      1.0  0.9397392647784383  0.9863321277590553  0.18198513363079558  1.0000
  H   H382      1.0  0.9627088216355787  0.9638035950478805  0.21307658275465433  1.0000
  H   H383      1.0  0.9451916278041628  0.04672905775400005  0.22636333829187907  1.0000
  H   H384      1.0  0.947949673676693  0.04258499117662162  0.17690189919075025  1.0000
  H   H385      1.0  0.9778187494233499  0.060245648880143055  0.2025944863528891  1.0000
  H   H386      1.0  0.977233304864204  0.015207668942158303  0.2678196323453026  1.0000
  H   H387      1.0  0.010176911664899979  0.028631108170361408  0.24439630892990394  1.0000
  H   H388      1.0  0.0035673218383873717  0.9881775462202241  0.2486664942808015  1.0000
  N   N12       1.0  0.8837863211307262  0.19376104147023449  0.19964960507640184  1.0000
  C   C429      1.0  0.8822917376658407  0.1768048017976624  0.23514871696460715  1.0000
  C   C430      1.0  0.9069987169815853  0.17960397541117715  0.17572274385518094  1.0000
  C   C431      1.0  0.8916490650799545  0.22609388758266044  0.2070841272995696  1.0000
  C   C432      1.0  0.8543465947521993  0.19264378380999855  0.18058331945840078  1.0000
  H   H389      1.0  0.8651059059556083  0.18691779135326028  0.25400728803739936  1.0000
  H   H390      1.0  0.9042718331461223  0.17728716865445143  0.2500947006692962  1.0000
  H   H391      1.0  0.8766083895299952  0.1522083998122998  0.23057288789669084  1.0000
  H   H392      1.0  0.9095217966299792  0.192307824651982  0.1490868943340493  1.0000
  H   H393      1.0  0.9292635120113367  0.17975246213545426  0.18971603219434474  1.0000
  H   H394      1.0  0.9016433082312252  0.15531782201894853  0.16893012705696653  1.0000
  H   H395      1.0  0.9127915305360427  0.22792233700327189  0.2234578769355644  1.0000
  H   H396      1.0  0.873687948433492  0.2382982310287967  0.2228156334156952  1.0000
  H   H397      1.0  0.8950325158906013  0.2388415821841089  0.18069627966992896  1.0000
  H   H398      1.0  0.8363221336547816  0.20328374984706296  0.19781037598863516  1.0000
  H   H399      1.0  0.8477309015024697  0.1686321069245641  0.17409268127583521  1.0000
  H   H400      1.0  0.854747560087096  0.20563289360659937  0.15396541229894511  1.0000
  N   N13       1.0  0.49068948380368144  0.7103494559708631  0.8583909832862529  1.0000
  C   C433      1.0  0.5068361426498252  0.7036535747090628  0.8234207655476865  1.0000
  C   C434      1.0  0.48383419517149406  0.7435733834403598  0.8604729053941191  1.0000
  C   C435      1.0  0.5097102765014624  0.7014337367523467  0.8904289257109993  1.0000
  C   C436      1.0  0.4624204386641472  0.6927386240966859  0.8592177059969037  1.0000
  H   H401      1.0  0.5122256019002349  0.6787585480847655  0.8207962520127485  1.0000
  H   H402      1.0  0.5284536344986235  0.7162378287211242  0.8219799007828544  1.0000
  H   H403      1.0  0.49312165945065645  0.7101066632511125  0.7986824912688988  1.0000
  H   H404      1.0  0.470799686053963  0.7493275825842465  0.8858951204459898  1.0000
  H   H405      1.0  0.5046767524840916  0.7574918419668324  0.8612714088400311  1.0000
  H   H406      1.0  0.470259687941023  0.7513457694813611  0.8361807909306811  1.0000
  H   H407      1.0  0.5317444264154667  0.7132824939228734  0.8900011948756569  1.0000
  H   H408      1.0  0.5142886931787141  0.6763115807765336  0.8905020595521128  1.0000
  H   H409      1.0  0.498701431432906  0.7071724073414202  0.917283999058087  1.0000
  H   H410      1.0  0.4499620925976582  0.6966448481889322  0.8855627943164769  1.0000
  H   H411      1.0  0.4668179464942464  0.667562620973762  0.8570237043014864  1.0000
  H   H412      1.0  0.44716482369594784  0.6992572909139277  0.8359002378906217  1.0000
  N   N14       1.0  0.9225261039815597  0.30336878256619  0.7002244308477931  1.0000
  C   C437      1.0  0.9024129160585639  0.27950513199347893  0.6851475223095672  1.0000
  C   C438      1.0  0.9214665843685739  0.33062749558895044  0.6758104706268062  1.0000
  C   C439      1.0  0.953611080844536  0.2912146045401316  0.7019149060470496  1.0000
  C   C440      1.0  0.9125812909330437  0.3121059999556218  0.737993921466211  1.0000
  H   H413      1.0  0.9083608247108729  0.27336173646212775  0.6560150247888475  1.0000
  H   H414      1.0  0.8786204513047144  0.2873983208935792  0.6848069919654105  1.0000
  H   H415      1.0  0.9035217856205501  0.25813083624893685  0.7020276687279312  1.0000
  H   H416      1.0  0.9286625569118773  0.32479073908798334  0.6470076910108763  1.0000
  H   H417      1.0  0.8983237313363194  0.3403358989158817  0.6739040227553457  1.0000
  H   H418      1.0  0.9363328532211941  0.34913858375645523  0.6864030728118614  1.0000
  H   H419      1.0  0.9693623001318491  0.30828626669156595  0.7139684292362625  1.0000
  H   H420      1.0  0.962069206953311  0.28490759254289744  0.6737986803017704  1.0000
  H   H421      1.0  0.9551585463754428  0.27011605559454394  0.719360803852819  1.0000
  H   H422      1.0  0.8892570065573725  0.3215729657106561  0.7378335455797329  1.0000
  H   H423      1.0  0.9272556301844772  0.3300182918936957  0.750451633176726  1.0000
  H   H424      1.0  0.9129656177017631  0.29210950512559075  0.7572269035517364  1.0000
  N   N15       1.0  0.5168696698824804  0.49365086767657235  0.6014037100776416  1.0000
  C   C441      1.0  0.543921689492165  0.4752933060356673  0.6107281335464892  1.0000
  C   C442      1.0  0.5078294229255231  0.5121161868027546  0.6340823181246257  1.0000
  C   C443      1.0  0.4920029074044358  0.4730261828461693  0.5909694272548586  1.0000
  C   C444      1.0  0.5236696302376206  0.5141984106660048  0.5698955685432566  1.0000
  H   H425      1.0  0.5396422567450404  0.4593677911631167  0.6342351566545542  1.0000
  H   H426      1.0  0.5629100816494541  0.4903747395615671  0.6192840658268932  1.0000
  H   H427      1.0  0.5515736073091441  0.4613933481825673  0.5865013267049196  1.0000
  H   H428      1.0  0.4880601636435016  0.5270414341148467  0.6277254761300636  1.0000
  H   H429      1.0  0.5019536128296161  0.49728519180954095  0.6580823760324671  1.0000
  H   H430      1.0  0.526271219187873  0.5272920187202453  0.6434913706055152  1.0000
  H   H431      1.0  0.4868411032612744  0.4564810257214125  0.6135393950809842  1.0000
  H   H432      1.0  0.4973485294652403  0.45962820605762794  0.5653968095433043  1.0000
  H   H433      1.0  0.4710954226702451  0.4863624740690312  0.585007321891964  1.0000
  H   H434      1.0  0.5047982086323682  0.5304493175731094  0.5641655823401093  1.0000
  H   H435      1.0  0.5277769945695447  0.501066958104722  0.5437833171374066  1.0000
  H   H436      1.0  0.5440726640778152  0.5280018002537126  0.5753082440765049  1.0000
  N   N16       1.0  0.8812241749729278  0.32573625049592125  0.35561013071449554  1.0000
  C   C445      1.0  0.8946362794821696  0.3055848175558052  0.3268926406386986  1.0000
  C   C446      1.0  0.9052350053443614  0.3432100790399833  0.3744390761701267  1.0000
  C   C447      1.0  0.8651747279712961  0.30686679286741175  0.3831503956075393  1.0000
  C   C448      1.0  0.8598734709663224  0.3473791611024235  0.33788771407341417  1.0000
  H   H437      1.0  0.8771051890062723  0.292573847116461  0.3115317936169068  1.0000
  H   H438      1.0  0.9105953899435796  0.28865739333213425  0.33933357842795175  1.0000
  H   H439      1.0  0.9073593390604502  0.3191174513344282  0.306025977898007  1.0000
  H   H440      1.0  0.8958944271640893  0.3588007213702596  0.3961182944569643  1.0000
  H   H441      1.0  0.9216654017617315  0.32765394132608067  0.38845560259434925  1.0000
  H   H442      1.0  0.9177820155355566  0.3577073747321672  0.35436778646701106  1.0000
  H   H443      1.0  0.8553141421241025  0.3212538791373998  0.40569231674224576  1.0000
  H   H444      1.0  0.8804154520202696  0.28977886931003516  0.39655205058391796  1.0000
  H   H445      1.0  0.8464660479216218  0.29379429106954974  0.3701719076514301  1.0000
  H   H446      1.0  0.8496162371506791  0.3632041132830514  0.35861982314715496  1.0000
  H   H447      1.0  0.841230824746883  0.3351238946117816  0.3236939487698946  1.0000
  H   H448      1.0  0.8712657579466605  0.36178877839892865  0.3168054945202383  1.0000
  N   N17       1.0  0.13547000029423462  0.0745948643267964  0.667054617154014  1.0000
  C   C449      1.0  0.12215465591713899  0.056138513711870175  0.6971675507225781  1.0000
  C   C450      1.0  0.16825549832822534  0.07699181461467464  0.6728817790907112  1.0000
  C   C451      1.0  0.12179201227684233  0.10561911048471506  0.6673411096076837  1.0000
  C   C452      1.0  0.12950901658330455  0.05967689046280289  0.6308425075230352  1.0000
  H   H449      1.0  0.0973920226772225  0.053909652713160616  0.6934090241219568  1.0000
  H   H450      1.0  0.1257849813207842  0.06702039387957615  0.7248925760355875  1.0000
  H   H451      1.0  0.13198538290801684  0.032582127754735124  0.6980657452748302  1.0000
  H   H452      1.0  0.17882711982330185  0.09129663001819033  0.6509676298368604  1.0000
  H   H453      1.0  0.17351322411371276  0.08765882626509991  0.7002689469127794  1.0000
  H   H454      1.0  0.17943080759163677  0.05398216286745616  0.6720427143927385  1.0000
  H   H455      1.0  0.13081736322267057  0.12029629361467209  0.6447301128869174  1.0000
  H   H456      1.0  0.12560560219595343  0.11754155890894546  0.6943787908245895  1.0000
  H   H457      1.0  0.09709588414144078  0.10437071541857845  0.6631785003408854  1.0000
  H   H458      1.0  0.13811535826661814  0.07368803063334761  0.6073639271156632  1.0000
  H   H459      1.0  0.10495918644275068  0.0566073041246522  0.6261696878775299  1.0000
  H   H460      1.0  0.14032721717080596  0.036575757352308  0.6291833228025097  1.0000
  N   N18       1.0  0.027012861275996336  0.5119837116262727  0.34798292490882776  1.0000
  C   C453      1.0  0.05724079422842454  0.5036143016756233  0.33423575709405695  1.0000
  C   C454      1.0  0.02402333457124861  0.545782472766927  0.3498421913309889  1.0000
  C   C455      1.0  0.022745553447218292  0.4989659029052496  0.3855123246302824  1.0000
  C   C456      1.0  0.004030115644038101  0.49962216254825786  0.32237629320344213  1.0000
  H   H461      1.0  0.06000970161897956  0.47829475591046705  0.33160430806157914  1.0000
  H   H462      1.0  0.07506589393846386  0.5117570406500428  0.3535371262087242  1.0000
  H   H463      1.0  0.06172193397961623  0.5140327578553797  0.3065934768880895  1.0000
  H   H464      1.0  0.0013857954083593693  0.552860364760742  0.3599510282401946  1.0000
  H   H465      1.0  0.04088234497909404  0.5557879999501844  0.3691792664864644  1.0000
  H   H466      1.0  0.027438544216402905  0.5565378116259677  0.3221592782811799  1.0000
  H   H467      1.0  0.00018071634773364487  0.5048552817412012  0.3967299946762479  1.0000
  H   H468      1.0  0.03968775393430035  0.507959169941056  0.40557519268696424  1.0000
  H   H469      1.0  0.024824878772327086  0.47350035410676605  0.3853256947580873  1.0000
  H   H470      1.0  0.005210415161043702  0.47412867210523457  0.32063729902417226  1.0000
  H   H471      1.0  0.006568553810859301  0.5089366858603152  0.2937855678153733  1.0000
  H   H472      1.0  0.9810008472252738  0.5057779993251147  0.3317184627647442  1.0000
  N   N19       1.0  0.23957862266922914  0.5270337321008496  0.6136478208243673  1.0000
  C   C457      1.0  0.2591196869280925  0.5015074567956729  0.6009883369355343  1.0000
  C   C458      1.0  0.23663228142435455  0.5499397018301685  0.5835710108372473  1.0000
  C   C459      1.0  0.25297051654847785  0.5416113119146134  0.6468834988800972  1.0000
  C   C460      1.0  0.20956813689066023  0.51509165108405  0.6231069902901564  1.0000
  H   H473      1.0  0.2618660633883121  0.4837311653206589  0.622881854460838  1.0000
  H   H474      1.0  0.28198969623515135  0.5096195396319669  0.593524562647775  1.0000
  H   H475      1.0  0.24962979659831536  0.4899750159688041  0.5759972300005125  1.0000
  H   H476      1.0  0.25886648270000745  0.5594856892391891  0.5758736773535613  1.0000
  H   H477      1.0  0.22660217456181134  0.53963486398244  0.5580925776429098  1.0000
  H   H478      1.0  0.22192151635999963  0.5694993564470457  0.5920438512274466  1.0000
  H   H479      1.0  0.23904822985138668  0.5613496575965355  0.656730170260586  1.0000
  H   H480      1.0  0.27589782862611484  0.5503320956489698  0.6411221453408242  1.0000
  H   H481      1.0  0.25484825143488177  0.5250884213223559  0.6703324774753011  1.0000
  H   H482      1.0  0.21103509749034327  0.4974675453056271  0.6454427561953315  1.0000
  H   H483      1.0  0.19864511063673407  0.5040804148742931  0.5986610712393153  1.0000
  H   H484      1.0  0.1943677072080525  0.5338135099438845  0.6330862176100333  1.0000
  N   N20       1.0  0.23949510936324736  0.9668405695604436  0.9666364642720975  1.0000
  C   C461      1.0  0.23366595496233608  0.935554344896299  0.9524567577213239  1.0000
  C   C462      1.0  0.21125621039548573  0.9849037097506549  0.9663584740108511  1.0000
  C   C463      1.0  0.2618678286577735  0.9819875126132928  0.9427400046103284  1.0000
  C   C464      1.0  0.2511908567842104  0.9649938477403911  0.005069401531125672  1.0000
  H   H485      1.0  0.254628955952163  0.9214799173708458  0.9516879317583652  1.0000
  H   H486      1.0  0.22439232196992176  0.9361059802492523  0.9236974080351618  1.0000
  H   H487      1.0  0.21731508018852985  0.9232744733143773  0.9703217659979783  1.0000
  H   H488      1.0  0.19391465651295064  0.9743330929900471  0.9844323484850838  1.0000
  H   H489      1.0  0.21484133605397301  0.008673707038538092  0.9769092039884845  1.0000
  H   H490      1.0  0.20155539549879184  0.9868188369678028  0.93791993499606  1.0000
  H   H491      1.0  0.26734399978568585  0.0053638835254896655  0.9532426962421878  1.0000
  H   H492      1.0  0.2536067795241129  0.9843024463747136  0.9136527636478856  1.0000
  H   H493      1.0  0.2833068444033048  0.9686675018214332  0.9418294751574277  1.0000
  H   H494      1.0  0.2351085606795377  0.953355319951623  0.02390517075668841  1.0000
  H   H495      1.0  0.25535949262518676  0.9882383234246257  0.01677109965338386  1.0000
  H   H496      1.0  0.2728075552668585  0.9520889543508418  0.006332050075692486  1.0000
  N   N21       1.0  0.5871858964340387  0.6609946391445777  0.08150769142822348  1.0000
  C   C465      1.0  0.5576526745668092  0.6656136495563612  0.09939499434609396  1.0000
  C   C466      1.0  0.6025635269463475  0.6908158476880285  0.07813556352570318  1.0000
  C   C467      1.0  0.582734429065524  0.6476142987048223  0.04415651979601387  1.0000
  C   C468      1.0  0.6057440934708905  0.6399196439269187  0.10431611029534203  1.0000
  H   H497      1.0  0.5452814729872072  0.6435655042781503  0.10174311228879751  1.0000
  H   H498      1.0  0.5431308807059467  0.681601668709167  0.0830040825121038  1.0000
  H   H499      1.0  0.560132888597907  0.6753309485231462  0.12786490887566598  1.0000
  H   H500      1.0  0.6253333142458103  0.6879775457646835  0.06578412064509631  1.0000
  H   H501      1.0  0.5895523936014951  0.707068366330311  0.06036336391704244  1.0000
  H   H502      1.0  0.6056811251143218  0.7018708801622456  0.10581414144603848  1.0000
  H   H503      1.0  0.6045076412021555  0.6438240650731494  0.029643168329377856  1.0000
  H   H504      1.0  0.5684260757798254  0.6627222481963813  0.026383269190513255  1.0000
  H   H505      1.0  0.5714453145922629  0.624965100274564  0.04580399432973814  1.0000
  H   H506      1.0  0.6279782556021183  0.635449609312891  0.09127602328959664  1.0000
  H   H507      1.0  0.5946563634874189  0.6173027350338578  0.10806011730514904  1.0000
  H   H508      1.0  0.6101095594395434  0.6496995230497422  0.132390585781923  1.0000
  N   N22       1.0  0.4989383262186723  0.05333516660761184  0.09140392378532249  1.0000
  C   C469      1.0  0.4853966685190797  0.08441494014041373  0.08976224292639695  1.0000
  C   C470      1.0  0.5177121863908893  0.05056271797419054  0.1252494025990961  1.0000
  C   C471      1.0  0.5177676838193203  0.04814497304254339  0.05817157866424316  1.0000
  C   C472      1.0  0.4748127300447967  0.030227559182279373  0.09250212537987275  1.0000
  H   H509      1.0  0.4712314184545495  0.08743330957915263  0.06446599470395964  1.0000
  H   H510      1.0  0.5029101156910857  0.10250505537900434  0.08942712948249773  1.0000
  H   H511      1.0  0.47080973826681266  0.08896484672170524  0.1142598835765364  1.0000
  H   H512      1.0  0.5041268223298309  0.05409145441831531  0.15089264425453222  1.0000
  H   H513      1.0  0.5283445497218555  0.027431080550559317  0.12740762395987265  1.0000
  H   H514      1.0  0.5360483386014177  0.06783650020933152  0.1255608533663504  1.0000
  H   H515      1.0  0.528372223353702  0.02492286155092005  0.05844057098711896  1.0000
  H   H516      1.0  0.5362667894541202  0.0651235935760337  0.0565483933542732  1.0000
  H   H517      1.0  0.5044313282980502  0.050294112702470306  0.032066367282674424  1.0000
  H   H518      1.0  0.4840929715088058  0.0064519544030186005  0.09375254370028288  1.0000
  H   H519      1.0  0.4598539394103315  0.031871152515700274  0.0677087173565559  1.0000
  H   H520      1.0  0.4604121299624821  0.03345685606102444  0.11741266639183268  1.0000
  N   N23       1.0  0.27704506952254565  0.7533209592852727  0.7465600947734624  1.0000
  C   C473      1.0  0.2674641212817209  0.771611334209072  0.7139511039811277  1.0000
  C   C474      1.0  0.2660085877106003  0.7683137741807321  0.7808480365771724  1.0000
  C   C475      1.0  0.3102164854938199  0.7513068439752542  0.747670181717754  1.0000
  C   C476      1.0  0.26449206111766993  0.722045618344651  0.7438673409847126  1.0000
  H   H521      1.0  0.24256375815736383  0.7738179841253906  0.7123646143648772  1.0000
  H   H522      1.0  0.27534970960489086  0.7610756476483798  0.687497633991701  1.0000
  H   H523      1.0  0.27662100848195875  0.7953283319196356  0.7151306320387132  1.0000
  H   H524      1.0  0.2726186537961918  0.7550452989469406  0.8060030695274831  1.0000
  H   H525      1.0  0.2752610301991615  0.7918592508955237  0.7840291295459205  1.0000
  H   H526      1.0  0.24107830415459533  0.7703594855126119  0.7809001182103721  1.0000
  H   H527      1.0  0.31935184792873744  0.740454253859787  0.7220371138181658  1.0000
  H   H528      1.0  0.318220286700397  0.7372754908449404  0.7717076589623947  1.0000
  H   H529      1.0  0.32053327001296816  0.7744622087138446  0.7502563058153896  1.0000
  H   H530      1.0  0.27215486496418645  0.7074414747086788  0.7674873384029578  1.0000
  H   H531      1.0  0.2716063717778876  0.7102813597854016  0.7178313180229414  1.0000
  H   H532      1.0  0.2394814340138314  0.722442431438439  0.7444581906773747  1.0000
  N   N24       1.0  0.2054630204295158  0.9972709433519015  0.4774281053063677  1.0000
  C   C477      1.0  0.21796905167791997  0.9669396269703716  0.4668715702088492  1.0000
  C   C478      1.0  0.1989999376328249  0.997536732011757  0.5176970259777801  1.0000
  C   C479      1.0  0.17742399812611961  0.003212363301762  0.45636883734291545  1.0000
  C   C480      1.0  0.22750279751152605  0.02144398396912317  0.4688798700128883  1.0000
  H   H533      1.0  0.2021285363655873  0.9480363767897491  0.4734330944587612  1.0000
  H   H534      1.0  0.2391942939128137  0.9618146795200019  0.4822296299021988  1.0000
  H   H535      1.0  0.22296593841218437  0.9657139189576929  0.4366279666308274  1.0000
  H   H536      1.0  0.18246598440118433  0.9795957040062476  0.5252837949664583  1.0000
  H   H537      1.0  0.2196817098277099  0.9930496934716456  0.5343980207463086  1.0000
  H   H538      1.0  0.18975542623952313  0.020148604576530893  0.5267637657194383  1.0000
  H   H539      1.0  0.1672758811398517  0.025848246143669096  0.4638755460722887  1.0000
  H   H540      1.0  0.16028858382225514  0.9853305506620361  0.461810085947744  1.0000
  H   H541      1.0  0.18147599697693523  0.00370084647529878  0.4258340666568168  1.0000
  H   H542      1.0  0.21875167962204406  0.04463347001656004  0.47642684584937556  1.0000
  H   H543      1.0  0.2330305064824458  0.02199753056072873  0.43875558938586884  1.0000
  H   H544      1.0  0.24885978479163834  0.01799377648746736  0.4845807861477062  1.0000
  N   N25       1.0  0.6697288631268055  0.6420891212937382  0.5672758311000529  1.0000
  C   C481      1.0  0.6897810321279406  0.6689498737202494  0.5690220809080833  1.0000
  C   C482      1.0  0.654488385904107  0.638330225748068  0.6034103737402319  1.0000
  C   C483      1.0  0.6876291540999065  0.6141827740734963  0.5589763996900834  1.0000
  C   C484      1.0  0.6470401650353549  0.6468371604099928  0.5377127418194861  1.0000
  H   H545      1.0  0.7016796681901033  0.6725242516548784  0.5422403150224413  1.0000
  H   H546      1.0  0.707245147081497  0.6659732663342239  0.5908816371151734  1.0000
  H   H547      1.0  0.6771443867663397  0.6904216923736353  0.5756199321959385  1.0000
  H   H548      1.0  0.641303589942529  0.65918465049378  0.6111115847068748  1.0000
  H   H549      1.0  0.6386588724844647  0.6186933645465126  0.6028731386550422  1.0000
  H   H550      1.0  0.6709215112626673  0.6338003647367596  0.626124472767275  1.0000
  H   H551      1.0  0.6733016251111896  0.5933624615365318  0.5582926357274763  1.0000
  H   H552      1.0  0.7052919890995141  0.6101717989352644  0.5804432698495589  1.0000
  H   H553      1.0  0.6990560429053079  0.6159431043797683  0.5316206641654513  1.0000
  H   H554      1.0  0.6324651948383321  0.6671486199151521  0.5435299294734479  1.0000
  H   H555      1.0  0.6320425155008463  0.6266688378277584  0.535096144698462  1.0000
  H   H556      1.0  0.6576483459933177  0.6502555923900445  0.510082058677384  1.0000
  N   N26       1.0  0.34490606532884127  0.6875838720371651  0.46750436172529886  1.0000
  C   C485      1.0  0.3137525376609514  0.6934520532627383  0.4798431558767746  1.0000
  C   C486      1.0  0.36543671704190234  0.7083310168286507  0.48771863110943625  1.0000
  C   C487      1.0  0.34705551561103837  0.6933404684104912  0.42712413676360333  1.0000
  C   C488      1.0  0.3533954952473694  0.655323040305088  0.475304731331719  1.0000
  H   H557      1.0  0.2975751644951384  0.6783118803549565  0.4651201742538777  1.0000
  H   H558      1.0  0.3068322022494398  0.717669271947805  0.4742189514920437  1.0000
  H   H559      1.0  0.3112764919597904  0.689481376737647  0.510215793606529  1.0000
  H   H560      1.0  0.3606576773779679  0.7328839042044039  0.48100836632327837  1.0000
  H   H561      1.0  0.36350784427979377  0.7055203754699831  0.5183318856664799  1.0000
  H   H562      1.0  0.38925758737801774  0.703504568213411  0.48051462197360445  1.0000
  H   H563      1.0  0.3306304016490186  0.6794787692045757  0.41104367935965  1.0000
  H   H564      1.0  0.36968039558779114  0.6873056224846438  0.41639788450157533  1.0000
  H   H565      1.0  0.3428577501835187  0.7179699494247418  0.4204743782796474  1.0000
  H   H566      1.0  0.37684131559291484  0.6502629154885684  0.46616680876090955  1.0000
  H   H567      1.0  0.33844408542175  0.6389758947712038  0.46047911536755304  1.0000
  H   H568      1.0  0.3523966678340444  0.6501958251756367  0.5055625695299574  1.0000
  N   N27       1.0  0.7947720037734753  0.8911966669759671  0.1348630418814067  1.0000
  C   C489      1.0  0.7669667649879686  0.8731810874029011  0.13050528870464165  1.0000
  C   C490      1.0  0.7943039583583338  0.9172216530554468  0.10852522091055436  1.0000
  C   C491      1.0  0.8210548456839822  0.8712313328883277  0.1272075321403318  1.0000
  C   C492      1.0  0.7967485416323434  0.9031384009995377  0.1732756901549396  1.0000
  H   H569      1.0  0.766582841341126  0.8534289013226569  0.15006777854552794  1.0000
  H   H570      1.0  0.7648312070966694  0.8637396620395649  0.10180218615390314  1.0000
  H   H571      1.0  0.7466283544081063  0.8874545956261745  0.1360262350896554  1.0000
  H   H572      1.0  0.8150713331133016  0.9311447992582166  0.11079447641541926  1.0000
  H   H573      1.0  0.7926362775250024  0.9091338061954302  0.07922957708359632  1.0000
  H   H574      1.0  0.7747440900565796  0.9327301919634123  0.11356490699486249  1.0000
  H   H575      1.0  0.8424959636717081  0.8839027858123696  0.13043291662254172  1.0000
  H   H576      1.0  0.8203123348245956  0.8619482710440085  0.09836900599396872  1.0000
  H   H577      1.0  0.821928581597879  0.8512525108363055  0.14646223065549815  1.0000
  H   H578      1.0  0.8173423365479537  0.917030548571011  0.1775735822071533  1.0000
  H   H579      1.0  0.7975031711956233  0.8841738795477124  0.19386111042239892  1.0000
  H   H580      1.0  0.7769958956759249  0.9178103334219064  0.18040901581454363  1.0000
  N   N28       1.0  0.5283177181612452  0.12712393168335517  0.4829091255092016  1.0000
  C   C493      1.0  0.5097199580577664  0.13983260924136676  0.4523798344892335  1.0000
  C   C494      1.0  0.5188243722259468  0.14089563975612682  0.5186373898071425  1.0000
  C   C495      1.0  0.5602652258876819  0.13426166588781555  0.4762391551374684  1.0000
  C   C496      1.0  0.5244404222147561  0.09346018879079354  0.4844364648054105  1.0000
  H   H581      1.0  0.5162398061913648  0.12983673419833786  0.4249829415856143  1.0000
  H   H582      1.0  0.51216674343802  0.16519766746898162  0.4502412363309567  1.0000
  H   H583      1.0  0.48548049503740226  0.13491733526240698  0.4566248968347121  1.0000
  H   H584      1.0  0.5212408177491797  0.16630421605383344  0.5185217676419656  1.0000
  H   H585      1.0  0.49503671094360596  0.13542456811452233  0.5251213607949772  1.0000
  H   H586      1.0  0.5326262917886363  0.13196475022258844  0.5421685094453694  1.0000
  H   H587      1.0  0.5640207338107139  0.1594574922969829  0.4744204559489702  1.0000
  H   H588      1.0  0.5685239372046328  0.12363350125578952  0.4499911119398319  1.0000
  H   H589      1.0  0.5748106019066443  0.1255864324513644  0.4991692546996278  1.0000
  H   H590      1.0  0.5380153404296261  0.08311258999589889  0.5072408244858053  1.0000
  H   H591      1.0  0.5315019248399159  0.0821848663173741  0.45806098051481564  1.0000
  H   H592      1.0  0.5006633626803636  0.08721405291623176  0.4898726439543609  1.0000
  N   N29       1.0  0.29453796799747933  0.37762754271836074  0.7526412446716761  1.0000
  C   C497      1.0  0.2777009109538433  0.348619449009498  0.7556642351334519  1.0000
  C   C498      1.0  0.27579601603829473  0.40339106560175253  0.766426155207183  1.0000
  C   C499      1.0  0.3024003783125566  0.3829341842501977  0.7132989348511218  1.0000
  C   C500      1.0  0.3222624244877553  0.3755186060910064  0.7752177506316795  1.0000
  H   H593      1.0  0.25684918936569984  0.34930278139073706  0.7384900238188524  1.0000
  H   H594      1.0  0.2711623203204406  0.3439244080643141  0.7849245116328115  1.0000
  H   H595      1.0  0.2913957303056018  0.32864935484078117  0.7458853604816823  1.0000
  H   H596      1.0  0.2878887261540049  0.42560713425656777  0.7646093506803046  1.0000
  H   H597      1.0  0.2546651791944385  0.4057909093675972  0.7499726645702262  1.0000
  H   H598      1.0  0.2695090791425768  0.4001757981643956  0.7961045872254238  1.0000
  H   H599      1.0  0.31636343686222257  0.40380383074247933  0.7099471550100467  1.0000
  H   H600      1.0  0.2819759687524896  0.38581733364700566  0.6956582931305244  1.0000
  H   H601      1.0  0.31538494424524355  0.36329806633628814  0.7016322566290646  1.0000
  H   H602      1.0  0.3357410707040569  0.396854690694096  0.77321114132055  1.0000
  H   H603      1.0  0.33686186150129166  0.35614919877090623  0.766043389164214  1.0000
  H   H604      1.0  0.3170794922823097  0.3717860002761665  0.8051008654300075  1.0000
  N   N30       1.0  0.05533402642240648  0.504235770200532  0.727316174653923  1.0000
  C   C501      1.0  0.05913683355852073  0.49135116979712706  0.7650630939834328  1.0000
  C   C502      1.0  0.0841540235950049  0.502269600219505  0.7071065026803374  1.0000
  C   C503      1.0  0.04573065467311954  0.5367261068818489  0.7301026914990901  1.0000
  C   C504      1.0  0.032234876162467785  0.486641519310226  0.7069566232002784  1.0000
  H   H605      1.0  0.06677465956596862  0.4669820656515376  0.7641165972716816  1.0000
  H   H606      1.0  0.037683621570350656  0.49202205264485205  0.7808363328669646  1.0000
  H   H607      1.0  0.07601977237351987  0.5044263475849996  0.7814872299497467  1.0000
  H   H608      1.0  0.10194196395531119  0.5158526951472062  0.7213449207375321  1.0000
  H   H609      1.0  0.09241622238501379  0.4781467222701061  0.7051456644765118  1.0000
  H   H610      1.0  0.08191701471113477  0.5112578366874082  0.6782293045614883  1.0000
  H   H611      1.0  0.04263717524942923  0.5471209924316712  0.7020853115729321  1.0000
  H   H612      1.0  0.06268818168688206  0.5506680750284942  0.7453202748856368  1.0000
  H   H613      1.0  0.02412183839979365  0.5390162511862234  0.7453819055130448  1.0000
  H   H614      1.0  0.03850380049657276  0.46191600077490835  0.704787946959584  1.0000
  H   H615      1.0  0.02894459902934199  0.4955932155049577  0.678230897008697  1.0000
  H   H616      1.0  0.010119261236925192  0.4879101991813393  0.7212990501861333  1.0000
  N   N31       1.0  0.6656409667298223  0.011551391611679396  0.8201492559815233  1.0000
  C   C505      1.0  0.6338282558627386  0.005471228290832464  0.8110279110974241  1.0000
  C   C506      1.0  0.685039869656716  0.0004284932634042171  0.7896140057313537  1.0000
  C   C507      1.0  0.673836684930321  0.995503166717785  0.8549766129390647  1.0000
  C   C508      1.0  0.6698003913483004  0.044937168053435395  0.8249985156376703  1.0000
  H   H617      1.0  0.6187532122934832  0.012977277221899008  0.8339859167577548  1.0000
  H   H618      1.0  0.6298486933140088  0.9806039815105095  0.8061259436586293  1.0000
  H   H619      1.0  0.6265156301841913  0.018067762347961258  0.7855709961830788  1.0000
  H   H620      1.0  0.7091979089736953  0.004958157495977167  0.7955745152898203  1.0000
  H   H621      1.0  0.6828315474195243  0.9752335344426432  0.7853915085384926  1.0000
  H   H622      1.0  0.6793955641639712  0.012021217345841162  0.7629124872804313  1.0000
  H   H623      1.0  0.669992146326801  0.9703621459712956  0.8527876327423193  1.0000
  H   H624      1.0  0.6606866196696318  0.0043782930657620955  0.8790520361905368  1.0000
  H   H625      1.0  0.6979552790474529  0.9986142371870133  0.8619351271000062  1.0000
  H   H626      1.0  0.656434270257333  0.0539552520609774  0.8487114129271792  1.0000
  H   H627      1.0  0.6629556943244846  0.05793665954635063  0.7997039559998964  1.0000
  H   H628      1.0  0.6935523524793863  0.05073868436367501  0.8306673696737631  1.0000
  N   N32       1.0  0.6563582023015875  0.18744698054777234  0.08555982537424511  1.0000
  C   C509      1.0  0.6790339014846302  0.16256816799985227  0.08259590546012774  1.0000
  C   C510      1.0  0.6325444658951896  0.18256645022008436  0.057441279700593206  1.0000
  C   C511      1.0  0.6707847183032718  0.21742682308199546  0.07914084612792993  1.0000
  C   C512      1.0  0.643041231872671  0.18722074665757804  0.1231368217716926  1.0000
  H   H629      1.0  0.6687416900151762  0.13959082144173673  0.08663446524322493  1.0000
  H   H630      1.0  0.697232282332147  0.16521639430554846  0.10358135172557814  1.0000
  H   H631      1.0  0.6898137854293144  0.16231871433286305  0.05471363651977135  1.0000
  H   H632      1.0  0.6150681935902144  0.20092960271668325  0.058571830952808934  1.0000
  H   H633      1.0  0.6418789529951098  0.18227431031096133  0.02875232557578089  1.0000
  H   H634      1.0  0.6210992873784608  0.1602508480581905  0.06163575570054802  1.0000
  H   H635      1.0  0.6543125124378345  0.2366841748953833  0.08139272702883327  1.0000
  H   H636      1.0  0.6808137106458524  0.21861537602453776  0.05092684383403667  1.0000
  H   H637      1.0  0.6892070158957956  0.22162288662972654  0.09946224339124332  1.0000
  H   H638      1.0  0.6602103032314345  0.19155991292141672  0.14503190795497645  1.0000
  H   H639      1.0  0.6327802684832545  0.1646859490794929  0.1294130206924975  1.0000
  H   H640      1.0  0.6250304274729009  0.204932960406166  0.12602410998773905  1.0000
  N   N33       1.0  0.5374409391611741  0.15956477851787346  0.8241621917732478  1.0000
  C   C513      1.0  0.5650117631969008  0.15506165662814614  0.8465349439593621  1.0000
  C   C514      1.0  0.533467486721898  0.13321444599445315  0.798665806574996  1.0000
  C   C515      1.0  0.5401677020323185  0.18807465081030797  0.8022476701258523  1.0000
  C   C516      1.0  0.5112420632744291  0.16193214188211127  0.8491483922028783  1.0000
  H   H641      1.0  0.5643525244099806  0.13327157853981714  0.8626196658320179  1.0000
  H   H642      1.0  0.5684032930213915  0.17412465424685494  0.8667144129337301  1.0000
  H   H643      1.0  0.5852646125543213  0.15409054993129143  0.8285292062980087  1.0000
  H   H644      1.0  0.5525197804586296  0.13110129910392085  0.7788781390515918  1.0000
  H   H645      1.0  0.5319120286778213  0.11114689125948049  0.8140677449290821  1.0000
  H   H646      1.0  0.5126111876336528  0.13564294994555612  0.7817565616476516  1.0000
  H   H647      1.0  0.520063109799582  0.19199022886131384  0.7844814693420086  1.0000
  H   H648      1.0  0.5598718993204244  0.18698488216185846  0.7832916057800402  1.0000
  H   H649      1.0  0.5427824740899614  0.2085320238335849  0.8205080652457624  1.0000
  H   H650      1.0  0.5133202828670063  0.18163701935913362  0.8687069836036196  1.0000
  H   H651      1.0  0.5085879760569109  0.14069529635539496  0.8659621612515737  1.0000
  H   H652      1.0  0.4900660540711931  0.16535533502678004  0.8331896993514796  1.0000
  N   N34       1.0  0.3934783625427902  0.850193203346638  0.010397101384311158  1.0000
  C   C517      1.0  0.40351080121234495  0.8682842496508336  0.9780708966221926  1.0000
  C   C518      1.0  0.3729461818020291  0.82581176526513  0.9975471816392214  1.0000
  C   C519      1.0  0.37767981383032084  0.8706151393914306  0.03689611160185735  1.0000
  C   C520      1.0  0.41980119696141394  0.8360665973501422  0.029031898016223634  1.0000
  H   H653      1.0  0.4189377860195411  0.887002926698872  0.9866496814702795  1.0000
  H   H654      1.0  0.38412411377501204  0.8791301742212501  0.9633186164801887  1.0000
  H   H655      1.0  0.4156041317510798  0.8535596754120574  0.9575387461676238  1.0000
  H   H656      1.0  0.36462597581713246  0.8118118463463284  0.021133456871532008  1.0000
  H   H657      1.0  0.3530273677992282  0.8355988491625127  0.9828891952976235  1.0000
  H   H658      1.0  0.3843453608090181  0.8098812368635085  0.9777425221879016  1.0000
  H   H659      1.0  0.3694127694962023  0.8577390590750457  0.06148670215336538  1.0000
  H   H660      1.0  0.3580528514910673  0.8821446035925428  0.023629221092846375  1.0000
  H   H661      1.0  0.3926967322064623  0.8889725954047162  0.04765495141284193  1.0000
  H   H662      1.0  0.4129797406691352  0.8222914215126126  0.053588129273997476  1.0000
  H   H663      1.0  0.4358118617450924  0.8537996031523671  0.03900821278614952  1.0000
  H   H664      1.0  0.4322683435458703  0.8204428069992349  0.0098851629443093  1.0000
  N   N35       1.0  0.8694478618663919  0.9073554922735285  0.6452715076973348  1.0000
  C   C521      1.0  0.8949990733512082  0.8943009977795668  0.6664724432425696  1.0000
  C   C522      1.0  0.8426630553796378  0.8880290846953415  0.6506700313601818  1.0000
  C   C523      1.0  0.8771504151316311  0.9081284972567404  0.605350115611231  1.0000
  C   C524      1.0  0.8630566959317438  0.9388682043474103  0.6585958903813791  1.0000
  H   H665      1.0  0.8896835759148368  0.8925771945857136  0.6966347497643727  1.0000
  H   H666      1.0  0.9153252736569992  0.9089154571310671  0.6642531889135853  1.0000
  H   H667      1.0  0.9010367151758115  0.8708803367211971  0.6563245218899156  1.0000
  H   H668      1.0  0.8371415844397085  0.8855560153954726  0.6807110090312772  1.0000
  H   H669      1.0  0.8225837414948604  0.8978771459168429  0.6364409335936114  1.0000
  H   H670      1.0  0.8462974562694859  0.8645078335300359  0.6392756701481874  1.0000
  H   H671      1.0  0.8822119808962053  0.8846201353334966  0.594565685860759  1.0000
  H   H672      1.0  0.8972890120598905  0.9225206156114993  0.600334076534374  1.0000
  H   H673      1.0  0.8583313011617533  0.9176725693561644  0.5883905543251899  1.0000
  H   H674      1.0  0.8443315859350956  0.9497985771017026  0.6427837547835921  1.0000
  H   H675      1.0  0.8831329662823916  0.9538475002466849  0.6561637357483915  1.0000
  H   H676      1.0  0.8566896029961194  0.9389372014963981  0.6884696358732892  1.0000
  N   N36       1.0  0.28914055002254857  0.8499820783925774  0.20643811424368294  1.0000
  C   C525      1.0  0.2966517993674067  0.8779878522125093  0.18531211266046266  1.0000
  C   C526      1.0  0.2578434116433672  0.8410858946704904  0.19821215686120178  1.0000
  C   C527      1.0  0.29237597910508106  0.8560383366793647  0.24669509193315822  1.0000
  C   C528      1.0  0.30967476886404  0.8246768169569653  0.19565256575952042  1.0000
  H   H677      1.0  0.3200230048957582  0.8854307965575812  0.1911562160056195  1.0000
  H   H678      1.0  0.2814743619569344  0.8975673185813553  0.19250221434352305  1.0000
  H   H679      1.0  0.29483593835213817  0.8741984818734053  0.15478452457537636  1.0000
  H   H680      1.0  0.2515176778031436  0.8199885766574125  0.21377547671153282  1.0000
  H   H681      1.0  0.2417278010386752  0.8596419475540849  0.20609291017645556  1.0000
  H   H682      1.0  0.25462433809642104  0.8362539705896999  0.1680756860975809  1.0000
  H   H683      1.0  0.2866266731366003  0.8353857101052087  0.2633502177649246  1.0000
  H   H684      1.0  0.2775250010513799  0.8752298553230803  0.25590369631619364  1.0000
  H   H685      1.0  0.3158343278864839  0.862382614905175  0.2540436157323836  1.0000
  H   H686      1.0  0.3044804847255804  0.8031402106978325  0.21095644720296308  1.0000
  H   H687      1.0  0.33342462492169034  0.8304444219508564  0.20198702073651162  1.0000
  H   H688      1.0  0.30818278826717727  0.8196127917510746  0.1653927363747575  1.0000
  N   N37       1.0  0.930504360783048  0.6741025269685608  0.06623756149989557  1.0000
  C   C529      1.0  0.9621726837459077  0.6695123687349868  0.07751946025250667  1.0000
  C   C530      1.0  0.9111182250574468  0.6740456094559459  0.09950814936093288  1.0000
  C   C531      1.0  0.921444704803812  0.6489835252261251  0.04095749258797032  1.0000
  C   C532      1.0  0.9272683881225187  0.7038687130047598  0.04692411839484367  1.0000
  H   H689      1.0  0.965465222114108  0.6472833074250307  0.09232146889983728  1.0000
  H   H690      1.0  0.9700051757299937  0.6881003655766741  0.09637444771940018  1.0000
  H   H691      1.0  0.9773812249131768  0.6690421374859079  0.05298283151442429  1.0000
  H   H692      1.0  0.8870495907927202  0.6774261758607586  0.09183008987614194  1.0000
  H   H693      1.0  0.9130497814660453  0.6519153682946353  0.11481948993660507  1.0000
  H   H694      1.0  0.9172415658240639  0.6928416706995617  0.11910714244463505  1.0000
  H   H695      1.0  0.897537996638113  0.6513874291906219  0.03218492079876323  1.0000
  H   H696      1.0  0.9242590841121738  0.6260772096459631  0.05426047938971945  1.0000
  H   H697      1.0  0.9352000058150021  0.6487433865366156  0.015206758487424032  1.0000
  H   H698      1.0  0.9035642969990343  0.7082399863145702  0.03846018587180855  1.0000
  H   H699      1.0  0.9412004845504005  0.7046015562044704  0.021304465929443905  1.0000
  H   H700      1.0  0.9341833617399224  0.7233927855539976  0.06494635651551839  1.0000
  N   N38       1.0  0.6266371718870423  0.5524731716102548  0.8836302300289359  1.0000
  C   C533      1.0  0.6018788406430754  0.5541120026639997  0.8562318059856353  1.0000
  C   C534      1.0  0.6540273992149945  0.5403230394425727  0.8654472288106423  1.0000
  C   C535      1.0  0.6179372979425146  0.5320067795929603  0.9144285228343545  1.0000
  C   C536      1.0  0.6326184084187606  0.5835746944912705  0.8983267096657662  1.0000
  H   H701      1.0  0.6078424276374143  0.5691755982530711  0.8326218889214387  1.0000
  H   H702      1.0  0.5809671728130735  0.5637625851830044  0.868752737530143  1.0000
  H   H703      1.0  0.5965529105072265  0.5310967068395988  0.8445841984373301  1.0000
  H   H704      1.0  0.673056316002281  0.5384422107763609  0.8854848883683865  1.0000
  H   H705      1.0  0.650298846949385  0.517114236723103  0.8532487442005139  1.0000
  H   H706      1.0  0.6613526614572208  0.5555662995612973  0.842384282360182  1.0000
  H   H707      1.0  0.5967278866052721  0.5400281142716811  0.92774681592004  1.0000
  H   H708      1.0  0.6354078217571865  0.5313711770050368  0.9366654136986232  1.0000
  H   H709      1.0  0.6143201951367687  0.5080903257580985  0.9045727819320025  1.0000
  H   H710      1.0  0.6497000520175533  0.5830493522713409  0.9209948317081736  1.0000
  H   H711      1.0  0.6119191462676615  0.5943027198683001  0.9100437158914055  1.0000
  H   H712      1.0  0.6410449185096116  0.5990889649735776  0.8762016842528972  1.0000
  N   N39       1.0  0.37834938531068607  0.9373300827143775  0.7233160804799436  1.0000
  C   C537      1.0  0.349130320366876  0.9333154438858643  0.7420273652805439  1.0000
  C   C538      1.0  0.37549301932743084  0.9283915164378334  0.6838309412346705  1.0000
  C   C539      1.0  0.40132136312606886  0.9177398950462886  0.7415192611029551  1.0000
  C   C540      1.0  0.38739472817620835  0.9698928251578937  0.725751834491375  1.0000
  H   H713      1.0  0.3417229083558561  0.9089764672678122  0.7409255261920884  1.0000
  H   H714      1.0  0.33117784404416317  0.9474485588338739  0.7286052901051046  1.0000
  H   H715      1.0  0.35035946107966004  0.9400713686628541  0.7718337168993648  1.0000
  H   H716      1.0  0.35778777569464415  0.942153584972228  0.6695706084801037  1.0000
  H   H717      1.0  0.3968247774416798  0.9319591405591309  0.6684361029421236  1.0000
  H   H718      1.0  0.369343648277779  0.9038582447057094  0.6806840729502925  1.0000
  H   H719      1.0  0.4236107983434597  0.9201353155661278  0.7279458120481298  1.0000
  H   H720      1.0  0.39513986525561057  0.8929920350632413  0.7402911257127509  1.0000
  H   H721      1.0  0.4040933793684785  0.923828213789216  0.771391707944653  1.0000
  H   H722      1.0  0.4089767635322634  0.974035096604681  0.7110536181417448  1.0000
  H   H723      1.0  0.39038346563891557  0.977462238334725  0.7550762146557479  1.0000
  H   H724      1.0  0.37029791436766624  0.985352141485013  0.7128091410035731  1.0000
  N   N40       1.0  0.8284925044023751  0.0789798216000468  0.3685272733898148  1.0000
  C   C541      1.0  0.8408062008263929  0.08186726945327405  0.40659157830587794  1.0000
  C   C542      1.0  0.8476134361121997  0.09612179616814154  0.34240859680356056  1.0000
  C   C543      1.0  0.7976445768789575  0.09181053946568407  0.36761457930229  1.0000
  C   C544      1.0  0.8279840969360543  0.0462213969016223  0.3575446605681433  1.0000
  H   H725      1.0  0.8265738876121237  0.06968716638363892  0.42718847578065533  1.0000
  H   H726      1.0  0.8416533280425404  0.10634096264468074  0.4155868365607992  1.0000
  H   H727      1.0  0.8639521412851046  0.0721500445012373  0.40854622197107815  1.0000
  H   H728      1.0  0.8394509488209355  0.09381570080415091  0.31323601059956496  1.0000
  H   H729      1.0  0.8481813055455881  0.1210300331804226  0.34934892960039393  1.0000
  H   H730      1.0  0.871220230920082  0.08746383052944728  0.3429940130804718  1.0000
  H   H731      1.0  0.7871436947120433  0.08917829257940735  0.3396660635421878  1.0000
  H   H732      1.0  0.7973692180099177  0.11668697294766872  0.3749253053291641  1.0000
  H   H733      1.0  0.7829195721506174  0.0802680474624895  0.3881805881498311  1.0000
  H   H734      1.0  0.8147655822339366  0.032298311296176996  0.3774617502167293  1.0000
  H   H735      1.0  0.8510591783470809  0.036153517588423556  0.35645356493639024  1.0000
  H   H736      1.0  0.8177669424106705  0.04301708617214772  0.3294566861027198  1.0000
  N   N41       1.0  0.8988614032741209  0.5340026579130425  0.8895670044070921  1.0000
  C   C545      1.0  0.8991607170700996  0.5037558894347895  0.8709789708396746  1.0000
  C   C546      1.0  0.914263165324359  0.5314840456398962  0.9259112107701426  1.0000
  C   C547      1.0  0.867476453444937  0.5442582293020659  0.8952154609877555  1.0000
  C   C548      1.0  0.9146098658417328  0.5564402239720849  0.8660247447220001  1.0000
  H   H737      1.0  0.8862555494811962  0.4864658273427361  0.8870022408244319  1.0000
  H   H738      1.0  0.9224367311597216  0.49479188670253926  0.867699126693811  1.0000
  H   H739      1.0  0.8889595529884798  0.5050699225701627  0.8427343886685241  1.0000
  H   H740      1.0  0.9033207340578804  0.5142331301018209  0.9440485162621359  1.0000
  H   H741      1.0  0.9381662258898976  0.5242973488935383  0.9225924357481206  1.0000
  H   H742      1.0  0.9140640792927383  0.5538121379874389  0.9409926161040909  1.0000
  H   H743      1.0  0.8548533468588446  0.5276872856326438  0.9126252678504682  1.0000
  H   H744      1.0  0.8551681202328257  0.5461281729413583  0.868291679413254  1.0000
  H   H745      1.0  0.866480788615366  0.5671151171719513  0.9091961035657169  1.0000
  H   H746      1.0  0.9150821100630041  0.5795339678001374  0.8793571285940386  1.0000
  H   H747      1.0  0.9034178617893142  0.5589853820274372  0.8384897789200313  1.0000
  H   H748      1.0  0.938237063581051  0.5491137507611015  0.8608621668168368  1.0000
  N   N42       1.0  0.9302142857989657  0.019126776289662528  0.8704939078065936  1.0000
  C   C549      1.0  0.9560104502320437  0.035327281306234415  0.8872328885728706  1.0000
  C   C550      1.0  0.9082445625835491  0.041974841914275585  0.856423865761487  1.0000
  C   C551      1.0  0.9157641613617918  0.9996411371666605  0.8987968238995498  1.0000
  C   C552      1.0  0.9409259936816957  0.9996928550345174  0.8394297381604211  1.0000
  H   H749      1.0  0.9731131938186866  0.018865335154940155  0.8981496482153366  1.0000
  H   H750      1.0  0.9487790363772213  0.05042519980604743  0.9105995504516852  1.0000
  H   H751      1.0  0.9673259463642927  0.05018982788702986  0.866356000049915  1.0000
  H   H752      1.0  0.8890786167274604  0.030722198928730515  0.8419941580995468  1.0000
  H   H753      1.0  0.8988229078027613  0.05628988865861384  0.8792943445886345  1.0000
  H   H754      1.0  0.9187939291125456  0.05790768586475492  0.8361845717066712  1.0000
  H   H755      1.0  0.8959163290648671  0.9875110996181458  0.8871762670311656  1.0000
  H   H756      1.0  0.9077193711144524  0.013414472073527195  0.9229207231232253  1.0000
  H   H757      1.0  0.9313893447139624  0.9816234715789817  0.9095262715221336  1.0000
  H   H758      1.0  0.9220664105812783  0.9875731452100481  0.8254813722996044  1.0000
  H   H759      1.0  0.9571790700845149  0.9818727862756191  0.8490684682261403  1.0000
  H   H760      1.0  0.9523622824765431  0.013642568636502928  0.817880675010671  1.0000
  N   N43       1.0  0.25976311446847633  0.4188640943641976  0.22439736863063134  1.0000
  C   C553      1.0  0.2530899886346592  0.44969502603798234  0.23966318605696788  1.0000
  C   C554      1.0  0.23819164577611524  0.4117630204660844  0.19429910145825224  1.0000
  C   C555      1.0  0.25715086962073874  0.3957296749446072  0.25420679724789247  1.0000
  C   C556      1.0  0.2906443081139867  0.41821721422147445  0.20946016783798596  1.0000
  H   H761      1.0  0.2689912071777904  0.45585045263502744  0.2623868831363261  1.0000
  H   H762      1.0  0.22995618025439954  0.4509683566004958  0.2512999889150526  1.0000
  H   H763      1.0  0.25447061542311206  0.46769467645464585  0.21780681170928068  1.0000
  H   H764      1.0  0.24177977205096968  0.38809596920557404  0.1833422355069982  1.0000
  H   H765      1.0  0.21458123868813905  0.41335185686784737  0.20422835017819313  1.0000
  H   H766      1.0  0.24042996994380295  0.42793368608684784  0.17054424532644416  1.0000
  H   H767      1.0  0.26204815040627943  0.3721837062882642  0.24358276375459323  1.0000
  H   H768      1.0  0.23415805658376476  0.39553766804966906  0.2661835719747602  1.0000
  H   H769      1.0  0.27322207834739476  0.40026565039610634  0.27733265795930795  1.0000
  H   H770      1.0  0.2963998037855489  0.3952094164146659  0.19792827520848705  1.0000
  H   H771      1.0  0.30753123225416135  0.4233527122046074  0.23148066021234506  1.0000
  H   H772      1.0  0.2934441702675943  0.4351534839769659  0.18663918788158468  1.0000
  N   N44       1.0  0.006526824251423369  0.15858963257003644  0.5066996948290645  1.0000
  C   C557      1.0  0.01950525523488822  0.12787461971564767  0.5142156163545101  1.0000
  C   C558      1.0  0.026105952606050975  0.18233306322151557  0.5230278491924417  1.0000
  C   C559      1.0  0.9763278790424025  0.16074133072605468  0.5235004721979729  1.0000
  C   C560      1.0  0.004164950334251349  0.1634941768983317  0.4661525734740785  1.0000
  H   H773      1.0  0.006645950103830289  0.10945452101697396  0.4999457974556798  1.0000
  H   H774      1.0  0.019474419329527537  0.12268196752337973  0.5445076949202117  1.0000
  H   H775      1.0  0.043187355836867614  0.12622068013458407  0.5046284257492482  1.0000
  H   H776      1.0  0.017158145956894133  0.20582597301641134  0.5174445083188679  1.0000
  H   H777      1.0  0.027969244469447263  0.17964342817321294  0.5536962267586403  1.0000
  H   H778      1.0  0.04928227900986726  0.1810930632641363  0.5114794042358433  1.0000
  H   H779      1.0  0.9613825778908208  0.14227520928760878  0.5130285661205842  1.0000
  H   H780      1.0  0.9653089129110825  0.1831084097458868  0.5169968391451055  1.0000
  H   H781      1.0  0.9774653013001917  0.15889718117801685  0.5543775782599282  1.0000
  H   H782      1.0  0.9941379196345139  0.18637158456926445  0.4596269469486877  1.0000
  H   H783      1.0  0.9899084594228467  0.14576713464493815  0.4526265894688469  1.0000
  H   H784      1.0  0.026585581948719517  0.16247250630911925  0.4526068618438974  1.0000
  N   N45       1.0  0.3038237319375602  0.5462291066753738  0.8769927958416958  1.0000
  C   C561      1.0  0.31618726665089475  0.5508004288215933  0.9148030818272522  1.0000
  C   C562      1.0  0.322229804900814  0.5231139502331119  0.8571070277897761  1.0000
  C   C563      1.0  0.30430672592886115  0.5755900307032972  0.856419354902693  1.0000
  C   C564      1.0  0.2725582275079984  0.5352651504970592  0.8795889349758779  1.0000
  H   H785      1.0  0.3161345738826685  0.5290443042179298  0.9310463488961788  1.0000
  H   H786      1.0  0.3028474600305437  0.5679711501970025  0.930857733010491  1.0000
  H   H787      1.0  0.3397942904756743  0.559026167362599  0.9140415251018319  1.0000
  H   H788      1.0  0.3130521749000199  0.5184618531160007  0.8288049900643248  1.0000
  H   H789      1.0  0.3458330608738475  0.5308287305484921  0.8538973119410193  1.0000
  H   H790      1.0  0.32266477325053716  0.5008502080419568  0.8722264749766399  1.0000
  H   H791      1.0  0.3275463334488161  0.5846040305613004  0.8539419299910631  1.0000
  H   H792      1.0  0.29053516612269054  0.5935762447430726  0.8704988331790353  1.0000
  H   H793      1.0  0.2952212165200131  0.5727940806762521  0.8276995229788936  1.0000
  H   H794      1.0  0.25790183411976053  0.5521482698432402  0.8941814703043162  1.0000
  H   H795      1.0  0.27136941570955425  0.5131701132438614  0.8949808340549218  1.0000
  H   H796      1.0  0.262704680788025  0.5310872347489356  0.8515286586069853  1.0000
  N   N46       1.0  0.41687967949541765  0.21468185185207242  0.30944980138752576  1.0000
  C   C565      1.0  0.4023626340729162  0.19663534506775074  0.33902688246287305  1.0000
  C   C566      1.0  0.44979953785279475  0.21003978881868438  0.31118777130814096  1.0000
  C   C567      1.0  0.40974043707442276  0.24759455069313258  0.3146856842802428  1.0000
  C   C568      1.0  0.4054349365050801  0.20453827222915286  0.2728455990963055  1.0000
  H   H797      1.0  0.37749462225989155  0.1998720669936573  0.33852893140914464  1.0000
  H   H798      1.0  0.41040901778136085  0.20368151919828417  0.36705668566609756  1.0000
  H   H799      1.0  0.40704780863692686  0.17163729733330724  0.3356720053984977  1.0000
  H   H800      1.0  0.46134829447114084  0.22244521938918282  0.2883762045724187  1.0000
  H   H801      1.0  0.4593777860508658  0.21845656269734706  0.3379021029350856  1.0000
  H   H802      1.0  0.45603984319083773  0.18534767152196818  0.30867988887926645  1.0000
  H   H803      1.0  0.41715812930892143  0.25603168153861977  0.3423952286538874  1.0000
  H   H804      1.0  0.38517159288369057  0.25197935481668166  0.31231419499501295  1.0000
  H   H805      1.0  0.4208703293562954  0.2619904716057731  0.29336967887971066  1.0000
  H   H806      1.0  0.41524574370522044  0.21826747712095437  0.25000265264465016  1.0000
  H   H807      1.0  0.38057029454289687  0.2073284186829858  0.27090006020302254  1.0000
  H   H808      1.0  0.411095585777839  0.180021101600205  0.2672815988994953  1.0000
  N   N47       1.0  0.8621078684691766  0.8207553513495794  0.8957752730661674  1.0000
  C   C569      1.0  0.8826918317999206  0.827640405308416  0.9269698877145538  1.0000
  C   C570      1.0  0.837810516874903  0.8440587499499085  0.8946969193192325  1.0000
  C   C571      1.0  0.8490137492513338  0.7900032731580454  0.9009598538298098  1.0000
  C   C572      1.0  0.8789713810189838  0.8213765583870557  0.8604886262674547  1.0000
  H   H809      1.0  0.8708992010999331  0.8265028423726383  0.9541922285427173  1.0000
  H   H810      1.0  0.8923572006204965  0.8510514100048874  0.9243997598706392  1.0000
  H   H811      1.0  0.9017116157028141  0.8109328953619144  0.9282044925175739  1.0000
  H   H812      1.0  0.8216087974548438  0.8395841337476992  0.8716780063777955  1.0000
  H   H813      1.0  0.8249663106821524  0.8446506602450709  0.9212320522083995  1.0000
  H   H814      1.0  0.8470022814953982  0.867432084170332  0.8903471463931513  1.0000
  H   H815      1.0  0.8333572719168506  0.784114792004816  0.8779070721827708  1.0000
  H   H816      1.0  0.8362419180209506  0.7887892920497752  0.9273851748781008  1.0000
  H   H817      1.0  0.8667694606721076  0.7718729628761569  0.9024279122990382  1.0000
  H   H818      1.0  0.8638172857322373  0.8181576371250796  0.8360893769437592  1.0000
  H   H819      1.0  0.8964924031160785  0.8030242304365857  0.8596652153204146  1.0000
  H   H820      1.0  0.890580046828575  0.8436760068574689  0.8568959438571855  1.0000
  N   N48       1.0  0.03211093138284804  0.6479903233669807  0.6158615433634373  1.0000
  C   C573      1.0  0.028214726759556497  0.6214603756631077  0.640911186235025  1.0000
  C   C574      1.0  0.002808789523744526  0.6565535009170904  0.5992413009444277  1.0000
  C   C575      1.0  0.05332658243104893  0.6395682407800275  0.5860050903002035  1.0000
  C   C576      1.0  0.04415318801279189  0.6742783413526612  0.6370771191173025  1.0000
  H   H821      1.0  0.05009748107500234  0.6137677669448877  0.6529482124803357  1.0000
  H   H822      1.0  0.018729545706234196  0.6014045639874609  0.6256787241531524  1.0000
  H   H823      1.0  0.0127581292419503  0.6270532015034883  0.6642240103996162  1.0000
  H   H824      1.0  0.004988658408902946  0.6764885003321677  0.5801191969056536  1.0000
  H   H825      1.0  0.9933324807334506  0.6373565558852983  0.5824800070382103  1.0000
  H   H826      1.0  0.9859668948784169  0.662821707031045  0.6207800076656781  1.0000
  H   H827      1.0  0.05571198140916955  0.6583658103850362  0.5652746931877699  1.0000
  H   H828      1.0  0.04537396063582655  0.6190386807260393  0.5707125344856013  1.0000
  H   H829      1.0  0.07603318365439637  0.6338186864511908  0.597207679950587  1.0000
  H   H830      1.0  0.04758802180140109  0.6945244673569734  0.6187399274133799  1.0000
  H   H831      1.0  0.06622497822268603  0.6684553118191324  0.6500683468645869  1.0000
  H   H832      1.0  0.028584102564201963  0.681440785435  0.6596890995603888  1.0000
  N   N49       1.0  0.8247005556238007  0.25688758410528933  0.9098809910982162  1.0000
  C   C577      1.0  0.8549990587642646  0.24289085995279486  0.9074439763248717  1.0000
  C   C578      1.0  0.8211685733226882  0.28069864661774274  0.880921345983856  1.0000
  C   C579      1.0  0.8208165169694676  0.2710841302576351  0.9469049876144014  1.0000
  C   C580      1.0  0.8018400380171022  0.23281407289352216  0.9044361845726814  1.0000
  H   H833      1.0  0.8728429171883146  0.260298817547673  0.9115669767888848  1.0000
  H   H834      1.0  0.8587710127427814  0.23185720554556682  0.879918874947926  1.0000
  H   H835      1.0  0.8583676428614251  0.22489813655824006  0.9291203588880482  1.0000
  H   H836      1.0  0.7983460916069155  0.2912882767128905  0.8815995392685717  1.0000
  H   H837      1.0  0.8375898347177859  0.2995900356694499  0.884848055079712  1.0000
  H   H838      1.0  0.8247954774394775  0.2710732541687096  0.8525974665395731  1.0000
  H   H839      1.0  0.7980817812254732  0.2815109899299347  0.9501173632214859  1.0000
  H   H840      1.0  0.837565639712473  0.2894867601174004  0.951988055355249  1.0000
  H   H841      1.0  0.8237336619826342  0.25378036242495194  0.9692687049716687  1.0000
  H   H842      1.0  0.778641753156679  0.24213829528750985  0.9076934875412916  1.0000
  H   H843      1.0  0.8046216720856393  0.21399368462145377  0.9251040114344833  1.0000
  H   H844      1.0  0.8035134486719802  0.22217531078082156  0.8763687995203051  1.0000
  N   N50       1.0  0.4144298444112483  0.4268966479874743  0.9525069914198719  1.0000
  C   C581      1.0  0.3944175239747909  0.4455649366241153  0.9285329981766778  1.0000
  C   C582      1.0  0.44318411939181773  0.4430977926781274  0.9579386599877897  1.0000
  C   C583      1.0  0.4201066890550065  0.39678536221455013  0.9346871752865358  1.0000
  C   C584      1.0  0.3998609624308502  0.4220852931196097  0.9888649766259903  1.0000
  H   H845      1.0  0.37235145362975774  0.4341778972902106  0.9243605910737612  1.0000
  H   H846      1.0  0.40440002982879897  0.4491685008277446  0.9005772222756543  1.0000
  H   H847      1.0  0.3900277456874012  0.46861794096753356  0.9409965307545854  1.0000
  H   H848      1.0  0.45867431580879237  0.4300486003122205  0.9765449020972199  1.0000
  H   H849      1.0  0.45492964381508405  0.4467929866997097  0.9310809401694348  1.0000
  H   H850      1.0  0.4396873494009159  0.4661485200340577  0.9707377409681214  1.0000
  H   H851      1.0  0.4299175290434756  0.3993489002427502  0.9064316426304524  1.0000
  H   H852      1.0  0.39896644116695157  0.3835608149118877  0.9313269154992662  1.0000
  H   H853      1.0  0.4358352514062573  0.38240323321284403  0.9514528400695454  1.0000
  H   H854      1.0  0.4143125966758474  0.40835473042627013  0.00802060764544632  1.0000
  H   H855      1.0  0.37826616709437727  0.4096266940645949  0.9856622683035623  1.0000
  H   H856      1.0  0.3946354282154043  0.4442220489359175  0.002993198090432969  1.0000
  N   N51       1.0  0.790150239631042  0.7275251968272547  0.7474837786245498  1.0000
  C   C585      1.0  0.7774662009513506  0.7176304731788313  0.7833994189726601  1.0000
  C   C586      1.0  0.8189890400079559  0.743308483890427  0.753954336487817  1.0000
  C   C587      1.0  0.7688518729099274  0.7488178361804219  0.7290142489438262  1.0000
  C   C588      1.0  0.7952314212093116  0.7003824500605635  0.7234899693517666  1.0000
  H   H857      1.0  0.7554974390119085  0.7059447163107544  0.7794045666282564  1.0000
  H   H858      1.0  0.7735584722149068  0.7375661763772462  0.8022743471369037  1.0000
  H   H859      1.0  0.7927544182372906  0.7012354781408157  0.7979755254296683  1.0000
  H   H860      1.0  0.8294984099323066  0.750258825936465  0.7272187208442639  1.0000
  H   H861      1.0  0.8158404243000636  0.7645493225823774  0.7708992573129703  1.0000
  H   H862      1.0  0.8353932154313564  0.7282423163427181  0.7687208893917139  1.0000
  H   H863      1.0  0.7780867693678916  0.7574338919916185  0.7022872976022999  1.0000
  H   H864      1.0  0.7637430283786911  0.7691706575934637  0.7467389632272957  1.0000
  H   H865      1.0  0.7472258678108358  0.7373419572634837  0.7222500601079413  1.0000
  H   H866      1.0  0.8035805243807316  0.7071616775086348  0.6955472563299141  1.0000
  H   H867      1.0  0.7740847320567725  0.6874359334423257  0.7189087759459252  1.0000
  H   H868      1.0  0.8119528522376486  0.6842377228421587  0.7358461441694755  1.0000
  N   N52       1.0  0.38013235385239624  0.4329785014351836  0.4305091992864149  1.0000
  C   C589      1.0  0.3561289993637933  0.44835466346024133  0.45201982592907797  1.0000
  C   C590      1.0  0.3763690267722287  0.4402842995472788  0.3906494026080094  1.0000
  C   C591      1.0  0.3782398150877315  0.3993870518127055  0.4358641820723054  1.0000
  C   C592      1.0  0.4097149127063649  0.44390787695537093  0.44360624225433287  1.0000
  H   H869      1.0  0.3577809076402413  0.4426378290014171  0.4820249326932897  1.0000
  H   H870      1.0  0.3334520360206554  0.4412415373057397  0.4425905877121952  1.0000
  H   H871      1.0  0.3572373343319443  0.4737991989773964  0.4495591610451677  1.0000
  H   H872      1.0  0.37801080814357213  0.4654182227325303  0.38557064218728465  1.0000
  H   H873      1.0  0.39375161889832305  0.428590811610857  0.37339237713314954  1.0000
  H   H874      1.0  0.3540716333172771  0.4326937154088099  0.38008416336954076  1.0000
  H   H875      1.0  0.3959948139402553  0.3869758138225745  0.4199924926040519  1.0000
  H   H876      1.0  0.3562053767805121  0.39040278584172217  0.4262633306366106  1.0000
  H   H877      1.0  0.38070026968080073  0.39306546453542124  0.46571155644046364  1.0000
  H   H878      1.0  0.41350191585919405  0.4381381837961204  0.47339058073257534  1.0000
  H   H879      1.0  0.4116302479347163  0.46932991545011826  0.4411034500698933  1.0000
  H   H880      1.0  0.4284222291508825  0.43341628844042096  0.42740937377310556  1.0000
  N   N53       1.0  0.22928885853990347  0.27100314128488306  0.4424057932670159  1.0000
  C   C593      1.0  0.2529416027957691  0.2643949533473444  0.47028624405187663  1.0000
  C   C594      1.0  0.2126021242963623  0.29904459482034557  0.4533808729977864  1.0000
  C   C595      1.0  0.20848332817851245  0.24476735438404357  0.4403235770571747  1.0000
  C   C596      1.0  0.2431712161832307  0.27570115596518724  0.4056101880623233  1.0000
  H   H881      1.0  0.2689431482552843  0.283786489865586  0.47284149602008546  1.0000
  H   H882      1.0  0.2661437781383966  0.24346920324289034  0.4627846736622498  1.0000
  H   H883      1.0  0.2432091929703805  0.26066394617599475  0.49835810256076474  1.0000
  H   H884      1.0  0.20183799792371013  0.29629614791869263  0.4810442878300862  1.0000
  H   H885      1.0  0.22782397189082748  0.31920575803821427  0.45547749986123887  1.0000
  H   H886      1.0  0.19468582868214107  0.30481203036219495  0.4328549577414022  1.0000
  H   H887      1.0  0.19042529182229395  0.24865612128502837  0.41930570635341013  1.0000
  H   H888      1.0  0.1974896478894588  0.24038332302812276  0.46752754101262695  1.0000
  H   H889      1.0  0.2205103216431976  0.22334249674263615  0.43201726225703235  1.0000
  H   H890      1.0  0.22592148526158212  0.27832411999122186  0.38334384442664493  1.0000
  H   H891      1.0  0.2578305426449721  0.255955660026771  0.39782543381929686  1.0000
  H   H892      1.0  0.25730143486732565  0.29658224060694593  0.4051612729905832  1.0000
  N   N54       1.0  0.7207332121340252  0.9400555382402749  0.437422053525862  1.0000
  C   C597      1.0  0.7327291358661928  0.9371106630071167  0.4756280458877273  1.0000
  C   C598      1.0  0.7208562663896513  0.9095864514486119  0.41917823849186997  1.0000
  C   C599      1.0  0.7397143859489719  0.9613187981685906  0.41608535970144567  1.0000
  C   C600      1.0  0.6896849147676614  0.9523272154800189  0.4387146003765884  1.0000
  H   H893      1.0  0.7561772738429896  0.927946379556625  0.47550902232734826  1.0000
  H   H894      1.0  0.7190150966169392  0.9211444263019797  0.4925397074000202  1.0000
  H   H895      1.0  0.7330981196646859  0.9597214633329655  0.4901124295969257  1.0000
  H   H896      1.0  0.7440127587032458  0.8997521936675439  0.417682226148981  1.0000
  H   H897      1.0  0.7068379149585776  0.8928630401662645  0.4345489154536037  1.0000
  H   H898      1.0  0.7121306361221195  0.9109796067518228  0.39017738101471744  1.0000
  H   H899      1.0  0.7315439733570248  0.9636923813809265  0.3870020863573507  1.0000
  H   H900      1.0  0.763352996567643  0.9531111626330525  0.41462646092633276  1.0000
  H   H901      1.0  0.7400197251335401  0.9845626825677514  0.4289304457151599  1.0000
  H   H902      1.0  0.6799365736509269  0.9546885783966914  0.41030508141232674  1.0000
  H   H903      1.0  0.6888457385600629  0.9755968033939801  0.45169982212244303  1.0000
  H   H904      1.0  0.6746603504504189  0.9371381973137886  0.45493762817783867  1.0000
  N   N55       1.0  0.3802407862337504  0.1943058794232834  0.6994636816828945  1.0000
  C   C601      1.0  0.39261040518423057  0.2132606318593821  0.7298965020097513  1.0000
  C   C602      1.0  0.375926714879348  0.21362057325589345  0.6661006018058956  1.0000
  C   C603      1.0  0.35105716342884924  0.18158185504779384  0.7110382413421475  1.0000
  C   C604      1.0  0.40134945833150043  0.16886081185330287  0.6909617949915401  1.0000
  H   H905      1.0  0.3948283249807971  0.19983242739026055  0.7560143752969781  1.0000
  H   H906      1.0  0.37789280843660705  0.2333491597342465  0.7360942513768436  1.0000
  H   H907      1.0  0.4151825259128753  0.22229480980537203  0.7227812550769238  1.0000
  H   H908      1.0  0.36676654104686396  0.20009621608304906  0.6424200057457718  1.0000
  H   H909      1.0  0.3599280309396157  0.23290014999718572  0.67165309534597  1.0000
  H   H910      1.0  0.3974850499273208  0.22394434294047047  0.6570190975907904  1.0000
  H   H911      1.0  0.34101113702712493  0.1671365554879294  0.6887447783465485  1.0000
  H   H912      1.0  0.33465477865250376  0.2002211430650475  0.7177667406323828  1.0000
  H   H913      1.0  0.35355425399871515  0.1670387609891018  0.7363150392977907  1.0000
  H   H914      1.0  0.39289807912524627  0.15409816942716043  0.6679540896397038  1.0000
  H   H915      1.0  0.40495991987508706  0.1537489835473165  0.7155171928387947  1.0000
  H   H916      1.0  0.42380375555784466  0.17759069437772823  0.6826669047161217  1.0000
  N   N56       1.0  0.7391674671445403  0.4963379531224226  0.29271259376614306  1.0000
  C   C605      1.0  0.7501240538351732  0.48350579512168806  0.3283546758646764  1.0000
  C   C606      1.0  0.7060339583700885  0.4989483601280719  0.2934105453905467  1.0000
  C   C607      1.0  0.7483491556610534  0.47582761859573847  0.26192500470735314  1.0000
  C   C608      1.0  0.7521618130246038  0.5271039779188951  0.2870273696072873  1.0000
  H   H917      1.0  0.7750698697619446  0.48145489323599866  0.32886122449404365  1.0000
  H   H918      1.0  0.7412014110232044  0.46004817168563733  0.3333093115118263  1.0000
  H   H919      1.0  0.7434092208605818  0.49820090592046007  0.3523049710517361  1.0000
  H   H920      1.0  0.6982803130024239  0.5147677394653214  0.31584624007271433  1.0000
  H   H921      1.0  0.6970690586152559  0.5081823385158932  0.2666561266039083  1.0000
  H   H922      1.0  0.6953887082502986  0.4762447446770948  0.29806422766912144  1.0000
  H   H923      1.0  0.7404646938120727  0.4847553063834185  0.23457083310779706  1.0000
  H   H924      1.0  0.7391291251891547  0.4523347524300406  0.2653031960439447  1.0000
  H   H925      1.0  0.773232918545155  0.4735426926384961  0.26035973905683596  1.0000
  H   H926      1.0  0.7436929963395918  0.5377343790437593  0.2608645218917173  1.0000
  H   H927      1.0  0.7771093242126588  0.5259991204493933  0.28511132164358743  1.0000
  H   H928      1.0  0.7462723154702997  0.5431057879162048  0.3100773024980867  1.0000
  N   N57       1.0  0.6311296439711412  0.09123325944698624  0.30066363771556864  1.0000
  C   C609      1.0  0.6486888166395091  0.11824451417677984  0.2891974609601788  1.0000
  C   C610      1.0  0.6505763279046027  0.07000189316858196  0.3220585392088633  1.0000
  C   C611      1.0  0.6194741195188521  0.0754191696009272  0.26724670415947416  1.0000
  C   C612      1.0  0.6057715179099832  0.10130643423086294  0.32423927440831085  1.0000
  H   H929      1.0  0.634595061890669  0.13476208738270845  0.27301668866351847  1.0000
  H   H930      1.0  0.6680555613128002  0.11148445715014632  0.27145245452756817  1.0000
  H   H931      1.0  0.6577867159137449  0.13080923499391095  0.31372784000595777  1.0000
  H   H932      1.0  0.6379400899479778  0.04948860958217005  0.33144145009411957  1.0000
  H   H933      1.0  0.6700644892612563  0.06176039105109665  0.3053788831876126  1.0000
  H   H934      1.0  0.6596812320699456  0.08124387069347727  0.347496600444415  1.0000
  H   H935      1.0  0.6054738504811086  0.05531868237304405  0.27477672171899326  1.0000
  H   H936      1.0  0.6380455568888321  0.06703685606414789  0.24915263811227015  1.0000
  H   H937      1.0  0.6052765009203751  0.091112838461334  0.2500393322159199  1.0000
  H   H938      1.0  0.5920280797755876  0.08152784309405559  0.33348404438828855  1.0000
  H   H939      1.0  0.5905808035241613  0.11734932541505261  0.3090437185340279  1.0000
  H   H940      1.0  0.6138349155779421  0.11346108224255103  0.3496130092677706  1.0000
  N   N58       1.0  0.19771709381232339  0.6822298893075436  0.3200087330184632  1.0000
  C   C613      1.0  0.2179088037018868  0.7089705357936353  0.3178354462602254  1.0000
  C   C614      1.0  0.16631593295051927  0.6929456343091467  0.3242736188222892  1.0000
  C   C615      1.0  0.20621958340790436  0.662926543355862  0.35216705739915544  1.0000
  C   C616      1.0  0.20036501323243416  0.6638718441219432  0.28561397936972427  1.0000
  H   H941      1.0  0.24172412994493309  0.7017086267527858  0.3137140866284902  1.0000
  H   H942      1.0  0.21694605989185511  0.7232106429168748  0.3435182662484348  1.0000
  H   H943      1.0  0.21184233426197774  0.7241827935696786  0.29406181273874865  1.0000
  H   H944      1.0  0.15059196340509962  0.673256336402046  0.3266928305049037  1.0000
  H   H945      1.0  0.16350182602234353  0.7074483146575241  0.349529328272019  1.0000
  H   H946      1.0  0.15878776141476725  0.706670173045532  0.29982088928021133  1.0000
  H   H947      1.0  0.19135857361108388  0.6424956497117944  0.35432006957566653  1.0000
  H   H948      1.0  0.20438932675597954  0.6759503606738085  0.37871661075077423  1.0000
  H   H949      1.0  0.22974002999614052  0.6543079938074008  0.3496355515609007  1.0000
  H   H950      1.0  0.22378813879961634  0.6555293988425105  0.28115978338587305  1.0000
  H   H951      1.0  0.19354705295878283  0.6774672999140754  0.26078937873755115  1.0000
  H   H952      1.0  0.1856986203178126  0.6433685720751716  0.2865551292678246  1.0000
  N   N59       1.0  0.7722511317084215  0.4868670535461995  0.6921167630167792  1.0000
  C   C617      1.0  0.7970759694515446  0.4849644052769423  0.719396158161367  1.0000
  C   C618      1.0  0.7847285677284972  0.48699215522586087  0.6541126606194854  1.0000
  C   C619      1.0  0.7547971835449065  0.5153996031119995  0.698446023909189  1.0000
  C   C620      1.0  0.7524025028125882  0.460068700064547  0.6965406903023055  1.0000
  H   H953      1.0  0.8130030121803615  0.5043372758798732  0.7163080816668432  1.0000
  H   H954      1.0  0.810107428338376  0.46319570516153297  0.716309172771312  1.0000
  H   H955      1.0  0.7884761611881099  0.4857527195289828  0.7482731039474905  1.0000
  H   H956      1.0  0.7981140658036362  0.4657434628366759  0.6485759477115433  1.0000
  H   H957      1.0  0.7665798232461716  0.48840601990030186  0.6328025713933997  1.0000
  H   H958      1.0  0.7997668504612951  0.5069693759385  0.6498669811736156  1.0000
  H   H959      1.0  0.7362860646298446  0.5179136944131176  0.6778020928039398  1.0000
  H   H960      1.0  0.7690671414603513  0.536180048580519  0.6960421159402654  1.0000
  H   H961      1.0  0.7444690765184728  0.5157054194328189  0.7265892907454672  1.0000
  H   H962      1.0  0.7333688209931255  0.460765635882083  0.6764138228616592  1.0000
  H   H963      1.0  0.7424201898205868  0.45940299771712795  0.7248428075970195  1.0000
  H   H964      1.0  0.7649189654470676  0.4380871245323868  0.6923148613270393  1.0000
  N   N60       1.0  0.19432876952103562  0.18888487723664832  0.8731577555273099  1.0000
  C   C621      1.0  0.19958638497933306  0.22140684459032697  0.8636021661967522  1.0000
  C   C622      1.0  0.17713093502741598  0.1739615820508131  0.8429583450852219  1.0000
  C   C623      1.0  0.17706313212337124  0.18723920978540462  0.9080847044784384  1.0000
  C   C624      1.0  0.22348180036067983  0.17287680927530832  0.8780643854896614  1.0000
  H   H965      1.0  0.21247613223794248  0.2333785478682486  0.8858477246431629  1.0000
  H   H966      1.0  0.1780367128510784  0.23414812886983663  0.8596668687487138  1.0000
  H   H967      1.0  0.21279989840432684  0.2235574181587236  0.8375384389788311  1.0000
  H   H968      1.0  0.15432698184339033  0.18440679052888462  0.839704286952668  1.0000
  H   H969      1.0  0.18880947660840178  0.175803820545496  0.8157767765579611  1.0000
  H   H970      1.0  0.17385145087394424  0.14911651202423626  0.8486485031352158  1.0000
  H   H971      1.0  0.1546312499545724  0.1985264640815772  0.9052549508908131  1.0000
  H   H972      1.0  0.1889810656955765  0.19864600489503856  0.9314429175534334  1.0000
  H   H973      1.0  0.17309920129264525  0.16302917363588387  0.9164614110985917  1.0000
  H   H974      1.0  0.2371495752023965  0.17359658728841806  0.8522455815724861  1.0000
  H   H975      1.0  0.2203730701543037  0.14835216158280756  0.885761656160988  1.0000
  H   H976      1.0  0.2370375338855168  0.1835995908006958  0.9005560737763414  1.0000
  N   N61       1.0  0.06109709900474192  0.19291716962454442  0.054457902279691606  1.0000
  C   C625      1.0  0.0865434019239737  0.20742273796274802  0.03515047565655638  1.0000
  C   C626      1.0  0.03270049397300512  0.20118290709486697  0.035428594339337316  1.0000
  C   C627      1.0  0.06023039706727151  0.20374866553197757  0.09343346490491689  1.0000
  C   C628      1.0  0.0650341620255186  0.15920473833482296  0.05375872765983014  1.0000
  H   H977      1.0  0.08780119721658686  0.19992607864817846  0.0055749889138789754  1.0000
  H   H978      1.0  0.10835216418323723  0.20115764286036697  0.048552596025429384  1.0000
  H   H979      1.0  0.08445274097264677  0.23289401670186116  0.03546077184276508  1.0000
  H   H980      1.0  0.013098598067048606  0.19014806413356755  0.04890880713761847  1.0000
  H   H981      1.0  0.02844993551810826  0.22642177447203649  0.03606604322145812  1.0000
  H   H982      1.0  0.03286492994754564  0.1938102546877234  0.00577272688413033  1.0000
  H   H983      1.0  0.04317258580627081  0.1912453741817488  0.10984925788410682  1.0000
  H   H984      1.0  0.05469392567475473  0.22868221935780753  0.09517929745958864  1.0000
  H   H985      1.0  0.08223531226460734  0.20004129239375645  0.10758989783584272  1.0000
  H   H986      1.0  0.04595820040684262  0.14738303693913446  0.06740143828294687  1.0000
  H   H987      1.0  0.08577506687913705  0.15216084575523947  0.06883054719754167  1.0000
  H   H988      1.0  0.06681830982719439  0.15036849771700833  0.024735354729146897  1.0000
  N   N62       1.0  0.29802027176777873  0.5866954098919316  0.11481579367723094  1.0000
  C   C629      1.0  0.32725942520947643  0.5906292232352689  0.09610639399310117  1.0000
  C   C630      1.0  0.27935826703772204  0.5651195294171484  0.0931196816909448  1.0000
  C   C631      1.0  0.2824612476786543  0.6167453398961474  0.11745568651352731  1.0000
  C   C632      1.0  0.3030246662698707  0.5742913747188396  0.1525761690139996  1.0000
  H   H989      1.0  0.3243215319458451  0.5999355308025403  0.06748476549060224  1.0000
  H   H990      1.0  0.3394835762923134  0.5683269186439316  0.09319194915594922  1.0000
  H   H991      1.0  0.34204376871937736  0.6066360970376447  0.11175788389603795  1.0000
  H   H992      1.0  0.2906671578462911  0.5423491236696263  0.09006819857894972  1.0000
  H   H993      1.0  0.25723450807841436  0.5612952027162736  0.10648481761839577  1.0000
  H   H994      1.0  0.2749702764501499  0.5739163863775556  0.06455521196739444  1.0000
  H   H995      1.0  0.2601810340455166  0.614585029919003  0.13111757208044406  1.0000
  H   H996      1.0  0.27864297531895216  0.6270262179359232  0.08953480837742514  1.0000
  H   H997      1.0  0.29561797238682813  0.6333911875558464  0.13439653329533888  1.0000
  H   H998      1.0  0.28140446037259803  0.5709502806633223  0.16744371769675212  1.0000
  H   H999      1.0  0.31658021064496084  0.590300631591883  0.16993953018148647  1.0000
  H   H1000     1.0  0.31500629774738115  0.5517844053577657  0.15172013161666978  1.0000
  N   N63       1.0  0.7714344266520442  0.6971961705370794  0.1820715371637132  1.0000
  C   C633      1.0  0.7763637671787593  0.6842820973940765  0.2195724955647526  1.0000
  C   C634      1.0  0.7594296534435231  0.673145953953104  0.1571755269418457  1.0000
  C   C635      1.0  0.8002581289428565  0.708364244352823  0.16720910249650875  1.0000
  C   C636      1.0  0.7497210661975663  0.7229831043455371  0.18433975920978837  1.0000
  H   H1001     1.0  0.7929238682092291  0.6649891993476864  0.2189588210023896  1.0000
  H   H1002     1.0  0.7552024872882823  0.6749507022917922  0.23124739464936583  1.0000
  H   H1003     1.0  0.7849345599140007  0.7019015539628418  0.23928755296687096  1.0000
  H   H1004     1.0  0.737113584361689  0.6649993106203885  0.16670644631686338  1.0000
  H   H1005     1.0  0.7565984623170741  0.6817662771756852  0.1282944423440556  1.0000
  H   H1006     1.0  0.7745553263536025  0.6526731379136357  0.15610403180479257  1.0000
  H   H1007     1.0  0.7973064377834291  0.7188930364560484  0.13921490973747305  1.0000
  H   H1008     1.0  0.8169320880586016  0.6893492694751774  0.16442274623121658  1.0000
  H   H1009     1.0  0.8103191470195394  0.726068274403814  0.1857254538315992  1.0000
  H   H1010     1.0  0.757348472714531  0.7409077394624961  0.20428341742430592  1.0000
  H   H1011     1.0  0.7271737821386075  0.7150399466265055  0.1934953332805001  1.0000
  H   H1012     1.0  0.7467158353884636  0.7342492298456895  0.15686935456306564  1.0000
  N   N64       1.0  0.7698353605433045  0.22057108043634557  0.5468597255661949  1.0000
  C   C637      1.0  0.7804889137867539  0.2396108815904229  0.5156711685757238  1.0000
  C   C638      1.0  0.7846409186482686  0.23062746874535395  0.581642198221173  1.0000
  C   C639      1.0  0.7773307104854883  0.18797830779338637  0.5396012174670892  1.0000
  C   C640      1.0  0.7369047339734004  0.2240353802196566  0.5504362186909734  1.0000
  H   H1013     1.0  0.7698332766108628  0.23273600393037996  0.4888951627264235  1.0000
  H   H1014     1.0  0.8052345975332845  0.23739489085461676  0.5120615398836604  1.0000
  H   H1015     1.0  0.775408585767802  0.264397986311175  0.5202347395718468  1.0000
  H   H1016     1.0  0.7797080998879816  0.2552275590766712  0.5878979555108536  1.0000
  H   H1017     1.0  0.7771774861310548  0.2168700918279428  0.6058990171567316  1.0000
  H   H1018     1.0  0.8095427975029569  0.2283260942502078  0.5798564540972462  1.0000
  H   H1019     1.0  0.7695869611869756  0.17287024048790262  0.5625172236659705  1.0000
  H   H1020     1.0  0.8019893502293702  0.1844515969848103  0.5365990951715041  1.0000
  H   H1021     1.0  0.7664882188186758  0.17964211127262827  0.5135419801147942  1.0000
  H   H1022     1.0  0.7280386620174667  0.20976461361822743  0.5735475139723137  1.0000
  H   H1023     1.0  0.7251084833794057  0.21664915811092003  0.5245661504304338  1.0000
  H   H1024     1.0  0.7303528989145751  0.2483247665177588  0.5560222642945767  1.0000
