data_image0
_chemical_formula_structural       FeS2FeS2FeSFeS3FeS2FeS2FeSFeS3FeS2FeS2FeSFeS3FeS2FeS2FeSFeS3FeS2FeS2FeSFeS3FeS2FeS2FeSFeS3FeS2FeS2FeSFeS3FeS2FeS2FeSFeS3FeS2FeS2FeSFeS3FeS2FeS2FeSFeS3FeS2FeS2FeSFeS3FeS2FeS2FeSFeS3FeS2FeS2FeSFeS3FeS2FeS2FeSFeS3FeS2FeS2FeSFeS3FeS2FeS2FeSFeS3FeS2FeS2FeSFeS3FeS2FeS2FeSFeS3C6H4C6H4C6H4C6H4C6H4C6H4C6H4C6H4C6H4C6H4C6H4C6H4C6H4C6H4C6H4C6H4C6H4C6H4C6H4C6H4C6H4C6H4C6H4C6H4C6H4C6H4C6H4C6H4C6H4C6H4C6H4C6H4C6H4C6H4C6H4C6H4NC4H12NC4H12NC4H12NC4H12NC4H12NC4H12NC4H12NC4H12NC4H12NC4H12NC4H12NC4H12NC4H12NC4H12NC4H12NC4H12NC4H12NC4H12NC4H12NC4H12NC4H12NC4H12NC4H12NC4H12NC4H12NC4H12NC4H12NC4H12NC4H12NC4H12NC4H12NC4H12NC4H12NC4H12NC4H12NC4H12
_chemical_formula_sum              "Fe72 S144 C360 H576 N36"
_cell_length_a       33.90763985736671
_cell_length_b       34.03427508020683
_cell_length_c       45.00809885105593
_cell_angle_alpha    89.89399655525918
_cell_angle_beta     89.84960547187019
_cell_angle_gamma    120.01774310217583

_space_group_name_H-M_alt    "P 1"
_space_group_IT_number       1

loop_
  _space_group_symop_operation_xyz
  'x, y, z'

loop_
  _atom_site_type_symbol
  _atom_site_label
  _atom_site_symmetry_multiplicity
  _atom_site_fract_x
  _atom_site_fract_y
  _atom_site_fract_z
  _atom_site_occupancy
  Fe  Fe1       1.0  0.9597790467837929  0.5739460522256224  0.591827788672726  1.0000
  S   S1        1.0  0.8893568258253638  0.5262326332446225  0.6089259530217679  1.0000
  S   S2        1.0  0.9919401188196619  0.5794267488876922  0.5465775326678385  1.0000
  Fe  Fe2       1.0  0.9917038274297936  0.6202034651739495  0.651756949222035  1.0000
  S   S3        1.0  0.9244206117968692  0.576170852884242  0.6745003754581571  1.0000
  S   S4        1.0  0.0574641141487764  0.6718814292377553  0.673051768742792  1.0000
  Fe  Fe3       1.0  0.9242449257754229  0.5190622064366917  0.6493141799150584  1.0000
  S   S5        1.0  0.8983008994297167  0.4488457338756422  0.668501152879266  1.0000
  Fe  Fe4       1.0  0.8944866330200092  0.5868753393873506  0.6328323347966993  1.0000
  S   S6        1.0  0.8343542219955027  0.59881546586106  0.6315237609704561  1.0000
  S   S7        1.0  0.9941476301963266  0.5619765664453977  0.6302873589178798  1.0000
  S   S8        1.0  0.962107289680617  0.6355317738409596  0.6119832166169784  1.0000
  Fe  Fe5       1.0  0.7389615427689349  0.7171405540513753  0.73574955206476  1.0000
  S   S9        1.0  0.6895672078009201  0.6855364828478656  0.7736659736684479  1.0000
  S   S10       1.0  0.7990481387364069  0.7050291215401844  0.7345719059575079  1.0000
  Fe  Fe6       1.0  0.6885469486941123  0.7635622333017331  0.7120281623408481  1.0000
  S   S11       1.0  0.6350271540925271  0.7349692863961962  0.7478035243572256  1.0000
  S   S12       1.0  0.6859430158684751  0.8066582798725129  0.6746435026832853  1.0000
  Fe  Fe7       1.0  0.6935077183085167  0.7531106499365622  0.7786297100244838  1.0000
  S   S13       1.0  0.7037351004423488  0.7834978707183636  0.8247893060703801  1.0000
  Fe  Fe8       1.0  0.635777116966718  0.6702738087502924  0.7396043986683273  1.0000
  S   S14       1.0  0.5688601547566468  0.6044202651344919  0.740059642185438  1.0000
  S   S15       1.0  0.7474752834698718  0.7863621913155189  0.7432973482460399  1.0000
  S   S16       1.0  0.6845143712927807  0.6970177714223382  0.7012048095660552  1.0000
  Fe  Fe9       1.0  0.21143609648895795  0.2518998316975276  0.31053922692373237  1.0000
  S   S17       1.0  0.27667470698103735  0.28980334441549227  0.28448118549074225  1.0000
  S   S18       1.0  0.16031472659052898  0.2762511447249489  0.3071022627699433  1.0000
  Fe  Fe10      1.0  0.23581826113115437  0.18132463885044708  0.33235851412564427  1.0000
  S   S19       1.0  0.302472298775407  0.21394122153598344  0.30776170261221053  1.0000
  S   S20       1.0  0.21366991177442304  0.1218069883475302  0.36389845606631904  1.0000
  Fe  Fe11      1.0  0.30939271269982443  0.2791626929638461  0.3245527082706684  1.0000
  S   S21       1.0  0.37357931929013216  0.3278676407795331  0.34873492023354674  1.0000
  Fe  Fe12      1.0  0.2631289846079636  0.2207323294201684  0.27003344928924555  1.0000
  S   S22       1.0  0.2695638444688901  0.20815757770882126  0.22115094562079451  1.0000
  S   S23       1.0  0.24528455994017803  0.24631224245018238  0.35172527443650303  1.0000
  S   S24       1.0  0.19539214802079213  0.18332704751554185  0.2934102851612636  1.0000
  Fe  Fe13      1.0  0.029824436826879852  0.4597527873751576  0.3815229820131463  1.0000
  S   S25       1.0  0.9557861615244442  0.41626476661281203  0.3924275621863423  1.0000
  S   S26       1.0  0.0585678283252169  0.5314954950777461  0.36498311591598526  1.0000
  Fe  Fe14      1.0  0.05353102108779089  0.38858397992722343  0.40200560538527336  1.0000
  S   S27       1.0  0.9809865970000513  0.3394529515692263  0.41516282651590847  1.0000
  S   S28       1.0  0.10863508866047414  0.3701108798792016  0.40967335949097095  1.0000
  Fe  Fe15      1.0  0.9628772063611065  0.35979710878631144  0.3720801718893583  1.0000
  S   S29       1.0  0.9153531609100114  0.3138666013200758  0.3363447091361014  1.0000
  Fe  Fe16      1.0  0.9804613094191722  0.40040858847668  0.43457726685492554  1.0000
  S   S30       1.0  0.9451572406493061  0.39813162064016583  0.47812310813886283  1.0000
  S   S31       1.0  0.03551613913398777  0.40500348176881107  0.35758922440577057  1.0000
  S   S32       1.0  0.05446889088495069  0.44778262477436787  0.42507599496319765  1.0000
  Fe  Fe17      1.0  0.6129107421583363  0.9080078872417015  0.9229457406114314  1.0000
  S   S33       1.0  0.5477231392159825  0.8738721945453446  0.9491963083265651  1.0000
  S   S34       1.0  0.6090279373476837  0.8911952186488019  0.873761765324322  1.0000
  Fe  Fe18      1.0  0.666755532740205  0.9626123986099903  0.9767085705304198  1.0000
  S   S35       1.0  0.6060289737548515  0.9326882729482372  0.0072416984250816  1.0000
  S   S36       1.0  0.7358721448944191  0.010392139110502525  0.9955339476090814  1.0000
  Fe  Fe19      1.0  0.5898492592727234  0.8670447001973833  0.9851818845086657  1.0000
  S   S37       1.0  0.5637906824540266  0.7994414597758619  0.008183747917711148  1.0000
  Fe  Fe20      1.0  0.5696769854290947  0.9424865117324329  0.9687468056784372  1.0000
  S   S38       1.0  0.5244335032730506  0.9742101863520053  0.9690826765346667  1.0000
  S   S39       1.0  0.6533053507898947  0.8960638240287312  0.9575172480389017  1.0000
  S   S40       1.0  0.6321661646711793  0.9776133738849455  0.9396671227929169  1.0000
  Fe  Fe21      1.0  0.28886076628651414  0.013369372916117506  0.06443560096228426  1.0000
  S   S41       1.0  0.356812736556716  0.051166044273220246  0.041341503759322225  1.0000
  S   S42       1.0  0.22738688331179804  0.9698623479956996  0.03618416829371912  1.0000
  Fe  Fe22      1.0  0.3272338368900568  0.05552464132071713  0.12481329685169028  1.0000
  S   S43       1.0  0.39817747099520867  0.09586392018285196  0.10653849530786598  1.0000
  S   S44       1.0  0.3179380055363864  0.06147179258481884  0.174252793998641  1.0000
  Fe  Fe23      1.0  0.36520355105898855  0.11053067705866888  0.06818984811283471  1.0000
  S   S45       1.0  0.39558434013209537  0.18315904873756372  0.05270884017308744  1.0000
  Fe  Fe24      1.0  0.38341802190641006  0.03282889791266265  0.08153725257492392  1.0000
  S   S46       1.0  0.4311385727168137  0.003944740022256532  0.08272046773270027  1.0000
  S   S47       1.0  0.29519089241771534  0.07441885920733061  0.08813055535370837  1.0000
  S   S48       1.0  0.3145495730509554  0.9907021198965945  0.10292515189948617  1.0000
  Fe  Fe25      1.0  0.9284673399615503  0.6476838143653607  0.31223108023594626  1.0000
  S   S49       1.0  0.9515481377626291  0.6934007601990652  0.3520814112006408  1.0000
  S   S50       1.0  0.9135627666500719  0.5753563900753719  0.3095396977875994  1.0000
  Fe  Fe26      1.0  0.9191631088322259  0.715894931418661  0.2732006101767471  1.0000
  S   S51       1.0  0.9413460570952336  0.7675300586236994  0.3096263132084039  1.0000
  S   S52       1.0  0.907292822062099  0.7288703690331435  0.22558054185643134  1.0000
  Fe  Fe27      1.0  0.9949745130436473  0.7488936002715193  0.3195471559228527  1.0000
  S   S53       1.0  0.06936133148599288  0.8037678027075691  0.32179327044129247  1.0000
  Fe  Fe28      1.0  0.895968414528085  0.708108729067082  0.3389641451178928  1.0000
  S   S54       1.0  0.849896475244732  0.7114459592110411  0.3741315970963694  1.0000
  S   S55       1.0  0.976111901016989  0.7015490588584762  0.28069986651052947  1.0000
  S   S56       1.0  0.8695377807701491  0.6578915509288658  0.3016570576744972  1.0000
  Fe  Fe29      1.0  0.3399069347142803  0.9979081086724638  0.41588342825755514  1.0000
  S   S57       1.0  0.3115714405224259  0.9314993979300773  0.39196440985462805  1.0000
  S   S58       1.0  0.3576113624595432  0.05844553678730029  0.38657413204223195  1.0000
  Fe  Fe30      1.0  0.34821025508866327  0.9576031813142033  0.474725972423417  1.0000
  S   S59       1.0  0.32123484790878765  0.8884808005229965  0.45480355365769093  1.0000
  S   S60       1.0  0.36468243406621126  0.9659557555469148  0.5239022787327102  1.0000
  Fe  Fe31      1.0  0.36635909670168154  0.9255287918504482  0.41584859761775644  1.0000
  S   S61       1.0  0.4091291218877705  0.9015712471875179  0.39167918545827196  1.0000
  Fe  Fe32      1.0  0.26912685406033643  0.9013225173733849  0.4329409428621057  1.0000
  S   S62       1.0  0.193890710082888  0.8490272420974838  0.43558379990729557  1.0000
  S   S63       1.0  0.397392210860868  0.9937285050016864  0.4375504885667277  1.0000
  S   S64       1.0  0.29323389390083104  0.9686180060144041  0.45529213276137886  1.0000
  Fe  Fe33      1.0  0.5576937305013434  0.037760623171301466  0.6726685675308974  1.0000
  S   S65       1.0  0.527885283322549  0.9665258092231256  0.6557079311688916  1.0000
  S   S66       1.0  0.5157878978002272  0.06459354222132063  0.6944674789960081  1.0000
  Fe  Fe34      1.0  0.6542507317748013  0.06540432150954094  0.651742318084749  1.0000
  S   S67       1.0  0.6318269723658023  0.9961647265176233  0.6332349724068052  1.0000
  S   S68       1.0  0.7280458583235194  0.11966388532231839  0.6447902709040663  1.0000
  Fe  Fe35      1.0  0.5713792587757441  0.9992262000905779  0.6153291298608629  1.0000
  S   S69       1.0  0.5506305107839725  0.983388395633371  0.567047240616351  1.0000
  Fe  Fe36      1.0  0.5908377091551001  0.9703654934050611  0.6752168192196086  1.0000
  S   S70       1.0  0.5909273204251603  0.9201218366390435  0.7080063896640113  1.0000
  S   S71       1.0  0.5968158734077802  0.07044517088650998  0.630812426394382  1.0000
  S   S72       1.0  0.617599792838208  0.039530764654232  0.6951087693371358  1.0000
  Fe  Fe37      1.0  0.020413058102074944  0.33006325998013863  0.7364456363884749  1.0000
  S   S73       1.0  0.9912023612305286  0.2719811762994722  0.7042867381700159  1.0000
  S   S74       1.0  0.04247976051910296  0.40212654708580997  0.7226040510019943  1.0000
  Fe  Fe38      1.0  0.029293705853833396  0.273750358351898  0.7863449934337179  1.0000
  S   S75       1.0  0.0016046349054192799  0.21157119083070597  0.7577313128326013  1.0000
  S   S76       1.0  0.04293986909145762  0.2695147777385425  0.8352667440552664  1.0000
  Fe  Fe39      1.0  0.0458682600608071  0.25896083026730865  0.7216447567620058  1.0000
  S   S77       1.0  0.08675939636468959  0.24392625583175662  0.6882886421689164  1.0000
  Fe  Fe40      1.0  0.9493598553822531  0.229870307179405  0.7431905359047732  1.0000
  S   S78       1.0  0.8750521555277687  0.17451764530405833  0.7465321713007999  1.0000
  S   S79       1.0  0.07781866002350833  0.31971227825079723  0.7513763074851091  1.0000
  S   S80       1.0  0.9744016348929172  0.2894958945783346  0.7741169350110707  1.0000
  Fe  Fe41      1.0  0.6874886686088103  0.6861282787358577  0.07769618179215002  1.0000
  S   S81       1.0  0.6564449338421104  0.6289276930270827  0.044795618029476444  1.0000
  S   S82       1.0  0.7092222724303787  0.7595696510763946  0.06865261893569292  1.0000
  Fe  Fe42      1.0  0.6927476955250108  0.6279052263546279  0.12709728529866665  1.0000
  S   S83       1.0  0.6625279380641542  0.5659685620969722  0.09859319183703578  1.0000
  S   S84       1.0  0.7060503514893003  0.6243690010400902  0.17596883055125903  1.0000
  Fe  Fe43      1.0  0.7079430755084736  0.6115722837865363  0.06242543814605981  1.0000
  S   S85       1.0  0.7422365348946893  0.5826922985908176  0.034063294560996674  1.0000
  Fe  Fe44      1.0  0.6132460784544613  0.5873991416001278  0.08341953311433534  1.0000
  S   S86       1.0  0.5400566839126288  0.530675632254597  0.08535849268260962  1.0000
  S   S87       1.0  0.742777636772841  0.6720833025863178  0.09227104985902936  1.0000
  S   S88       1.0  0.6398561038110113  0.6462598946720817  0.11487967434829134  1.0000
  Fe  Fe45      1.0  0.2767354164877834  0.29870808440082536  0.9773204986194328  1.0000
  S   S89       1.0  0.3059521520602742  0.3533522051266094  0.011739283956737179  1.0000
  S   S90       1.0  0.2580074010916277  0.22582299701194547  0.9843122467222775  1.0000
  Fe  Fe46      1.0  0.26095383871508115  0.3574498171643381  0.9329085522126809  1.0000
  S   S91       1.0  0.2876282264734948  0.4166233956613164  0.9642137159166204  1.0000
  S   S92       1.0  0.244767125557482  0.3605339096622699  0.884552149856903  1.0000
  Fe  Fe47      1.0  0.3432279869383829  0.4006927229516438  0.9738421815975591  1.0000
  S   S93       1.0  0.4171708688175072  0.45587863005622187  0.9707120650827141  1.0000
  Fe  Fe48      1.0  0.24780863409315076  0.36413619782362133  0.9992820335344373  1.0000
  S   S94       1.0  0.2069058064160024  0.36897057712609743  0.037457280655788905  1.0000
  S   S95       1.0  0.31896209874662074  0.3446017040850864  0.9403168651568686  1.0000
  S   S96       1.0  0.21634990378059818  0.3064371055275892  0.9670353266203374  1.0000
  Fe  Fe49      1.0  0.368040767795733  0.3001791068728631  0.6294022824102165  1.0000
  S   S97       1.0  0.31773903811879267  0.3202065587623582  0.6134800717125488  1.0000
  S   S98       1.0  0.34877810812135046  0.22591999488433204  0.6270254278641868  1.0000
  Fe  Fe50      1.0  0.44257916789454876  0.3995499315693408  0.6388176315137019  1.0000
  S   S99       1.0  0.39738867765326435  0.4266270723852555  0.6246678879928391  1.0000
  S   S100      1.0  0.5177352590474109  0.4490196412918868  0.6453796643883172  1.0000
  Fe  Fe51      1.0  0.34351839209238294  0.3688808585577308  0.6517462238580295  1.0000
  S   S101      1.0  0.2995545304567246  0.3792337177659687  0.6850446966535582  1.0000
  Fe  Fe52      1.0  0.37631666727940133  0.37595566153860505  0.5877569883556154  1.0000
  S   S102      1.0  0.3740116253080946  0.3917274136155864  0.5389460219369608  1.0000
  S   S103      1.0  0.3908368665503893  0.3458315065319779  0.66929834960747  1.0000
  S   S104      1.0  0.4243471389371443  0.35171976111000536  0.6003434717185451  1.0000
  Fe  Fe53      1.0  0.16737754776710945  0.9181580787198962  0.7157414146973415  1.0000
  S   S105      1.0  0.19265826942676292  0.8845908862688008  0.7470323487439113  1.0000
  S   S106      1.0  0.1043234124896666  0.8754474442359678  0.6884243083442032  1.0000
  Fe  Fe54      1.0  0.23741328663274244  0.013757441578828411  0.7352010870986455  1.0000
  S   S107      1.0  0.2685543669473113  0.9877812805928952  0.7683075979783761  1.0000
  S   S108      1.0  0.26160068168657363  0.08931760992998852  0.7356875727157823  1.0000
  Fe  Fe55      1.0  0.26209973862736563  0.9394364053646843  0.7325364279579715  1.0000
  S   S109      1.0  0.3135959699520257  0.9166168237565635  0.7276761167366862  1.0000
  Fe  Fe56      1.0  0.1972010891963919  0.9348310582936095  0.7805407871107998  1.0000
  S   S110      1.0  0.1795038818295483  0.9178571563736168  0.8292223700137207  1.0000
  S   S111      1.0  0.23667022656892467  0.9691820779979928  0.6979252276580686  1.0000
  S   S112      1.0  0.1660134359218399  0.9647186029735858  0.7506444402375891  1.0000
  Fe  Fe57      1.0  0.6758921469117893  0.9671071100831835  0.30388245244833273  1.0000
  S   S113      1.0  0.6380731244347521  0.9942153206311026  0.2779201495081157  1.0000
  S   S114      1.0  0.6539045563898549  0.8926554432492798  0.2969689851296582  1.0000
  Fe  Fe58      1.0  0.7449754923320234  0.06170152896200231  0.3258671130813114  1.0000
  S   S115      1.0  0.7127444546169358  0.09557043358446812  0.30106294546218026  1.0000
  S   S116      1.0  0.8055315892386389  0.1012988070174049  0.3557773784476  1.0000
  Fe  Fe59      1.0  0.6470830289204906  0.03687452105158891  0.31778774994688724  1.0000
  S   S117      1.0  0.5943598137031489  0.053011041817634386  0.33503699719572827  1.0000
  Fe  Fe60      1.0  0.7071087932501996  0.05008215262915978  0.2633423903847149  1.0000
  S   S118      1.0  0.7152733152455425  0.0671936203810467  0.21401025178857458  1.0000
  S   S119      1.0  0.6795061917271193  0.005672005952391368  0.3453016313373252  1.0000
  S   S120      1.0  0.7446735393604109  0.020463271030862103  0.2867986535724384  1.0000
  Fe  Fe61      1.0  0.4866795140044366  0.5783131458917616  0.38360651897551673  1.0000
  S   S121      1.0  0.5311176230879601  0.5523517029643029  0.4014488781881657  1.0000
  S   S122      1.0  0.4200168334277548  0.5318417340619432  0.36041852572167515  1.0000
  Fe  Fe62      1.0  0.5540863881086823  0.676698154669032  0.4011352987241196  1.0000
  S   S123      1.0  0.6027450503846458  0.6573694087084212  0.42113776807791586  1.0000
  S   S124      1.0  0.573757403189494  0.7509461929326696  0.40390781151542887  1.0000
  Fe  Fe63      1.0  0.588754353719254  0.6145403444820445  0.3804503348378005  1.0000
  S   S125      1.0  0.6379630180825226  0.6112503136684119  0.3480262792440074  1.0000
  Fe  Fe64      1.0  0.5401415509357003  0.597134176026519  0.4404347947143733  1.0000
  S   S126      1.0  0.5372399084661468  0.5762123962074773  0.4886091783253544  1.0000
  S   S127      1.0  0.5436361400270286  0.6373099006378604  0.35931239124219067  1.0000
  S   S128      1.0  0.49240442442517124  0.6198854858995894  0.423806808026923  1.0000
  Fe  Fe65      1.0  0.8477621331481376  0.24680391314939876  0.058137007505456764  1.0000
  S   S129      1.0  0.8866704941385349  0.21412316394112363  0.07510058500951408  1.0000
  S   S130      1.0  0.7816964648811847  0.20749525588363776  0.03287949760750367  1.0000
  Fe  Fe66      1.0  0.9210641399253839  0.3418948802875282  0.07735105198686754  1.0000
  S   S131      1.0  0.9649576939837707  0.31583120338274184  0.0963370628223457  1.0000
  S   S132      1.0  0.9490360874630196  0.4177737162700069  0.08132432216791978  1.0000
  Fe  Fe67      1.0  0.9476125107795788  0.27414475277540556  0.05489461547074879  1.0000
  S   S133      1.0  0.9930159091707704  0.26619629778960596  0.021691999292194675  1.0000
  Fe  Fe68      1.0  0.8995511247939463  0.25842589124217286  0.11505945087297713  1.0000
  S   S134      1.0  0.8966817529715977  0.2354725853575643  0.1628801607044064  1.0000
  S   S135      1.0  0.9077907718558894  0.3036995000191626  0.03474452624608237  1.0000
  S   S136      1.0  0.8568270761714788  0.28780691882987547  0.09939118527516326  1.0000
  Fe  Fe69      1.0  0.09158345290735305  0.7203468447008253  0.9958773510612763  1.0000
  S   S137      1.0  0.06326568085965828  0.754722557438217  0.9676623974602286  1.0000
  S   S138      1.0  0.15136163135242361  0.7586120556510497  0.026860789385464434  1.0000
  Fe  Fe70      1.0  0.020389873354218067  0.6254736617328444  0.9750637028735006  1.0000
  S   S139      1.0  0.9862425760297753  0.6531869992900586  0.9456897542615468  1.0000
  S   S140      1.0  0.9950494524958122  0.5500547907314619  0.9703225301617046  1.0000
  Fe  Fe71      1.0  0.05717061003427083  0.7059919002088851  0.9320421347801091  1.0000
  S   S141      1.0  0.07383685265501619  0.7177953917211113  0.8827515427428809  1.0000
  Fe  Fe72      1.0  0.995210507540933  0.6990198230473771  0.9838854670555517  1.0000
  S   S142      1.0  0.9473932483687073  0.722797301559834  0.9996992241149347  1.0000
  S   S143      1.0  0.09095006094886941  0.6756100132357239  0.9590853593301621  1.0000
  S   S144      1.0  0.023817171556290928  0.6674534283061756  0.014581791302770375  1.0000
  C   C1        1.0  0.9591200379803814  0.453703910433843  0.05029720220861205  1.0000
  C   C2        1.0  0.9475437520924819  0.436596895539328  0.021437111616095184  1.0000
  C   C3        1.0  0.9582472348159898  0.4665043666117792  0.997177554007373  1.0000
  C   C4        1.0  0.9803054611778645  0.5136725232228265  0.0015627456548927832  1.0000
  C   C5        1.0  0.9914338039121982  0.5307341085863755  0.030436460799436595  1.0000
  C   C6        1.0  0.9809363497897216  0.5008408811489302  0.054669680401676225  1.0000
  H   H1        1.0  0.9303206489203857  0.40038842449122225  0.017774999449796436  1.0000
  H   H2        1.0  0.9493372565703351  0.4530129155888338  0.9749189001065126  1.0000
  H   H3        1.0  0.00846692910398339  0.566974865777305  0.034091531218610256  1.0000
  H   H4        1.0  0.9899706327174858  0.514364347008689  0.07692005452806469  1.0000
  C   C7        1.0  0.8464727878996162  0.18765436310154676  0.17646848331816486  1.0000
  C   C8        1.0  0.8447473805999752  0.1737846426861461  0.20613262973597463  1.0000
  C   C9        1.0  0.8046093134546655  0.13731671736126566  0.21802562149773752  1.0000
  C   C10       1.0  0.7660478684654984  0.11390358314240233  0.20016442750161675  1.0000
  C   C11       1.0  0.767940591086839  0.12736119644216037  0.17040917516244286  1.0000
  C   C12       1.0  0.8078718655548844  0.16427753369053708  0.158639482086442  1.0000
  H   H5        1.0  0.8744990155620954  0.19123985871451127  0.22003282433814667  1.0000
  H   H6        1.0  0.8036015541882999  0.12707804300326123  0.24092653178495044  1.0000
  H   H7        1.0  0.738269444589817  0.1094178938687034  0.15645670164646022  1.0000
  H   H8        1.0  0.8087420009823215  0.17469297612027357  0.1358035451008596  1.0000
  C   C13       1.0  0.6297613548759375  0.8533475310911461  0.32663787658376264  1.0000
  C   C14       1.0  0.6293136997328903  0.8676351968507114  0.35567886415340433  1.0000
  C   C15       1.0  0.611373353196597  0.8357134388968617  0.3789844775783826  1.0000
  C   C16       1.0  0.5936015433691388  0.789245920707205  0.37351568643917  1.0000
  C   C17       1.0  0.5934947611709878  0.7748341973985606  0.344394737746837  1.0000
  C   C18       1.0  0.611750116357297  0.8068223044038779  0.32109330660855157  1.0000
  H   H9        1.0  0.6430952074222088  0.9033241145454409  0.36025003034631  1.0000
  H   H10       1.0  0.6115031285708894  0.8471475421032622  0.40141898309586693  1.0000
  H   H11       1.0  0.5792946012381387  0.7391024190747316  0.3398078827206126  1.0000
  H   H12       1.0  0.6117041761710317  0.7954330633024392  0.29866955253630123  1.0000
  C   C19       1.0  0.15103059507593652  0.8619929911357338  0.8436917418052682  1.0000
  C   C20       1.0  0.13798664480010533  0.8552734222497741  0.8737317583661957  1.0000
  C   C21       1.0  0.1146996153424044  0.8113237612953288  0.8860273429088754  1.0000
  C   C22       1.0  0.10419158196470289  0.7736516340763359  0.8683215759553844  1.0000
  C   C23       1.0  0.11763758188319161  0.7803718438826877  0.8383079058689333  1.0000
  C   C24       1.0  0.14118971981703968  0.8243930002214207  0.8260555194590214  1.0000
  H   H13       1.0  0.14558338104945664  0.8841987033832619  0.8875517788617501  1.0000
  H   H14       1.0  0.10454521637757813  0.8066336119236358  0.9091397109080455  1.0000
  H   H15       1.0  0.10997474901221749  0.7513945608963369  0.8245437158045622  1.0000
  H   H16       1.0  0.15171301516721628  0.829188173134048  0.803030346019878  1.0000
  C   C25       1.0  0.32871089111033513  0.18899663137554729  0.6580815269857911  1.0000
  C   C26       1.0  0.31280035312911003  0.14248783858168895  0.6539916844237627  1.0000
  C   C27       1.0  0.29373986832718846  0.1116136663938257  0.6778373690740861  1.0000
  C   C28       1.0  0.29041636769117046  0.1271197365086793  0.7059814129736279  1.0000
  C   C29       1.0  0.30745077611226534  0.1737941964160355  0.7102264184496845  1.0000
  C   C30       1.0  0.3266102221057756  0.20464241209819573  0.6864057124217718  1.0000
  H   H17       1.0  0.31440799630319594  0.13016594380285154  0.6321368940971741  1.0000
  H   H18       1.0  0.28056693704553787  0.07575846581623195  0.6742739136944709  1.0000
  H   H19       1.0  0.3051816740166381  0.18606231095123552  0.7319625386329411  1.0000
  H   H20       1.0  0.339265393392244  0.24043167058605688  0.6898825176345774  1.0000
  C   C31       1.0  0.4167643708207695  0.44470483571409425  0.5249225933802438  1.0000
  C   C32       1.0  0.4447104107528029  0.4801085005046264  0.5440352391950012  1.0000
  C   C33       1.0  0.4801358940402123  0.5210914303819059  0.5324544640024168  1.0000
  C   C34       1.0  0.4883772625541569  0.5268767743241026  0.5017491897873408  1.0000
  C   C35       1.0  0.4595992603931659  0.49202481043328516  0.482511853034712  1.0000
  C   C36       1.0  0.4238349733534129  0.45110491047002543  0.49409431934370984  1.0000
  H   H21       1.0  0.43909470137933837  0.4758854043580931  0.567750693330246  1.0000
  H   H22       1.0  0.5015450060658431  0.5483494189763997  0.5473742124115559  1.0000
  H   H23       1.0  0.46553860383783213  0.4961882581047041  0.4587929856565244  1.0000
  H   H24       1.0  0.40216139954635866  0.4239910375670708  0.47915692648830654  1.0000
  C   C37       1.0  0.14751543879609  0.34096480032556625  0.03294553793236599  1.0000
  C   C38       1.0  0.12784503380285883  0.3246171904026833  0.005187609425745698  1.0000
  C   C39       1.0  0.08034753204606736  0.30151182899057744  0.0021237071274575747  1.0000
  C   C40       1.0  0.052290511750956774  0.2952367459740147  0.026679488906212297  1.0000
  C   C41       1.0  0.07185938938394143  0.3118709524353116  0.054460606823819244  1.0000
  C   C42       1.0  0.11946072689764096  0.3345173264649837  0.05759723933121619  1.0000
  H   H25       1.0  0.14917107784918426  0.33016861816992193  0.9859562719924488  1.0000
  H   H26       1.0  0.06537036135430319  0.2888860555230601  0.9805381272601236  1.0000
  H   H27       1.0  0.05034959209751675  0.3067571307677979  0.07356671471301479  1.0000
  H   H28       1.0  0.13458877442399486  0.3471074381934696  0.07914773902931159  1.0000
  C   C43       1.0  0.799460916774036  0.6214844214855144  0.02479917669915643  1.0000
  C   C44       1.0  0.827327231659154  0.6056768848382804  0.012985699154560049  1.0000
  C   C45       1.0  0.8730009378654482  0.6363357295754738  0.005399569216899769  1.0000
  C   C46       1.0  0.8907247507209671  0.6829560746485178  0.009312641259898946  1.0000
  C   C47       1.0  0.8628116457659835  0.698691554212388  0.02103803251464953  1.0000
  C   C48       1.0  0.8173843666167974  0.6680812356581655  0.028835818672472865  1.0000
  H   H29       1.0  0.8136413241468774  0.5696687486532438  0.009789363477138435  1.0000
  H   H30       1.0  0.8943152244513941  0.6239376544975179  0.9963547452628986  1.0000
  H   H31       1.0  0.8762111835294432  0.7347196823478434  0.0238547554897377  1.0000
  H   H32       1.0  0.7960073843972093  0.6806510779539827  0.0374082147376182  1.0000
  C   C49       1.0  0.5049165023838286  0.5127605323117785  0.0537917396839934  1.0000
  C   C50       1.0  0.46194905656723906  0.4734830741785492  0.05580263196395853  1.0000
  C   C51       1.0  0.4342423972961421  0.4562280215236776  0.0305781345641068  1.0000
  C   C52       1.0  0.4495852247008254  0.478055949895137  0.0031601235089666613  1.0000
  C   C53       1.0  0.49240696591547894  0.5176009822206457  0.0011986541009834095  1.0000
  C   C54       1.0  0.5198355236848469  0.5352401852254446  0.02652787747383023  1.0000
  H   H33       1.0  0.45019021208885956  0.4561190118712451  0.07690632217697191  1.0000
  H   H34       1.0  0.4013078644776606  0.4257900401485758  0.032268705914222436  1.0000
  H   H35       1.0  0.5041800890760803  0.5347477288591584  0.9800287355919137  1.0000
  H   H36       1.0  0.5524712659990287  0.5660789908774451  0.024933564848600653  1.0000
  C   C55       1.0  0.24105008255671814  0.33943781878760815  0.6861647935946881  1.0000
  C   C56       1.0  0.21810612168330348  0.31507897649602534  0.6608454666528981  1.0000
  C   C57       1.0  0.17072563219257425  0.2858147618655854  0.6617519521998183  1.0000
  C   C58       1.0  0.14612856974680433  0.28055389357261634  0.6879915228645269  1.0000
  C   C59       1.0  0.16911419960823748  0.30468707184510807  0.713356540958701  1.0000
  C   C60       1.0  0.21642752731276454  0.3342648662306824  0.7123802594600325  1.0000
  H   H37       1.0  0.23667839805635899  0.31979852344767457  0.6403499831691949  1.0000
  H   H38       1.0  0.152976297741218  0.26765596980387735  0.6419474908653681  1.0000
  H   H39       1.0  0.15055128953966207  0.300342099409612  0.7338123805736291  1.0000
  H   H40       1.0  0.234047330311766  0.35321813943403485  0.7320057391612432  1.0000
  C   C61       1.0  0.0992306258991266  0.29525722008560124  0.8486788607186254  1.0000
  C   C62       1.0  0.1366458016280818  0.31675994620270403  0.8294916375746754  1.0000
  C   C63       1.0  0.18109875886553609  0.336985932512537  0.8408791149217127  1.0000
  C   C64       1.0  0.18842947622387632  0.3359203646832357  0.8714712361255842  1.0000
  C   C65       1.0  0.15106663480758428  0.3141668587421964  0.8906911574831782  1.0000
  C   C66       1.0  0.10658168644964497  0.2938608006927542  0.8792801092705346  1.0000
  H   H41       1.0  0.1313297070830048  0.3178481204864107  0.8059083277237273  1.0000
  H   H42       1.0  0.20991699296507393  0.3536769551978311  0.825913028247901  1.0000
  H   H43       1.0  0.1563977461058831  0.31321091244617905  0.9142919193062787  1.0000
  H   H44       1.0  0.07771296320111297  0.2772666631815573  0.8941961098361894  1.0000
  C   C67       1.0  0.3701131452084924  0.9585284923330784  0.7200944215968789  1.0000
  C   C68       1.0  0.3834423897795538  0.004624922833998735  0.7198941737455345  1.0000
  C   C69       1.0  0.42886229084599997  0.03723870616012204  0.7133362263417404  1.0000
  C   C70       1.0  0.46078185120921705  0.02380332223418602  0.7064865964407525  1.0000
  C   C71       1.0  0.4475406048541131  0.9777834632180195  0.7074325825164169  1.0000
  C   C72       1.0  0.4023578060106971  0.9452607718713615  0.7142740316450459  1.0000
  H   H45       1.0  0.3587764575500928  0.015145764877475765  0.7245855213145778  1.0000
  H   H46       1.0  0.4390429850583278  0.07287367887284413  0.7129286716431867  1.0000
  H   H47       1.0  0.47202916477062773  0.9671418535964462  0.7028248731135748  1.0000
  H   H48       1.0  0.3922448075775629  0.9096424434046236  0.714624592029324  1.0000
  C   C73       1.0  0.8345225774517108  0.1632269103839246  0.7185460712533742  1.0000
  C   C74       1.0  0.7882741809460343  0.13378801492146858  0.7250218104763674  1.0000
  C   C75       1.0  0.755008924405832  0.121870064038908  0.7029386978360906  1.0000
  C   C76       1.0  0.767909720415219  0.13858484009449562  0.6740220032677284  1.0000
  C   C77       1.0  0.8140785225841053  0.16862724340101914  0.6676464522080382  1.0000
  C   C78       1.0  0.8473391075588619  0.1810436125654594  0.6898599501113214  1.0000
  H   H49       1.0  0.7782387211552814  0.1202938783940043  0.7472731478396057  1.0000
  H   H50       1.0  0.7195002984959217  0.09944438472302315  0.7082132441032016  1.0000
  H   H51       1.0  0.8242464548435645  0.18170305804780587  0.6453108574973021  1.0000
  H   H52       1.0  0.8829059962111044  0.20367808451559322  0.6846955960797554  1.0000
  C   C79       1.0  0.4618425273351447  0.9434688074682697  0.3770160356697469  1.0000
  C   C80       1.0  0.4888968989238005  0.930766002455839  0.3605825733919827  1.0000
  C   C81       1.0  0.530665664879031  0.9640591804804475  0.3483091127631749  1.0000
  C   C82       1.0  0.5451831877383695  0.010073974574627442  0.3523624435601632  1.0000
  C   C83       1.0  0.5186078300133936  0.022595385596730133  0.36930470703830753  1.0000
  C   C84       1.0  0.4772300939832431  0.9894732044557314  0.38161935867169466  1.0000
  H   H53       1.0  0.47736266546178885  0.8951803118457129  0.3570534057654193  1.0000
  H   H54       1.0  0.5510937924467766  0.9541908450280195  0.3352001505680136  1.0000
  H   H55       1.0  0.5298393018396309  0.05817681672390906  0.37256688111480196  1.0000
  H   H56       1.0  0.457058518124892  0.9998296521035874  0.3942499234302813  1.0000
  C   C85       1.0  0.41628109261026064  0.9699872512175907  0.5351926600138063  1.0000
  C   C86       1.0  0.45686970817160766  0.9976919423032481  0.5198736591331662  1.0000
  C   C87       1.0  0.49815904386564847  0.002569974220112847  0.5302960082288881  1.0000
  C   C88       1.0  0.49917273953575403  0.98007224762083  0.5561719964655573  1.0000
  C   C89       1.0  0.45865396873103764  0.9527921728068536  0.5717157278452827  1.0000
  C   C90       1.0  0.41731909706963427  0.9477357325643513  0.5611980115950109  1.0000
  H   H57       1.0  0.4564896856243604  0.015913635961833233  0.5002499095984165  1.0000
  H   H58       1.0  0.5295405264492853  0.024271569463152416  0.5184721273186442  1.0000
  H   H59       1.0  0.45904811128769485  0.9348113287494277  0.5914711484662877  1.0000
  H   H60       1.0  0.3859511820544842  0.9262165034855815  0.5731105789241612  1.0000
  C   C91       1.0  0.7909603220041032  0.6822237832586767  0.3668871864531187  1.0000
  C   C92       1.0  0.7600774352449641  0.6731673356684854  0.39028829671209114  1.0000
  C   C93       1.0  0.712959032842683  0.6513474402659019  0.3848610873237912  1.0000
  C   C94       1.0  0.6965863432238615  0.6382504654165302  0.35597140909594854  1.0000
  C   C95       1.0  0.7274062479552049  0.6469969655599817  0.3326381593574186  1.0000
  C   C96       1.0  0.7744545481601277  0.6691425142234961  0.3380354217764152  1.0000
  H   H61       1.0  0.7727031072364148  0.6830570368408763  0.41267710559652715  1.0000
  H   H62       1.0  0.6893830459766019  0.6442666044175894  0.4030480150056757  1.0000
  H   H63       1.0  0.7149594329297256  0.6370389431921878  0.31022605298789513  1.0000
  H   H64       1.0  0.7979441685903307  0.6766088856325908  0.31979686602478563  1.0000
  C   C97       1.0  0.7621854432198082  0.6535433955161544  0.18935939365425122  1.0000
  C   C98       1.0  0.76957000369033  0.656657266444826  0.2201218619612966  1.0000
  C   C99       1.0  0.8140041933838732  0.6800359451714247  0.23151285648652517  1.0000
  C   C100      1.0  0.8512426683259748  0.7004031473884198  0.2121310026042271  1.0000
  C   C101      1.0  0.8438867204165403  0.6975591419703435  0.18135207278213408  1.0000
  C   C102      1.0  0.7994441973914334  0.6738811624423344  0.16996261769435198  1.0000
  H   H65       1.0  0.7408076732772205  0.6410500494405768  0.2352246402053404  1.0000
  H   H66       1.0  0.8193783363191892  0.682460780804328  0.25527942418137234  1.0000
  H   H67       1.0  0.8726910647152705  0.7130751895803861  0.16629217810329128  1.0000
  H   H68       1.0  0.7940512820821208  0.6709055120911398  0.14622914472743498  1.0000
  C   C103      1.0  0.10332322507922506  0.8103899682248595  0.35304305101924816  1.0000
  C   C104      1.0  0.1508789655601737  0.8365352277418181  0.35017150014816245  1.0000
  C   C105      1.0  0.17903065764172285  0.8477294673504396  0.3752503993197125  1.0000
  C   C106      1.0  0.15979723412243518  0.8328579145153625  0.40341466732607667  1.0000
  C   C107      1.0  0.11230343133583297  0.8055151188851322  0.4062036821838712  1.0000
  C   C108      1.0  0.08407053070445725  0.7942410144170634  0.3810806932252963  1.0000
  H   H69       1.0  0.16598585543897917  0.848605560162176  0.3284727265248626  1.0000
  H   H70       1.0  0.21556156951105795  0.8680563981497675  0.3728196929988623  1.0000
  H   H71       1.0  0.09725935133012373  0.7937641882395358  0.4279531469355749  1.0000
  H   H72       1.0  0.04744939876076877  0.774327384087698  0.3835334779271381  1.0000
  C   C109      1.0  0.3570922299401678  0.19505060568044272  0.0340541847388022  1.0000
  C   C110      1.0  0.3140804350503364  0.16000507601360242  0.02573190627837718  1.0000
  C   C111      1.0  0.2839429660875799  0.1699389177414371  0.010587756307506746  1.0000
  C   C112      1.0  0.2964943219575429  0.2149384886925409  0.0038255932966915207  1.0000
  C   C113      1.0  0.3392334069697465  0.2501510000874836  0.012545075728142452  1.0000
  C   C114      1.0  0.3695534486902212  0.24016521665024865  0.027540393030678786  1.0000
  H   H73       1.0  0.30430722070827226  0.12510235886898308  0.030397387313292112  1.0000
  H   H74       1.0  0.25100275186972093  0.14253953081459514  0.0038068223620786323  1.0000
  H   H75       1.0  0.3492381703508263  0.28496353581253864  0.007301420019033333  1.0000
  H   H76       1.0  0.4028432791450156  0.26740506370573147  0.033842493573406414  1.0000
  C   C115      1.0  0.17358280909212834  0.8175528937535665  0.029059717107236205  1.0000
  C   C116      1.0  0.1680861047675831  0.841386527623969  0.0056573768832581806  1.0000
  C   C117      1.0  0.1849442326030879  0.8882106098636422  0.008072668750267686  1.0000
  C   C118      1.0  0.2082885916321394  0.9116586936689951  0.03362545428238939  1.0000
  C   C119      1.0  0.21434968481863978  0.8880073841413401  0.05694942910974454  1.0000
  C   C120      1.0  0.19686083394579432  0.8409674809052059  0.05469137826430144  1.0000
  H   H77       1.0  0.1513057118945514  0.8239307063385304  0.9855134915817311  1.0000
  H   H78       1.0  0.18026044549535916  0.9064397124517467  0.989949892383437  1.0000
  H   H79       1.0  0.23145481157358228  0.9057471204755564  0.07700774883401172  1.0000
  H   H80       1.0  0.20080749383841479  0.8225792747070768  0.073012854219871  1.0000
  C   C121      1.0  0.6044265694280581  0.7889923774927076  0.025323966669966058  1.0000
  C   C122      1.0  0.5912281803327678  0.7451308499817232  0.03558781934129617  1.0000
  C   C123      1.0  0.6232460474042042  0.7356144726062978  0.04855305037414675  1.0000
  C   C124      1.0  0.6685725339583245  0.7701196767157533  0.05166113287471198  1.0000
  C   C125      1.0  0.6817483535085517  0.8140122068537706  0.041476071129506145  1.0000
  C   C126      1.0  0.6498494139975027  0.8233976725745972  0.02818160133125991  1.0000
  H   H81       1.0  0.5561184022157025  0.7183775091474391  0.03352378240891141  1.0000
  H   H82       1.0  0.6127089517775288  0.7017038213856357  0.05644806716693707  1.0000
  H   H83       1.0  0.7167724036172529  0.8408278138007101  0.04375174000582249  1.0000
  H   H84       1.0  0.660379690796342  0.8573272547871091  0.02035001779725021  1.0000
  C   C127      1.0  0.7451524484571441  0.06358747212878559  0.006767756966711724  1.0000
  C   C128      1.0  0.772044370553373  0.08402957219207277  0.031778671956786964  1.0000
  C   C129      1.0  0.782470397419688  0.1277687149792232  0.040246465606718504  1.0000
  C   C130      1.0  0.7671256574228152  0.15182358335483975  0.023289105072028082  1.0000
  C   C131      1.0  0.7395283751118666  0.13111210868815865  0.9984875845789835  1.0000
  C   C132      1.0  0.7283193183505252  0.08688729367572746  0.9902980565285399  1.0000
  H   H85       1.0  0.7847685618492841  0.06589838791596973  0.04471306348877565  1.0000
  H   H86       1.0  0.8019067949944346  0.1425094165068368  0.060137106218695155  1.0000
  H   H87       1.0  0.7273717275099726  0.14953693523366648  0.9853428345831529  1.0000
  H   H88       1.0  0.7078012171688227  0.07132714041021535  0.9707937440678287  1.0000
  C   C133      1.0  0.497646411480409  0.9809185144809831  0.0007588034233920737  1.0000
  C   C134      1.0  0.4757050768197246  0.006535917189916862  0.998306100635484  1.0000
  C   C135      1.0  0.4547391527792076  0.01354279725385088  0.02316835135933948  1.0000
  C   C136      1.0  0.4557726278856845  0.9950701201575974  0.05071459121208894  1.0000
  C   C137      1.0  0.4773831572031151  0.9691444199286146  0.05312120599913994  1.0000
  C   C138      1.0  0.498186686056239  0.9619696702072755  0.028230884717378668  1.0000
  H   H89       1.0  0.47525566112985773  0.021370074731421607  0.9770978042778466  1.0000
  H   H90       1.0  0.43838286588559855  0.03375402035254149  0.021091058964311626  1.0000
  H   H91       1.0  0.47804155503740975  0.9545452497954967  0.07437426595129626  1.0000
  H   H92       1.0  0.5147076851247636  0.9419011624739779  0.030294337847162733  1.0000
  C   C139      1.0  0.9553840790100695  0.5640384701874873  0.32323252898849675  1.0000
  C   C140      1.0  0.945924757077347  0.5189742938480767  0.3247766345355411  1.0000
  C   C141      1.0  0.9778156427342254  0.5087376365143629  0.3370163701896889  1.0000
  C   C142      1.0  0.01953184369069727  0.5436227180991334  0.34744120750605056  1.0000
  C   C143      1.0  0.029490691425580584  0.5888035631418189  0.3451184800782463  1.0000
  C   C144      1.0  0.9973373097870105  0.5990092378101471  0.33325176650465627  1.0000
  H   H93       1.0  0.9135281086807341  0.49182713939268474  0.317009284338447  1.0000
  H   H94       1.0  0.970089170258878  0.4738794610831765  0.33842355920426936  1.0000
  H   H95       1.0  0.061871456585398076  0.6159370916285007  0.3529692472411343  1.0000
  H   H96       1.0  0.005018162270122634  0.6339005043151965  0.33189587501745915  1.0000
  C   C145      1.0  0.8808293934903821  0.25529777047264607  0.3433921162756369  1.0000
  C   C146      1.0  0.8802308582248687  0.23648741853361965  0.371166947309493  1.0000
  C   C147      1.0  0.8558754479283036  0.18910682506052853  0.3751067035703259  1.0000
  C   C148      1.0  0.8317005662451581  0.16047869182069185  0.3514170852171002  1.0000
  C   C149      1.0  0.8310852537694154  0.1794242203440216  0.32396918807466285  1.0000
  C   C150      1.0  0.8554536130857033  0.22666262640959559  0.320028753666359  1.0000
  H   H97       1.0  0.8988511672165654  0.25831245308797557  0.3895085566905311  1.0000
  H   H98       1.0  0.8558373648282297  0.1745338070003521  0.3965033646190509  1.0000
  H   H99       1.0  0.812811815497684  0.15760122344252855  0.3055294712333792  1.0000
  H   H100      1.0  0.854941223860185  0.24083645563832792  0.2986960227418751  1.0000
  C   C151      1.0  0.2527030471736183  0.10272752853824789  0.36958851555910943  1.0000
  C   C152      1.0  0.2881569822687759  0.11361076325954458  0.34947191180514303  1.0000
  C   C153      1.0  0.32009679489454596  0.099797800044439  0.35497380400976924  1.0000
  C   C154      1.0  0.3161331512845993  0.07396825858877949  0.3802361768140161  1.0000
  C   C155      1.0  0.2800439871777314  0.06201320894279937  0.40008321449972245  1.0000
  C   C156      1.0  0.24845586499870967  0.07653644713403164  0.3947991059426278  1.0000
  H   H101      1.0  0.29091363388281066  0.1323556685555433  0.329507942567947  1.0000
  H   H102      1.0  0.3478291467951459  0.1089330727719475  0.33946589062563093  1.0000
  H   H103      1.0  0.2769831746014414  0.042287316244979396  0.41973686552049505  1.0000
  H   H104      1.0  0.221084796634482  0.06796420322822697  0.4105002292833921  1.0000
  C   C157      1.0  0.2783862048786856  0.16362835822900496  0.20944194637200303  1.0000
  C   C158      1.0  0.2949112912353286  0.14300026200375976  0.2287592617891022  1.0000
  C   C159      1.0  0.305633619222688  0.11066538851334391  0.2178732844069457  1.0000
  C   C160      1.0  0.2999753238679963  0.09879823677438895  0.18766271081404337  1.0000
  C   C161      1.0  0.28204452714582556  0.11834557006855256  0.16858480790012353  1.0000
  C   C162      1.0  0.2713529583115977  0.1506600673930261  0.1794591549008726  1.0000
  H   H105      1.0  0.30037905022097977  0.15268253446530328  0.25191189455467294  1.0000
  H   H106      1.0  0.31923011586599714  0.0954747982019532  0.23280216640002604  1.0000
  H   H107      1.0  0.27673602552044085  0.10882832282359994  0.1454305757496785  1.0000
  H   H108      1.0  0.25792535473927775  0.16602201353386795  0.16454024151426316  1.0000
  C   C163      1.0  0.40540115198100485  0.47450187179799436  0.35811272211119477  1.0000
  C   C164      1.0  0.42353641589246965  0.45617808238216806  0.37798488018984167  1.0000
  C   C165      1.0  0.41334863296773794  0.4110504786308492  0.37499724574502197  1.0000
  C   C166      1.0  0.3837579268109442  0.3834999516941637  0.3527034116774724  1.0000
  C   C167      1.0  0.3641753524997177  0.40121012055256383  0.333442325747166  1.0000
  C   C168      1.0  0.37538333581894784  0.446818922368866  0.3359681344655668  1.0000
  H   H109      1.0  0.4449602167548868  0.4765020280449251  0.39595022125212465  1.0000
  H   H110      1.0  0.4281585961372027  0.39737702418160675  0.3901957845382385  1.0000
  H   H111      1.0  0.3414085187280612  0.38016818375213524  0.3160957015130036  1.0000
  H   H112      1.0  0.3612183110671927  0.4607603812143169  0.320465262421424  1.0000
  C   C169      1.0  0.1504020898580428  0.3055858226511841  0.33570370023306423  1.0000
  C   C170      1.0  0.1612687932245166  0.30287060390077136  0.3653139148099894  1.0000
  C   C171      1.0  0.148793508719085  0.32332544842765587  0.38781796047766665  1.0000
  C   C172      1.0  0.12557242195940277  0.346631609845724  0.3808291905666435  1.0000
  C   C173      1.0  0.1161352102034509  0.35058029577852706  0.351136790018404  1.0000
  C   C174      1.0  0.12817818742012563  0.3298288624059787  0.32871524517941253  1.0000
  H   H113      1.0  0.1780463274601855  0.28392749908495857  0.370935860715957  1.0000
  H   H114      1.0  0.15630733254296741  0.3202610799664421  0.4107809268313273  1.0000
  H   H115      1.0  0.09906716945043482  0.3691859616656642  0.3454359878824216  1.0000
  H   H116      1.0  0.11983322424794798  0.33217112659378906  0.305819631316228  1.0000
  C   C175      1.0  0.6173231981379328  0.8888560742191507  0.6981055532937744  1.0000
  C   C176      1.0  0.6275107746783588  0.8666431534690121  0.7204506947369775  1.0000
  C   C177      1.0  0.6492914238547817  0.8420464536971616  0.7134324513288158  1.0000
  C   C178      1.0  0.6604478684381625  0.838988323741442  0.6839579663798212  1.0000
  C   C179      1.0  0.6504058327963311  0.8613001542771775  0.661546135388687  1.0000
  C   C180      1.0  0.6289259463383311  0.8863147203547045  0.66861256380547  1.0000
  H   H117      1.0  0.6186143539674894  0.868383191942865  0.7433016685954752  1.0000
  H   H118      1.0  0.65763044547681  0.8256750094954356  0.7309189824933474  1.0000
  H   H119      1.0  0.658869043466662  0.8588806875124916  0.6386735730383422  1.0000
  H   H120      1.0  0.6207012225694111  0.9029953590770927  0.6512294181057194  1.0000
  C   C181      1.0  0.678229110955131  0.8148242986590305  0.8371342112928993  1.0000
  C   C182      1.0  0.6915679307283483  0.8371210982649324  0.8646099813921918  1.0000
  C   C183      1.0  0.6706487884913453  0.8606706635431854  0.875993459788498  1.0000
  C   C184      1.0  0.6360495893675202  0.861965324076993  0.8600202598354614  1.0000
  C   C185      1.0  0.6230637408705165  0.8401991887915755  0.8323334295675552  1.0000
  C   C186      1.0  0.6440866357530814  0.816699095926187  0.8208940019388774  1.0000
  H   H121      1.0  0.718259010639777  0.8361166270818513  0.8771386484491456  1.0000
  H   H122      1.0  0.6816658394707682  0.8782004710605897  0.896976711297093  1.0000
  H   H123      1.0  0.5962493775362995  0.8409190890676238  0.8198255644877097  1.0000
  H   H124      1.0  0.6334804555652961  0.7995093402896138  0.7997520551055739  1.0000
  C   C187      1.0  0.5306642968375764  0.49351962760224605  0.6703605610245743  1.0000
  C   C188      1.0  0.4991819612668617  0.4895941814198888  0.6919204790873754  1.0000
  C   C189      1.0  0.5113140284254178  0.5240966791644985  0.71301178034249  1.0000
  C   C190      1.0  0.5546761911201651  0.5629444576312455  0.712421274461524  1.0000
  C   C191      1.0  0.5856581215829293  0.5676917417713025  0.6901519108760752  1.0000
  C   C192      1.0  0.5737176361182981  0.5328655340272587  0.6692696291992231  1.0000
  H   H125      1.0  0.46584637217023717  0.45941090554774366  0.6928577142591413  1.0000
  H   H126      1.0  0.4870939472723683  0.5203443080186876  0.7300811786400782  1.0000
  H   H127      1.0  0.6189397773915926  0.5977675934484501  0.6892485185051905  1.0000
  H   H128      1.0  0.5979771145175666  0.5362059437412303  0.6523863371842382  1.0000
  C   C193      1.0  0.9383771634256884  0.4364677841690875  0.6843098203455653  1.0000
  C   C194      1.0  0.9845154814042233  0.46937672113075074  0.6856482000582039  1.0000
  C   C195      1.0  0.01606720957122132  0.4583686117520564  0.6974902667419925  1.0000
  C   C196      1.0  0.0017405777035146563  0.41438522777581116  0.707956249433363  1.0000
  C   C197      1.0  0.9556567903045047  0.38130039413578976  0.706447110858599  1.0000
  C   C198      1.0  0.9240197663410471  0.3924313701823195  0.6947915264232557  1.0000
  H   H129      1.0  0.9958709559561879  0.5034876457221784  0.6779529476399001  1.0000
  H   H130      1.0  0.0516375011466248  0.4841738925598402  0.698791841033462  1.0000
  H   H131      1.0  0.9443063689084471  0.3473362389543283  0.7146177254370916  1.0000
  H   H132      1.0  0.8883003801058372  0.3668542421972061  0.6940118362928317  1.0000
  C   C199      1.0  0.06986006119185492  0.7283775424640128  0.6760593052228775  1.0000
  C   C200      1.0  0.03735916437357486  0.7409869761089125  0.669616537781305  1.0000
  C   C201      1.0  0.048660832352641056  0.7866112429322212  0.6723670295272982  1.0000
  C   C202      1.0  0.09231009373374294  0.8195953606191365  0.6817275052743669  1.0000
  C   C203      1.0  0.12499514359024133  0.8070103522368955  0.6873870497540451  1.0000
  C   C204      1.0  0.11369750514021905  0.7615112440229805  0.6847560152400209  1.0000
  H   H133      1.0  0.0034442446336708354  0.7155789804202091  0.6628182823663572  1.0000
  H   H134      1.0  0.023270714229283607  0.7961906068245539  0.6677755772160471  1.0000
  H   H135      1.0  0.15904274682729302  0.8322942927664687  0.6938307996418127  1.0000
  H   H136      1.0  0.13908689935915372  0.751973791972558  0.689470320052353  1.0000
  C   C205      1.0  0.8103254034105228  0.6786208075017006  0.7045807319811901  1.0000
  C   C206      1.0  0.8469896670185041  0.6705259073834438  0.7067216926747277  1.0000
  C   C207      1.0  0.855138885870449  0.6466605930958862  0.6842963773072958  1.0000
  C   C208      1.0  0.8265770890577564  0.6306452739164912  0.6595458226657974  1.0000
  C   C209      1.0  0.7902065784311653  0.6391753315637728  0.6572500790996795  1.0000
  C   C210      1.0  0.7821514788445249  0.6631975846077836  0.6796186818534716  1.0000
  H   H137      1.0  0.8688637804869073  0.6822783137256752  0.7259887360430857  1.0000
  H   H138      1.0  0.8832924929326365  0.6403707276952035  0.6862455868942284  1.0000
  H   H139      1.0  0.7682511811800549  0.6271988558908219  0.6380197633113659  1.0000
  H   H140      1.0  0.75411292358106  0.669612966253018  0.6775698283746372  1.0000
  C   C211      1.0  0.9791904827629478  0.5286841065965808  0.528193808144494  1.0000
  C   C212      1.0  0.010575947787007767  0.5285509411732205  0.5078361964658336  1.0000
  C   C213      1.0  0.00044733972790123033  0.48883457342216974  0.49216652605929273  1.0000
  C   C214      1.0  0.9586612020424328  0.4490890591379126  0.4965795744969538  1.0000
  C   C215      1.0  0.9271146413715259  0.44946453584858165  0.5166791139429463  1.0000
  C   C216      1.0  0.9372974523727658  0.4890964907915556  0.5324128517399807  1.0000
  H   H141      1.0  0.0430064953640219  0.5591369414059729  0.5043511087938338  1.0000
  H   H142      1.0  0.02518631125968973  0.48882154581647674  0.4769463812902306  1.0000
  H   H143      1.0  0.8943087357835068  0.4191780049200947  0.5196821777738693  1.0000
  H   H144      1.0  0.912368303718627  0.4893158642676973  0.5473666267726148  1.0000
  N   N1        1.0  0.2702306400160224  0.45523429099407386  0.3841898849852944  1.0000
  C   C217      1.0  0.2886508091401571  0.4908799177356476  0.3609902398294306  1.0000
  C   C218      1.0  0.22868977091552975  0.45208947716385794  0.3972979361216656  1.0000
  C   C219      1.0  0.3048127839401588  0.4667916707125235  0.40761225059328643  1.0000
  C   C220      1.0  0.25877812608846623  0.41115150710820597  0.3708247458423576  1.0000
  H   H145      1.0  0.3202780824052884  0.49442567206190247  0.35083496030754097  1.0000
  H   H146      1.0  0.29763465238384595  0.524629863383841  0.37029154805520886  1.0000
  H   H147      1.0  0.2636226066650001  0.48314461533745356  0.34281620530780005  1.0000
  H   H148      1.0  0.21346596460140582  0.42512026685680715  0.4146771558836757  1.0000
  H   H149      1.0  0.23589939568410784  0.4845925804666223  0.4077883479021862  1.0000
  H   H150      1.0  0.20187241524941238  0.4435576913350602  0.38022299914600666  1.0000
  H   H151      1.0  0.2920673007914502  0.44081784740162433  0.4256302081930398  1.0000
  H   H152      1.0  0.3147242726509013  0.5001711121665168  0.41792950047348754  1.0000
  H   H153      1.0  0.33651879789793815  0.4692049362236862  0.398467992072817  1.0000
  H   H154      1.0  0.2890807111316701  0.41228700373955285  0.36040552616912014  1.0000
  H   H155      1.0  0.2323071399593604  0.4010337901323824  0.35329749061823057  1.0000
  H   H156      1.0  0.24543708401205375  0.3836337585042003  0.3878025448180748  1.0000
  N   N2        1.0  0.5924534497752373  0.7483671002543786  0.9312512102631811  1.0000
  C   C221      1.0  0.5647951641335747  0.7112064566189519  0.9523738597660003  1.0000
  C   C222      1.0  0.6368682012440192  0.7798368467847506  0.9448959795441185  1.0000
  C   C223      1.0  0.5682235734427604  0.7731885283963109  0.9241014949909183  1.0000
  C   C224      1.0  0.5999046673768011  0.7292788012642417  0.9037161328835246  1.0000
  H   H157      1.0  0.5311175283470254  0.686556403998471  0.9428106766299188  1.0000
  H   H158      1.0  0.5581158524333123  0.7245146429382456  0.9732311365901157  1.0000
  H   H159      1.0  0.5823263410261041  0.6921925339765665  0.9587328032476476  1.0000
  H   H160      1.0  0.632452113348881  0.7955569228006265  0.9653541610776958  1.0000
  H   H161      1.0  0.6556904076118611  0.7621255505810907  0.9512916694565114  1.0000
  H   H162      1.0  0.658992601896316  0.8078896850792269  0.92943615107779  1.0000
  H   H163      1.0  0.5616214270815879  0.7875975292799835  0.944443376429174  1.0000
  H   H164      1.0  0.5347637024274351  0.7506781739508389  0.9134856834138125  1.0000
  H   H165      1.0  0.5883456374094904  0.8019716510703662  0.9086174720640054  1.0000
  H   H166      1.0  0.6198898839555914  0.7563204564052219  0.8870594325496142  1.0000
  H   H167      1.0  0.5671008603356308  0.704820247592057  0.8930462682714603  1.0000
  H   H168      1.0  0.6190420036348475  0.7111970439932701  0.9081503040327804  1.0000
  N   N3        1.0  0.6391931692776932  0.9721424611533745  0.7966384564550657  1.0000
  C   C225      1.0  0.6496690572259588  0.0015926741817158252  0.7701653673619114  1.0000
  C   C226      1.0  0.6737734242788862  0.9580444841132052  0.7996279621015034  1.0000
  C   C227      1.0  0.5936374375312927  0.9314686280289559  0.7933538639103597  1.0000
  C   C228      1.0  0.6396469601204464  0.997377617950119  0.8234654829898338  1.0000
  H   H169      1.0  0.6232522565205388  0.011417267052345581  0.7665147458525764  1.0000
  H   H170      1.0  0.6509237820436178  0.9839817352754757  0.7496974152073794  1.0000
  H   H171      1.0  0.683148337959193  0.03335726622060187  0.7722642792486842  1.0000
  H   H172      1.0  0.6676568613532017  0.9369843539573103  0.8199270193911687  1.0000
  H   H173      1.0  0.6731999633104727  0.9373954043870724  0.7802870714363295  1.0000
  H   H174      1.0  0.7087333546396895  0.9878480042885387  0.8014015799750008  1.0000
  H   H175      1.0  0.5846038626641553  0.9086424246024166  0.813059928365369  1.0000
  H   H176      1.0  0.5920143161106403  0.9114558120240933  0.7733939643293678  1.0000
  H   H177      1.0  0.5666863758223005  0.9407633721282633  0.7907858063796197  1.0000
  H   H178      1.0  0.6315404205594194  0.9759412399664505  0.8438305797859263  1.0000
  H   H179      1.0  0.6140300772566388  0.008630226150101672  0.8219287138196028  1.0000
  H   H180      1.0  0.6736323529436977  0.02803869374560275  0.826875339921799  1.0000
  N   N4        1.0  0.9633564814713518  0.5609318983275068  0.42981829914604763  1.0000
  C   C229      1.0  0.942503972527982  0.5510476517116643  0.4597626073835595  1.0000
  C   C230      1.0  0.9305827929071543  0.5279684963539962  0.4084195436788017  1.0000
  C   C231      1.0  0.00495219721350626  0.5571790836433861  0.43026864041650664  1.0000
  C   C232      1.0  0.9753628221375574  0.6074148684959261  0.4207349554326465  1.0000
  H   H181      1.0  0.9662508803284363  0.5752190049330463  0.4765913052125969  1.0000
  H   H182      1.0  0.9331855103186734  0.5162053784229113  0.4671986737007615  1.0000
  H   H183      1.0  0.9109693314040421  0.5534495856086687  0.4602700024037444  1.0000
  H   H184      1.0  0.9451680114384725  0.5347974606440318  0.38564761903366396  1.0000
  H   H185      1.0  0.9213073109790721  0.49252282832898353  0.41424415409728443  1.0000
  H   H186      1.0  0.8986742097554926  0.5296587502620504  0.4074643059100368  1.0000
  H   H187      1.0  0.02319960405990451  0.5673336225395527  0.40859383059848986  1.0000
  H   H188      1.0  0.9968674241069962  0.521721286763762  0.4347341316964341  1.0000
  H   H189      1.0  0.029310194603569206  0.5793399576270444  0.4475351273610922  1.0000
  H   H190      1.0  0.00035330852418158365  0.6332309802583508  0.4362656387750815  1.0000
  H   H191      1.0  0.9448020396581095  0.6115401090157006  0.42008835479604134  1.0000
  H   H192      1.0  0.9909288590970653  0.6157446018130526  0.39809847743356064  1.0000
  N   N5        1.0  0.5136508830064017  0.9331793456657387  0.45953470723399215  1.0000
  C   C233      1.0  0.48404462460365993  0.9534632065386165  0.4610822074510152  1.0000
  C   C234      1.0  0.5514673284424236  0.9594439808647127  0.4384463107348037  1.0000
  C   C235      1.0  0.48663196865598274  0.8857377658459129  0.4492279152892078  1.0000
  C   C236      1.0  0.5323198783834411  0.9341063055752038  0.4893634157932435  1.0000
  H   H193      1.0  0.5035925130771822  0.9898014526781402  0.46752509407593573  1.0000
  H   H194      1.0  0.455795676976012  0.9352737250631538  0.47739114688665485  1.0000
  H   H195      1.0  0.46805153772669883  0.951895354212702  0.43933877836149354  1.0000
  H   H196      1.0  0.5726336516188951  0.9954350752801213  0.4455189133891905  1.0000
  H   H197      1.0  0.5743021726491107  0.9448465817881809  0.4364682826633194  1.0000
  H   H198      1.0  0.5385417293535739  0.9597967781467802  0.41579964753518883  1.0000
  H   H199      1.0  0.5076839767588562  0.869084560166359  0.44792177284546236  1.0000
  H   H200      1.0  0.4723034261621307  0.8839619392364695  0.4266777144601912  1.0000
  H   H201      1.0  0.4573467207041467  0.8651531471873113  0.4643652177312267  1.0000
  H   H202      1.0  0.5541775426993887  0.9183036216595233  0.48927495772476987  1.0000
  H   H203      1.0  0.5047242225959659  0.9156521006867677  0.5060738736030029  1.0000
  H   H204      1.0  0.5534942120580819  0.9694661138051174  0.49764926496211115  1.0000
  N   N6        1.0  0.7819327521907895  0.7850490176837471  0.14845457644600138  1.0000
  C   C237      1.0  0.8088641442475185  0.7800995498509239  0.12437878851743324  1.0000
  C   C238      1.0  0.8057397728276539  0.7915852117651602  0.17707936265369625  1.0000
  C   C239      1.0  0.7365918141982715  0.7437448167152718  0.15016957452432805  1.0000
  C   C240      1.0  0.7763447888975377  0.8245996058380578  0.14205524895019989  1.0000
  H   H205      1.0  0.8139721983664775  0.7506907434707143  0.1285041756060221  1.0000
  H   H206      1.0  0.8431187569627093  0.8108422784278887  0.12219982384770037  1.0000
  H   H207      1.0  0.7915051330720906  0.7745609184722846  0.10249327058010502  1.0000
  H   H208      1.0  0.7865104475021668  0.7956697358617875  0.19574114891598118  1.0000
  H   H209      1.0  0.8097511702566664  0.7618508089786257  0.18264061993669578  1.0000
  H   H210      1.0  0.8404318200065324  0.8220379756366605  0.17654151234242363  1.0000
  H   H211      1.0  0.7171349214857359  0.7384634858052533  0.12927604283161906  1.0000
  H   H212      1.0  0.7156741507072519  0.7453880517371602  0.16867595298091445  1.0000
  H   H213      1.0  0.7394554828416251  0.7130012469273255  0.15386130742667578  1.0000
  H   H214      1.0  0.7556599820799408  0.8290278514858066  0.15953018030170402  1.0000
  H   H215      1.0  0.7586141503729379  0.8204171404940498  0.12041935841037121  1.0000
  H   H216      1.0  0.8098433328313217  0.856480133692191  0.1406003185876309  1.0000
  N   N7        1.0  0.3293927910852046  0.23078254107760776  0.4186807048743455  1.0000
  C   C241      1.0  0.28126135709135786  0.19680914634447108  0.4248571297609394  1.0000
  C   C242      1.0  0.35881882520932307  0.22694886365545444  0.4413098726568634  1.0000
  C   C243      1.0  0.3352528540114505  0.2768464409749614  0.41955111014039936  1.0000
  C   C244      1.0  0.34222307139740293  0.22243054247853558  0.3889394956136828  1.0000
  H   H217      1.0  0.25810562283503674  0.19840937008970402  0.4079863527921829  1.0000
  H   H218      1.0  0.27019670910293103  0.20205118366249386  0.44706987048385144  1.0000
  H   H219      1.0  0.2756312827675532  0.16167143361246594  0.42427093916095143  1.0000
  H   H220      1.0  0.39539570324862083  0.25196822574153716  0.43715311589519734  1.0000
  H   H221      1.0  0.3501702407298758  0.2331512783291236  0.4640656257581817  1.0000
  H   H222      1.0  0.35508551771867697  0.19248893060865593  0.44123362942951666  1.0000
  H   H223      1.0  0.37109375547113527  0.303336253136262  0.4145872851018304  1.0000
  H   H224      1.0  0.3260536750240685  0.2845114110629424  0.44169151424525566  1.0000
  H   H225      1.0  0.3136166627777956  0.28088347173803396  0.4026402678201272  1.0000
  H   H226      1.0  0.3776695933568238  0.24861608340611158  0.3828266064171879  1.0000
  H   H227      1.0  0.31952323623328455  0.22333805993306755  0.371524705637863  1.0000
  H   H228      1.0  0.3397592357214568  0.18860886341356295  0.3877504346682112  1.0000
  N   N8        1.0  0.5291209083864031  0.49931192721502426  0.3098280929201177  1.0000
  C   C245      1.0  0.4885980275487504  0.45941214369990346  0.29737838713907144  1.0000
  C   C246      1.0  0.5197975635215203  0.5371234741644066  0.31298680416517033  1.0000
  C   C247      1.0  0.5685786254670218  0.5133768273602641  0.28975889766999097  1.0000
  C   C248      1.0  0.5395113436103433  0.48745114366758474  0.33927113512341794  1.0000
  H   H229      1.0  0.49409723999768235  0.4299612345587474  0.29495259808692653  1.0000
  H   H230      1.0  0.47967337376883196  0.46703022802655886  0.27514873442034565  1.0000
  H   H231      1.0  0.4583168521114078  0.4483282881526485  0.3120339866260752  1.0000
  H   H232      1.0  0.5500329995839509  0.5681392959404901  0.3215743389718571  1.0000
  H   H233      1.0  0.5104999337728185  0.5462075401221003  0.29139359400119325  1.0000
  H   H234      1.0  0.4912899806308729  0.5284058874103017  0.3287463329292925  1.0000
  H   H235      1.0  0.5766541501000768  0.48571692358490254  0.2867619624775369  1.0000
  H   H236      1.0  0.5996986356949332  0.5433640341582352  0.2987671446334374  1.0000
  H   H237      1.0  0.5621634223336487  0.5230746189168116  0.2674115266270565  1.0000
  H   H238      1.0  0.5697879692846017  0.5168564797877709  0.34942134918203455  1.0000
  H   H239      1.0  0.5468281288182906  0.4590997817290206  0.33774105975837265  1.0000
  H   H240      1.0  0.5105140788764524  0.4767978412067479  0.3549933880990975  1.0000
  N   N9        1.0  0.1919625266575344  0.17757878900178015  0.6740582174433994  1.0000
  C   C249      1.0  0.19560911383846655  0.13628114244923178  0.6772796748852066  1.0000
  C   C250      1.0  0.2177802322126809  0.20993569100865445  0.6980217282846046  1.0000
  C   C251      1.0  0.14350523130367585  0.16502043738776156  0.6759932320780145  1.0000
  C   C252      1.0  0.21104833254993163  0.19899680091152175  0.6449323019931793  1.0000
  H   H241      1.0  0.174168878011848  0.10990824201267013  0.6607893197248299  1.0000
  H   H242      1.0  0.18524866412169352  0.12103084303444583  0.699881808266124  1.0000
  H   H243      1.0  0.23109334888342553  0.14396405635161036  0.6735866674338551  1.0000
  H   H244      1.0  0.21499831641718004  0.24112138052377408  0.6965403911704106  1.0000
  H   H245      1.0  0.20517466670517315  0.1946973721600593  0.7203742578604881  1.0000
  H   H246      1.0  0.2546405422000115  0.2209160400373028  0.6968414202193687  1.0000
  H   H247      1.0  0.139223543082005  0.19520357398904054  0.6738594844815483  1.0000
  H   H248      1.0  0.12823709198458658  0.14876187900648888  0.6977251580882206  1.0000
  H   H249      1.0  0.12297072018527501  0.1409656073620402  0.6581158259202591  1.0000
  H   H250      1.0  0.24778298288009112  0.20914454632898188  0.6429537696475446  1.0000
  H   H251      1.0  0.20879587461816182  0.23018760567461063  0.6416115110307766  1.0000
  H   H252      1.0  0.1928015769296115  0.17551513068578972  0.6262760493284893  1.0000
  N   N10       1.0  0.04810232568111528  0.8200812247812568  0.05001326887432844  1.0000
  C   C253      1.0  0.0859825075417382  0.8551830951573848  0.06771815484179866  1.0000
  C   C254      1.0  0.05297724755753741  0.8354188977095305  0.018770535851725167  1.0000
  C   C255      1.0  0.004175219649138251  0.8123895645694503  0.06203987933330968  1.0000
  C   C256      1.0  0.04927442336179588  0.7772829672745857  0.05150852815770013  1.0000
  H   H253      1.0  0.08331705923251387  0.8450524909711622  0.0914874567318007  1.0000
  H   H254      1.0  0.08688426097634894  0.8883030450094845  0.06667259323812669  1.0000
  H   H255      1.0  0.1194344056111678  0.8611436821459387  0.059371769567274635  1.0000
  H   H256      1.0  0.024927111133988156  0.8098451861257215  0.004726309213050506  1.0000
  H   H257      1.0  0.052526591219521857  0.8677731355313095  0.01681245369878237  1.0000
  H   H258      1.0  0.08548575350096943  0.8411091167860613  0.008867600772380246  1.0000
  H   H259      1.0  0.9991376141183871  0.8003350804670556  0.08548572011813094  1.0000
  H   H260      1.0  0.9749757714533243  0.7861226734786688  0.04897286466418782  1.0000
  H   H261      1.0  0.0020580488325478985  0.8439524559737727  0.061290480217203624  1.0000
  H   H262      1.0  0.04710158144009857  0.765362160034025  0.07479876829463517  1.0000
  H   H263      1.0  0.08115032778870646  0.7812575275546835  0.04167238273642182  1.0000
  H   H264      1.0  0.02046178590959724  0.7496785923349126  0.039110247185130564  1.0000
  N   N11       1.0  0.1467432756095897  0.9554461497406025  0.354881016383551  1.0000
  C   C257      1.0  0.19305173517382687  0.9658251269843082  0.3634240713276516  1.0000
  C   C258      1.0  0.11322953174462536  0.922241440959084  0.37610936910809184  1.0000
  C   C259      1.0  0.13647333230446435  0.9361294481139035  0.3246059649195682  1.0000
  C   C260      1.0  0.14419887634037468  0.9975641144639541  0.3554038112202453  1.0000
  H   H265      1.0  0.2196135879662018  0.9927683998224728  0.3490247661386928  1.0000
  H   H266      1.0  0.19692759784826588  0.9353379665205677  0.3617360792890088  1.0000
  H   H267      1.0  0.20074469855782867  0.9776884011189446  0.38682312740788144  1.0000
  H   H268      1.0  0.07768961442539686  0.9120919009058235  0.36975338487744586  1.0000
  H   H269      1.0  0.11538889757829411  0.8907251760356495  0.37698503807886596  1.0000
  H   H270      1.0  0.11914007491650898  0.9360403412179572  0.399083879323961  1.0000
  H   H271      1.0  0.13756702564938292  0.9040300149262466  0.32342233060772957  1.0000
  H   H272      1.0  0.1612650266147772  0.9600978782597822  0.3080094913003115  1.0000
  H   H273      1.0  0.10168812473024305  0.9276668166139372  0.3174715817943519  1.0000
  H   H274      1.0  0.16913907702605505  0.02350127308240091  0.33968335905527014  1.0000
  H   H275      1.0  0.15194823515882305  0.013275434683128085  0.37785593584436106  1.0000
  H   H276      1.0  0.10974003204812059  0.9910640414893447  0.3491095197766087  1.0000
  N   N12       1.0  0.7143440869747678  0.7789143538754087  0.3757465714261469  1.0000
  C   C261      1.0  0.7198256862163902  0.8176916628275965  0.3577065995690958  1.0000
  C   C262      1.0  0.7026357716434517  0.7839131861231114  0.4066547057300784  1.0000
  C   C263      1.0  0.7573738172260207  0.7777724135586837  0.3754549027135614  1.0000
  C   C264      1.0  0.6774162815295494  0.7361755070964988  0.3632422601351472  1.0000
  H   H277      1.0  0.727771568617613  0.8146370750065556  0.3341125996081004  1.0000
  H   H278      1.0  0.747626529791051  0.8505186861603883  0.3663589264951066  1.0000
  H   H279      1.0  0.6882094125791712  0.8199303951924435  0.3579090838378992  1.0000
  H   H280      1.0  0.7299366651766422  0.8154719806125874  0.4170147809287611  1.0000
  H   H281      1.0  0.6705896680848901  0.7854526699216726  0.4076337753825145  1.0000
  H   H282      1.0  0.6972214033872883  0.754693497319992  0.420768753837065  1.0000
  H   H283      1.0  0.7865471613586786  0.810278009129791  0.38337545963417013  1.0000
  H   H284      1.0  0.7658682314879248  0.7711347576743655  0.35276574418917367  1.0000
  H   H285      1.0  0.7551448759803889  0.7504857899981413  0.390197573253019  1.0000
  H   H286      1.0  0.6733755141300569  0.7062511104576574  0.3757867638027753  1.0000
  H   H287      1.0  0.6842216872840954  0.7315159657448707  0.33968433612323756  1.0000
  H   H288      1.0  0.6440825312516761  0.7350485106676733  0.36421166750705636  1.0000
  N   N13       1.0  0.3284647564008481  0.8827750093770799  0.02163814415065146  1.0000
  C   C265      1.0  0.300798176986701  0.8881017741315497  0.9983644845584727  1.0000
  C   C266      1.0  0.3371083505467772  0.9154132953688897  0.04582835276470434  1.0000
  C   C267      1.0  0.37231462548740574  0.8916593895795193  0.008715550217460732  1.0000
  C   C268      1.0  0.30367848144548804  0.836013898986967  0.033630487329011534  1.0000
  H   H289      1.0  0.3182061556664509  0.9232210663736687  0.9891321543521562  1.0000
  H   H290      1.0  0.26745674934557995  0.8814273580265598  0.007353898565840344  1.0000
  H   H291      1.0  0.2935837512450998  0.86408919900082  0.9796888986523069  1.0000
  H   H292      1.0  0.35843119266046874  0.9129184220419687  0.06369212826484162  1.0000
  H   H293      1.0  0.3552786009167101  0.9510647432851659  0.03754805050685994  1.0000
  H   H294      1.0  0.30490959510287696  0.9095491211051344  0.05633622218990042  1.0000
  H   H295      1.0  0.39118296635091715  0.9261202815147049  0.9986344105335486  1.0000
  H   H296      1.0  0.36731047780176584  0.8668719705373548  0.9909738554663882  1.0000
  H   H297      1.0  0.3948526673652056  0.8896642169007347  0.025886481951663542  1.0000
  H   H298      1.0  0.3235989478914205  0.8308974455243961  0.051307362149501906  1.0000
  H   H299      1.0  0.29629595587625746  0.8104225464186294  0.01595795529727817  1.0000
  H   H300      1.0  0.2703567386120432  0.8280741420762651  0.04350595742731216  1.0000
  N   N14       1.0  0.5553896114770668  0.45973426537766754  0.5570833593480565  1.0000
  C   C269      1.0  0.5493572775777197  0.49338512682335856  0.5742133745322656  1.0000
  C   C270      1.0  0.5178990983316173  0.4370741051739372  0.5354545658205436  1.0000
  C   C271      1.0  0.5548741321365876  0.425509225539237  0.5776007213106612  1.0000
  C   C272      1.0  0.5994286573784497  0.48308037388282554  0.5410755191896275  1.0000
  H   H301      1.0  0.553154979087472  0.5216266313516713  0.559786789982286  1.0000
  H   H302      1.0  0.5747687037192455  0.5084939973735405  0.5924000853588492  1.0000
  H   H303      1.0  0.5150086454968483  0.47758468672330767  0.5848022923225344  1.0000
  H   H304      1.0  0.5209941684972565  0.411125095815651  0.522303905531634  1.0000
  H   H305      1.0  0.48404574513154675  0.4195519473031685  0.5467820481279488  1.0000
  H   H306      1.0  0.5174269361157539  0.46190471092786783  0.5195199314597057  1.0000
  H   H307      1.0  0.559524026530207  0.39958801611971634  0.5655766990055694  1.0000
  H   H308      1.0  0.5220454822718377  0.4073502357858572  0.5899529139710425  1.0000
  H   H309      1.0  0.58211750246863  0.44144971207058664  0.5946485220780214  1.0000
  H   H310      1.0  0.6283840057875232  0.5009380117148025  0.5567701215481813  1.0000
  H   H311      1.0  0.6006717434875465  0.5089409303138631  0.5252440763674836  1.0000
  H   H312      1.0  0.6053317542900001  0.4587335771241382  0.5280329633485663  1.0000
  N   N15       1.0  0.18434984459450604  0.23594393757185406  0.06051845046332272  1.0000
  C   C273      1.0  0.1658814014315336  0.23705827254380285  0.031028166219823513  1.0000
  C   C274      1.0  0.17910386390610017  0.19063289194182664  0.06557077836240967  1.0000
  C   C275      1.0  0.15945483753008058  0.24568340804115665  0.08368803389669723  1.0000
  C   C276      1.0  0.2331661372896638  0.27065618486868215  0.06164079199807256  1.0000
  H   H313      1.0  0.1703779170299913  0.27112141633054493  0.026212596482892758  1.0000
  H   H314      1.0  0.1288460487279747  0.21207274406651053  0.02952238529276374  1.0000
  H   H315      1.0  0.18341579931931204  0.22923461192265498  0.013005760353619111  1.0000
  H   H316      1.0  0.19796354778911865  0.18279646719801676  0.048382253357811225  1.0000
  H   H317      1.0  0.1926235696553002  0.1884920389974528  0.08766263935676147  1.0000
  H   H318      1.0  0.14271135811710206  0.16347437702129397  0.06462122641744696  1.0000
  H   H319      1.0  0.1725129281565675  0.24526954685459734  0.10628922982678392  1.0000
  H   H320      1.0  0.12237486708722471  0.22043057110484995  0.08340224550254821  1.0000
  H   H321      1.0  0.1631558922048974  0.27986762348749317  0.0802815167256139  1.0000
  H   H322      1.0  0.2529185005166965  0.2647934251590436  0.04410648748626497  1.0000
  H   H323      1.0  0.24843614910230058  0.2705342319204213  0.0834586868088434  1.0000
  H   H324      1.0  0.23827829301213416  0.305357429936756  0.058272940084261336  1.0000
  N   N16       1.0  0.09726021586232698  0.7189220900927074  0.5796187909129717  1.0000
  C   C277      1.0  0.14430446223313087  0.7469255755180638  0.5682901707891084  1.0000
  C   C278      1.0  0.06542234517474448  0.700355174147996  0.5543300736479052  1.0000
  C   C279      1.0  0.08524133575578227  0.7472467651427318  0.5981665906957121  1.0000
  C   C280      1.0  0.09408877899191219  0.6811345443518395  0.5977136664459577  1.0000
  H   H325      1.0  0.1691939400397921  0.7614006193142032  0.586838100708758  1.0000
  H   H326      1.0  0.147958701318852  0.7758510343366566  0.5545609167279424  1.0000
  H   H327      1.0  0.15447446694432276  0.7266312809064414  0.5541439423485632  1.0000
  H   H328      1.0  0.07291234817094883  0.6780231655268163  0.5401921798258528  1.0000
  H   H329      1.0  0.02954238850907113  0.6792908996953242  0.5620779977665825  1.0000
  H   H330      1.0  0.06716170132727997  0.7278210919662467  0.5399527718206716  1.0000
  H   H331      1.0  0.050153374688077276  0.7270389387585109  0.6074097269497386  1.0000
  H   H332      1.0  0.0868171923975425  0.7759226637151727  0.5852608785287896  1.0000
  H   H333      1.0  0.10872562023864672  0.7619636735357875  0.6174058678034595  1.0000
  H   H334      1.0  0.05902480880544337  0.6592926409299043  0.606530015040751  1.0000
  H   H335      1.0  0.11713262261523766  0.6937611650675622  0.6173028087148109  1.0000
  H   H336      1.0  0.1027453969326571  0.6588565003923944  0.5844949815605877  1.0000
  N   N17       1.0  0.15792293000203814  0.4173599494088554  0.6828907011193566  1.0000
  C   C281      1.0  0.11738160367219819  0.37383654852502995  0.6747016282051284  1.0000
  C   C282      1.0  0.1649042364936394  0.41860662429457746  0.7153665459435881  1.0000
  C   C283      1.0  0.15097797796787757  0.4553247311275548  0.6740867551261007  1.0000
  C   C284      1.0  0.19842748290857315  0.4216545900810507  0.6674298751385821  1.0000
  H   H337      1.0  0.11160900845695568  0.37108700794154703  0.6503099264479378  1.0000
  H   H338      1.0  0.08601052169482841  0.3696727961049545  0.6855352608722697  1.0000
  H   H339      1.0  0.12081665491636828  0.34443231414241915  0.6817946606189748  1.0000
  H   H340      1.0  0.1953755200134203  0.45079189688703386  0.7223624641094878  1.0000
  H   H341      1.0  0.13503572616151066  0.41571763755360097  0.7277361880096076  1.0000
  H   H342      1.0  0.16989442149823128  0.39020413260749925  0.7228554237716629  1.0000
  H   H343      1.0  0.18091828960513845  0.48867821300850667  0.6799391187503686  1.0000
  H   H344      1.0  0.1207561309682279  0.4531269801829263  0.6855556145376234  1.0000
  H   H345      1.0  0.14519242469685106  0.4552293949779872  0.6497667064922916  1.0000
  H   H346      1.0  0.22995010938093405  0.45356415710863346  0.6735524463919295  1.0000
  H   H347      1.0  0.19468836084297975  0.42127904697397156  0.6428672641860335  1.0000
  H   H348      1.0  0.20409141123103844  0.39314462638341474  0.6732950197824142  1.0000
  N   N18       1.0  0.6199984584034948  0.07939855949371755  0.049346900755719125  1.0000
  C   C285      1.0  0.6638684792463585  0.12030820199934329  0.056458917335743104  1.0000
  C   C286      1.0  0.6263063982151595  0.05529751507240746  0.0241049097744237  1.0000
  C   C287      1.0  0.5862231165722305  0.09294507740970807  0.041306806398578096  1.0000
  C   C288      1.0  0.6036024865929177  0.04902453112708807  0.07554286506584959  1.0000
  H   H349      1.0  0.690341493046643  0.11145903020767317  0.062433818402143  1.0000
  H   H350      1.0  0.6605499146159659  0.13927340899141435  0.07550187979378845  1.0000
  H   H351      1.0  0.6772714450374864  0.1442026099069467  0.03724483359272831  1.0000
  H   H352      1.0  0.6383864296242785  0.07703297181348444  0.0038472096720492117  1.0000
  H   H353      1.0  0.6516182072866359  0.044558612236050246  0.029348420551175147  1.0000
  H   H354      1.0  0.5939262493379857  0.02422324314363772  0.018110751943293035  1.0000
  H   H355      1.0  0.5804337529943323  0.11111760808836567  0.05983640323989915  1.0000
  H   H356      1.0  0.5527389153273443  0.06291891272489733  0.035897591461684586  1.0000
  H   H357      1.0  0.59739486891113  0.11562949380344108  0.02146840978827269  1.0000
  H   H358      1.0  0.5707291068601795  0.01765666135098702  0.07086647980383298  1.0000
  H   H359      1.0  0.5979601906018459  0.06588783393496253  0.09495206553345226  1.0000
  H   H360      1.0  0.628503221869205  0.03842508509840153  0.08226273543031824  1.0000
  N   N19       1.0  0.4273536674992164  0.044491128125173675  0.6191749425174704  1.0000
  C   C289      1.0  0.4328429284382063  0.07860764386904942  0.6415472814116812  1.0000
  C   C290      1.0  0.38554367769319636  0.030875616791691384  0.601791756298429  1.0000
  C   C291      1.0  0.4237625071205895  0.004245762589844621  0.6343344286701073  1.0000
  C   C292      1.0  0.46735815020808286  0.06428424630556921  0.5991070699499786  1.0000
  H   H361      1.0  0.46420725833339904  0.08967870823440703  0.6549786216501974  1.0000
  H   H362      1.0  0.4034932521314328  0.06477744936713596  0.657290475202344  1.0000
  H   H363      1.0  0.4354888857429962  0.10941690191384149  0.6309630483556982  1.0000
  H   H364      1.0  0.38049597732305235  0.005365084515048756  0.5845275616274402  1.0000
  H   H365      1.0  0.35471927687342447  0.015454860761045864  0.6162861225006591  1.0000
  H   H366      1.0  0.3869439136785463  0.06036656780583529  0.5900669938671821  1.0000
  H   H367      1.0  0.4161881639043586  0.9764706157163042  0.6184738286211763  1.0000
  H   H368      1.0  0.396270342806029  0.9904936290087436  0.6514607821693578  1.0000
  H   H369      1.0  0.45617871588886916  0.012490425403053963  0.6455480065983894  1.0000
  H   H370      1.0  0.4643517073030474  0.03962224056183556  0.5818608480872031  1.0000
  H   H371      1.0  0.49943950861693504  0.07451347631101139  0.6115600775490547  1.0000
  H   H372      1.0  0.47128036466994583  0.09483449659187108  0.5873686269641152  1.0000
  N   N20       1.0  0.6704705488714735  0.9288508531477413  0.202668394282713  1.0000
  C   C293      1.0  0.6560087995683612  0.8800914391444598  0.20127672222175025  1.0000
  C   C294      1.0  0.6331677972236002  0.9340408875245368  0.21544624254905034  1.0000
  C   C295      1.0  0.6813895193788453  0.9489289929576281  0.17251717334090436  1.0000
  C   C296      1.0  0.7112660520734869  0.9524614978931442  0.22163030786032406  1.0000
  H   H373      1.0  0.6832822126038818  0.8747549678266257  0.19180284440332776  1.0000
  H   H374      1.0  0.6250940256674175  0.8611034804838295  0.18729039482152074  1.0000
  H   H375      1.0  0.6476151160963919  0.8644052511601336  0.22390295523274734  1.0000
  H   H376      1.0  0.6244969687813106  0.9198007152411447  0.23841674965332116  1.0000
  H   H377      1.0  0.642759444781458  0.970460320371545  0.21655766484566086  1.0000
  H   H378      1.0  0.6016274107182924  0.9162770079452729  0.2019384775956391  1.0000
  H   H379      1.0  0.6924415893738608  0.9858280150677696  0.17316179648115804  1.0000
  H   H380      1.0  0.6513321294130922  0.9321599055978477  0.15759118382553744  1.0000
  H   H381      1.0  0.7095512535334059  0.9458578700157887  0.1621655390584928  1.0000
  H   H382      1.0  0.7230982827767145  0.989334558870063  0.22320549148619903  1.0000
  H   H383      1.0  0.7401511225404189  0.9492508621161352  0.21278657934014175  1.0000
  H   H384      1.0  0.7041729114380447  0.9385932270589935  0.24467037802856328  1.0000
  N   N21       1.0  0.8624589728890519  0.5782746425037434  0.21780509676043566  1.0000
  C   C297      1.0  0.8223413076300459  0.5831280981077449  0.21147504683676452  1.0000
  C   C298      1.0  0.8729090394703274  0.5587724791010648  0.19168792634483778  1.0000
  C   C299      1.0  0.852667705190787  0.5480899781661577  0.2437815304766324  1.0000
  C   C300      1.0  0.9020348166406879  0.6232861465013187  0.224388958077359  1.0000
  H   H385      1.0  0.8133366277017726  0.5972662436273473  0.23095203206631587  1.0000
  H   H386      1.0  0.791862625696971  0.5499791450172254  0.20600879356309254  1.0000
  H   H387      1.0  0.8288282156326774  0.6064906896987813  0.19239516713605206  1.0000
  H   H388      1.0  0.8438834479029137  0.5246407712421077  0.18614898972790456  1.0000
  H   H389      1.0  0.880288607809847  0.5807973933695992  0.1717103997899247  1.0000
  H   H390      1.0  0.9032899907751339  0.5550746429035536  0.19574224305101473  1.0000
  H   H391      1.0  0.8822650660397755  0.5436943337477999  0.24928012435024263  1.0000
  H   H392      1.0  0.8227577396719801  0.5138625551938917  0.2399050186664391  1.0000
  H   H393      1.0  0.8453769786687338  0.5623186638802966  0.2639987548202091  1.0000
  H   H394      1.0  0.9326593482332852  0.6209480940842006  0.23034825242874407  1.0000
  H   H395      1.0  0.8947648303900965  0.6394144413149013  0.24343397153038895  1.0000
  H   H396      1.0  0.9111042871878464  0.6470212991890257  0.2051996061498846  1.0000
  N   N22       1.0  0.4021710876344507  0.22628160864443483  0.13868920023547224  1.0000
  C   C301      1.0  0.36024171306264124  0.2036254308950529  0.12067934568617014  1.0000
  C   C302      1.0  0.3971188854481145  0.19827398846598476  0.16513771985974038  1.0000
  C   C303      1.0  0.41003695790199235  0.27116751201438205  0.1482466600693562  1.0000
  C   C304      1.0  0.44120504910735364  0.2320223731182988  0.12064317021073966  1.0000
  H   H397      1.0  0.3524434883339713  0.16905546813199063  0.11384074420133226  1.0000
  H   H398      1.0  0.3635400648792382  0.22293999161040712  0.0999309978602491  1.0000
  H   H399      1.0  0.330327424050196  0.2000771659538764  0.13315277428468325  1.0000
  H   H400      1.0  0.4288315718338809  0.2132067770909118  0.17853375203203137  1.0000
  H   H401      1.0  0.36940059138150455  0.19508993334639976  0.18001629238641098  1.0000
  H   H402      1.0  0.3886633608797586  0.16323845657688463  0.1588181982103688  1.0000
  H   H403      1.0  0.41379887035175167  0.2930737072483166  0.12879525877009373  1.0000
  H   H404      1.0  0.4414015821055312  0.28930196300069205  0.1619061265585112  1.0000
  H   H405      1.0  0.38103838853904815  0.26780089874772256  0.16197007368250946  1.0000
  H   H406      1.0  0.4454882287526711  0.25223184755148537  0.10015373718578996  1.0000
  H   H407      1.0  0.4361560512374831  0.19861928204175255  0.11318682016338934  1.0000
  H   H408      1.0  0.4736068454335393  0.24932345072610942  0.13330437496193556  1.0000
  N   N23       1.0  0.3107110539050838  0.9139136136147652  0.821627212927636  1.0000
  C   C305      1.0  0.3492582547572361  0.9466609524962707  0.8029583854810356  1.0000
  C   C306      1.0  0.2945914170003768  0.9385105714418427  0.8406244558498543  1.0000
  C   C307      1.0  0.32568305608632053  0.8882878750810791  0.8405082141455775  1.0000
  C   C308      1.0  0.27312882243024555  0.8819940020358963  0.8023482565816275  1.0000
  H   H409      1.0  0.37839930896286983  0.9713931360010141  0.8166354679148453  1.0000
  H   H410      1.0  0.33910502174342533  0.9664095763416141  0.7882503263199786  1.0000
  H   H411      1.0  0.3617885968824532  0.9291343644266631  0.7880065658774105  1.0000
  H   H412      1.0  0.2647911264627412  0.9147274507515257  0.8544994941024572  1.0000
  H   H413      1.0  0.3218131963124218  0.9627309855719818  0.8557120980356553  1.0000
  H   H414      1.0  0.28315391618247837  0.9583468330629156  0.8270752971173072  1.0000
  H   H415      1.0  0.2973023180597734  0.863223133099532  0.8547999912491104  1.0000
  H   H416      1.0  0.3541314374235015  0.9113285048248577  0.8553350928735478  1.0000
  H   H417      1.0  0.33783504223221855  0.8692232128237488  0.8267602641547586  1.0000
  H   H418      1.0  0.24320126364184233  0.8568828868710636  0.8155364552440476  1.0000
  H   H419      1.0  0.2840044811636978  0.863161265309807  0.787310071394268  1.0000
  H   H420      1.0  0.26133625468322397  0.9004354033989029  0.7878999637652117  1.0000
  N   N24       1.0  0.9282348744946434  0.38454769748056256  0.5971635536449178  1.0000
  C   C309      1.0  0.9243445037457575  0.36576464951557713  0.5669983908728827  1.0000
  C   C310      1.0  0.8848941824616376  0.35705061759151185  0.6134367897704819  1.0000
  C   C311      1.0  0.9381255627745254  0.4319785933785665  0.5949171947251043  1.0000
  C   C312      1.0  0.9655435727184759  0.38343261207645724  0.6133600651415012  1.0000
  H   H421      1.0  0.9559001955095325  0.38636088836689314  0.5536265277841339  1.0000
  H   H422      1.0  0.8958131969355176  0.36515966991503734  0.5544441781199598  1.0000
  H   H423      1.0  0.9178904294189977  0.3303417443214469  0.5677814708195285  1.0000
  H   H424      1.0  0.8559207906685203  0.3571388300782349  0.6019292840334172  1.0000
  H   H425      1.0  0.8764964963626443  0.3211274737884158  0.6158850331000418  1.0000
  H   H426      1.0  0.8864377768978735  0.3705554885479761  0.6361518231638691  1.0000
  H   H427      1.0  0.9445942207098287  0.44830308443746214  0.6171124064900861  1.0000
  H   H428      1.0  0.9090325110811146  0.43382202695281263  0.5850915799881157  1.0000
  H   H429      1.0  0.9688011533955402  0.45311297836842185  0.5809706308551181  1.0000
  H   H430      1.0  0.9591593159209979  0.3481457332266345  0.6156638707189888  1.0000
  H   H431      1.0  0.9692144539432256  0.3973371967960506  0.6362399535415397  1.0000
  H   H432      1.0  0.9987501677010155  0.40399368189451756  0.6017456324264842  1.0000
  N   N25       1.0  0.07394767543829914  0.43660073984498915  0.02979773710194977  1.0000
  C   C313      1.0  0.07787627159112352  0.46117248016132967  0.057696778390051565  1.0000
  C   C314      1.0  0.07085241508448731  0.46248896715462207  0.004384988910126397  1.0000
  C   C315      1.0  0.03251130538506825  0.39133945296681033  0.03105165437523878  1.0000
  C   C316      1.0  0.1144179178625581  0.4313351731416695  0.026129484964883206  1.0000
  H   H433      1.0  0.10891084978058922  0.4954036534087571  0.05771456864025527  1.0000
  H   H434      1.0  0.0794621311708306  0.44218339329240175  0.07740063648254297  1.0000
  H   H435      1.0  0.047955847311195496  0.4659274317970966  0.06104595870283272  1.0000
  H   H436      1.0  0.06715730231958462  0.44458948602697074  0.9830018921387694  1.0000
  H   H437      1.0  0.0410146172118821  0.4675560539268125  0.0066976473599871245  1.0000
  H   H438      1.0  0.10165809827524402  0.49678006570069805  0.002646667282827808  1.0000
  H   H439      1.0  0.027952695810232516  0.3717067727137336  0.010321022397335122  1.0000
  H   H440      1.0  0.001413214439362128  0.3940379285486678  0.034344103423605124  1.0000
  H   H441      1.0  0.033984579145542336  0.37078765384746926  0.049775377952975014  1.0000
  H   H442      1.0  0.11157898915365927  0.4109122749104615  0.00608408701955776  1.0000
  H   H443      1.0  0.11889284813082807  0.41376206500254037  0.045579126569979714  1.0000
  H   H444      1.0  0.14623873874787005  0.46474066223427196  0.023879199760388433  1.0000
  N   N26       1.0  0.4101964188395155  0.00225787263150945  0.30899744871941387  1.0000
  C   C317      1.0  0.4553680534432267  0.006042204444363939  0.3056320795162373  1.0000
  C   C318      1.0  0.3989378262483896  0.0004956807445355428  0.340869992599439  1.0000
  C   C319      1.0  0.3752960443162141  0.9602870115561819  0.2944454847041341  1.0000
  C   C320      1.0  0.41099794543811685  0.04209481109504463  0.2951782853080342  1.0000
  H   H445      1.0  0.4560034012695942  0.9766340722063657  0.3160292449485017  1.0000
  H   H446      1.0  0.4826306859762747  0.037312787472696896  0.3163889990466689  1.0000
  H   H447      1.0  0.46499434180589194  0.007289585384246911  0.2818581496268695  1.0000
  H   H448      1.0  0.365575501128014  0.9987794465762209  0.34416196508499514  1.0000
  H   H449      1.0  0.3966766259799415  0.970128458389935  0.35190723189529527  1.0000
  H   H450      1.0  0.4248915069047528  0.031107671684372413  0.35291886566598274  1.0000
  H   H451      1.0  0.37391002685327823  0.9296551150313925  0.30452870956968686  1.0000
  H   H452      1.0  0.38248297407363824  0.9603334118284274  0.270293967433117  1.0000
  H   H453      1.0  0.34072152792549937  0.956194188820558  0.2967719186184221  1.0000
  H   H454      1.0  0.37745316997450507  0.040396186637113425  0.2975277032024443  1.0000
  H   H455      1.0  0.41923665164398444  0.04455103076140748  0.2710451324179255  1.0000
  H   H456      1.0  0.43691174762505675  0.07421229528814625  0.30586897150155085  1.0000
  N   N27       1.0  0.23786664694130955  0.23509458556527477  0.8775602145507494  1.0000
  C   C321      1.0  0.21797472299865217  0.1984416634819127  0.8552599125138717  1.0000
  C   C322      1.0  0.20127788207354305  0.24080543811439895  0.8910646751179823  1.0000
  C   C323      1.0  0.271398872280729  0.2779542383701993  0.8629166778037309  1.0000
  C   C324      1.0  0.26070849769833426  0.22322925036388455  0.9009666378866006  1.0000
  H   H457      1.0  0.24460219779831302  0.19306505826361578  0.8446426930170413  1.0000
  H   H458      1.0  0.20064535143029555  0.20657431897305617  0.8372665444011061  1.0000
  H   H459      1.0  0.19228824009412437  0.16566137409391946  0.8655059105653886  1.0000
  H   H460      1.0  0.21532911787902514  0.26908384449053363  0.9073518634590089  1.0000
  H   H461      1.0  0.18283065753553215  0.24912971390390395  0.8739831097781404  1.0000
  H   H462      1.0  0.17584248961883073  0.20960990680212907  0.9029556832696168  1.0000
  H   H463      1.0  0.2881361142903526  0.3060967108096194  0.8792243175652258  1.0000
  H   H464      1.0  0.2548997826529161  0.28916114793088543  0.8461389702935546  1.0000
  H   H465      1.0  0.29876478875926493  0.2746622617706321  0.8515510958496318  1.0000
  H   H466      1.0  0.27575508609474486  0.2500292070186809  0.9182828518328554  1.0000
  H   H467      1.0  0.2887848200243464  0.21896540705335274  0.8916923614996248  1.0000
  H   H468      1.0  0.2364557432897781  0.19117089656477948  0.9126339256056553  1.0000
  N   N28       1.0  0.6928566573686561  0.551232407744672  0.731455067020336  1.0000
  C   C325      1.0  0.6890128906785924  0.5916399342491452  0.7383602361821765  1.0000
  C   C326      1.0  0.7398699243120153  0.5612303100422456  0.7373161314428481  1.0000
  C   C327      1.0  0.6819499049936507  0.5391898170418713  0.6998245730704191  1.0000
  C   C328      1.0  0.6605482604299485  0.5128739448871737  0.75031983862297  1.0000
  H   H469      1.0  0.6990380163622145  0.6028865347654859  0.7617050506251648  1.0000
  H   H470      1.0  0.6535512117840062  0.5848817543372169  0.735434667100815  1.0000
  H   H471      1.0  0.7116027465684289  0.6208658345998032  0.7238379253226023  1.0000
  H   H472      1.0  0.7438348966120579  0.5311808727622064  0.7330620916570321  1.0000
  H   H473      1.0  0.764783304172562  0.589054534537626  0.7227217471344237  1.0000
  H   H474      1.0  0.7500960042136539  0.5722048309327593  0.7606763579158815  1.0000
  H   H475      1.0  0.6859349504659108  0.5097083067796505  0.6936235417206066  1.0000
  H   H476      1.0  0.7047781845372922  0.5679350122149723  0.6849598920797132  1.0000
  H   H477      1.0  0.6462762135713229  0.5299883195134801  0.6948374105456766  1.0000
  H   H478      1.0  0.624745759548525  0.5046808274591891  0.7464242667873834  1.0000
  H   H479      1.0  0.6678519435362368  0.5208926766235065  0.7743431184580502  1.0000
  H   H480      1.0  0.6622462631493045  0.48164069696295436  0.7456500870951739  1.0000
  N   N29       1.0  0.8879584609950284  0.17263684596534354  0.9698599440833124  1.0000
  C   C329      1.0  0.9301342475101742  0.1905158693128078  0.951938372268554  1.0000
  C   C330      1.0  0.8489534552817382  0.1382070547508977  0.9525752059485004  1.0000
  C   C331      1.0  0.8799248483567866  0.21025131521344476  0.9776400744260139  1.0000
  C   C332      1.0  0.8928072664221217  0.15158960637476404  0.9973447783095432  1.0000
  H   H481      1.0  0.9373171637545444  0.16310753519961824  0.9456129042445377  1.0000
  H   H482      1.0  0.9602175490833885  0.21654570693528286  0.9644588711226582  1.0000
  H   H483      1.0  0.9278156630172432  0.20687594433407225  0.9310675557598188  1.0000
  H   H484      1.0  0.8535686082330434  0.10903549626522402  0.9465554604883243  1.0000
  H   H485      1.0  0.816672404351002  0.12422905754428415  0.9655132879510033  1.0000
  H   H486      1.0  0.8442362337136105  0.15277848463142138  0.9316256509945376  1.0000
  H   H487      1.0  0.8488841936256577  0.19830092666914653  0.991634482339514  1.0000
  H   H488      1.0  0.875449061491783  0.2265754771584635  0.957487029843412  1.0000
  H   H489      1.0  0.9089550717929529  0.23703903302054738  0.9903905199609355  1.0000
  H   H490      1.0  0.8618761329893242  0.13832901858092986  0.011555038794098138  1.0000
  H   H491      1.0  0.9220320802210014  0.1764610849940562  0.010920459785120684  1.0000
  H   H492      1.0  0.8983905753406767  0.12273140292822683  0.9923561848152427  1.0000
  N   N30       1.0  0.9974836465869319  0.5712094341846216  0.8771819241926859  1.0000
  C   C333      1.0  0.9580808712079054  0.5411623177756815  0.8962029088879884  1.0000
  C   C334      1.0  0.003872415879442981  0.5439549832561181  0.8541515570912483  1.0000
  C   C335      1.0  0.03888987480886419  0.5943120967561257  0.8956318259883461  1.0000
  C   C336      1.0  0.98921463466682  0.605540116914477  0.8628353309615829  1.0000
  H   H493      1.0  0.9261446552633325  0.5229192751481713  0.8831162465945189  1.0000
  H   H494      1.0  0.9523974043934808  0.560700243870684  0.9138864814840053  1.0000
  H   H495      1.0  0.9635254361613336  0.5153203976972873  0.9078098151258587  1.0000
  H   H496      1.0  0.033444705191088886  0.565664290551448  0.8394770714775014  1.0000
  H   H497      1.0  0.01023469688411649  0.5177616045061004  0.8642885348439263  1.0000
  H   H498      1.0  0.9732733958282449  0.5260379002773854  0.8397561160828245  1.0000
  H   H499      1.0  0.06933173871153353  0.6179220292419276  0.8822277427434448  1.0000
  H   H500      1.0  0.04614134083952681  0.5696000205591869  0.9071035193298025  1.0000
  H   H501      1.0  0.0348971563596312  0.6148670445113718  0.9132175866103037  1.0000
  H   H502      1.0  0.018633634160375223  0.6292524005539308  0.8486719493459748  1.0000
  H   H503      1.0  0.9844390263601588  0.6268124024031373  0.8796509097853763  1.0000
  H   H504      1.0  0.9583140598922023  0.5895093790837119  0.8486343661943145  1.0000
  N   N31       1.0  0.7565456547532714  0.0072142180931463965  0.6711397603136606  1.0000
  C   C337      1.0  0.7633877201713396  0.9729258108096305  0.6868868556923328  1.0000
  C   C338      1.0  0.742092747209315  0.9923632704588947  0.640255881763196  1.0000
  C   C339      1.0  0.7996169065101967  0.05123442212816075  0.670815374650328  1.0000
  C   C340      1.0  0.7209272212683789  0.012442811152221423  0.6865422309737058  1.0000
  H   H505      1.0  0.7313253359025647  0.9394660963470292  0.6878919650917867  1.0000
  H   H506      1.0  0.7749065580071839  0.9834676735270876  0.7101341344264359  1.0000
  H   H507      1.0  0.7894761406236879  0.9674322734012694  0.6755891787439752  1.0000
  H   H508      1.0  0.7681775711499501  0.9881801461566966  0.6278493338057415  1.0000
  H   H509      1.0  0.7096262300715259  0.9593314683216141  0.6396300259813922  1.0000
  H   H510      1.0  0.7364039961351467  0.017532864984046322  0.6278776244877783  1.0000
  H   H511      1.0  0.8105558252616563  0.06489428129364841  0.6936705672467253  1.0000
  H   H512      1.0  0.7959627317912829  0.07724530446050042  0.6579955804583223  1.0000
  H   H513      1.0  0.827819852353425  0.04832216479995082  0.6603868999540939  1.0000
  H   H514      1.0  0.7140740195204396  0.037095098235666105  0.6746897828870362  1.0000
  H   H515      1.0  0.7311396271414944  0.02495766660905359  0.7096271984585085  1.0000
  H   H516      1.0  0.6881577405922534  0.979828733245741  0.6876671431606891  1.0000
  N   N32       1.0  0.558087539448903  0.6906155906645209  0.657242222438719  1.0000
  C   C341      1.0  0.5632432894307131  0.7276436056419108  0.6769043008659971  1.0000
  C   C342      1.0  0.5180014476824089  0.676244203527274  0.6379427427127237  1.0000
  C   C343      1.0  0.5517929247978172  0.6517599960292956  0.6755191580460421  1.0000
  C   C344      1.0  0.5994375770322585  0.7068108636922706  0.63867290525384  1.0000
  H   H517      1.0  0.5687514819541091  0.7579168906911506  0.663959243058505  1.0000
  H   H518      1.0  0.5931270699728727  0.7391223382350289  0.6917722206880434  1.0000
  H   H519      1.0  0.5327951638125356  0.7167231184778268  0.6913483885732253  1.0000
  H   H520      1.0  0.5130432295510409  0.6482075633666737  0.6228743633564109  1.0000
  H   H521      1.0  0.4862462839118893  0.6637960778308474  0.6513146637531299  1.0000
  H   H522      1.0  0.5217675641893983  0.7048332272634029  0.6238121211420115  1.0000
  H   H523      1.0  0.5474090944636996  0.6228677194761153  0.6615731466176975  1.0000
  H   H524      1.0  0.5214560694910074  0.6388926413095598  0.6903641841027863  1.0000
  H   H525      1.0  0.5817078733408326  0.6615043552534826  0.6900951810988876  1.0000
  H   H526      1.0  0.5962671327617738  0.6802651506409703  0.6228877888354691  1.0000
  H   H527      1.0  0.6300607238281724  0.7164149619254845  0.6525558954387719  1.0000
  H   H528      1.0  0.6066351500241862  0.7375174786802644  0.6255836053102454  1.0000
  N   N33       1.0  0.9936545352365603  0.2260311244229583  0.357048153320691  1.0000
  C   C345      1.0  0.9746831804658344  0.20726830737619883  0.3867123986716037  1.0000
  C   C346      1.0  0.03570801726632569  0.22394800989823513  0.35220777625226346  1.0000
  C   C347      1.0  0.0043013608435775695  0.27374073138996674  0.35545202385167224  1.0000
  C   C348      1.0  0.9600371842127746  0.19926265809196173  0.33389563410309514  1.0000
  H   H529      1.0  0.9995395600425497  0.22644055406554017  0.4046287427546135  1.0000
  H   H530      1.0  0.9652568989885767  0.17098851898977796  0.38860255240231373  1.0000
  H   H531      1.0  0.9434850199803091  0.20919518100669954  0.39136753337307173  1.0000
  H   H532      1.0  0.05112057137130954  0.23782604113850317  0.3300210469460433  1.0000
  H   H533      1.0  0.06189202124546923  0.24402902869946225  0.36919915827384736  1.0000
  H   H534      1.0  0.029066630182723173  0.18848903414810084  0.35337691145844913  1.0000
  H   H535      1.0  0.027950371401439408  0.2944597768543124  0.3734822098095072  1.0000
  H   H536      1.0  0.9731809476359403  0.2765085322717555  0.3579435621071821  1.0000
  H   H537      1.0  0.02028787252952069  0.28972729960617366  0.33382211987505533  1.0000
  H   H538      1.0  0.9504882282272721  0.16286772902655156  0.3347691142160806  1.0000
  H   H539      1.0  0.9734963383117605  0.2123759426646078  0.31124966703274576  1.0000
  H   H540      1.0  0.9280914183704191  0.20050757005885503  0.3366526654526275  1.0000
  N   N34       1.0  0.5989516383329355  0.4730383962206499  0.017985643993014166  1.0000
  C   C349      1.0  0.6232274024910363  0.4665884432637716  0.04308132334939763  1.0000
  C   C350      1.0  0.5492086661726082  0.4444804600687844  0.02254016989823926  1.0000
  C   C351      1.0  0.6123382861157497  0.46040116773233486  0.9898992667317696  1.0000
  C   C352      1.0  0.61124363626872  0.5211509426723384  0.01651517465826391  1.0000
  H   H541      1.0  0.613533546178649  0.47562748482684974  0.06460859976608413  1.0000
  H   H542      1.0  0.6608862409464289  0.4886196180615733  0.04065534628516354  1.0000
  H   H543      1.0  0.6154422466866378  0.43080842520616813  0.04473935883785862  1.0000
  H   H544      1.0  0.5297569610351208  0.4499097358102552  0.004615638821405144  1.0000
  H   H545      1.0  0.5383039474989165  0.4077640022654564  0.02299006467823994  1.0000
  H   H546      1.0  0.5383698733257811  0.4526602108689464  0.0439480605761049  1.0000
  H   H547      1.0  0.6037998960305656  0.4242953821709492  0.9902104361493059  1.0000
  H   H548      1.0  0.6497252856535382  0.48175570511630134  0.9858863427875131  1.0000
  H   H549      1.0  0.5946170258648702  0.46506285806711195  0.970564180552364  1.0000
  H   H550      1.0  0.5934048522474605  0.5275350549383153  0.9980281048764944  1.0000
  H   H551      1.0  0.6485457395697495  0.543839923531065  0.013068327069921226  1.0000
  H   H552      1.0  0.6018116025428784  0.5316291945819355  0.03751116737440685  1.0000
  N   N35       1.0  0.033020083088634467  0.8060065388757711  0.7691542375433686  1.0000
  C   C353      1.0  0.06928534923691876  0.8537896060209493  0.7728274415183779  1.0000
  C   C354      1.0  0.05357182580796138  0.7783318127642181  0.7603659055759984  1.0000
  C   C355      1.0  0.0011579225270004212  0.8033204880641306  0.7457929274818816  1.0000
  C   C356      1.0  0.008206185174731262  0.788693618406299  0.7975615265857612  1.0000
  H   H553      1.0  0.055071517618001  0.8758376020639804  0.7791493516043204  1.0000
  H   H554      1.0  0.08880594848036272  0.8677079402577074  0.7518229727192826  1.0000
  H   H555      1.0  0.09398946040972578  0.8574379581375257  0.7903307641223476  1.0000
  H   H556      1.0  0.07415995987527046  0.7916928706125247  0.7397416657297622  1.0000
  H   H557      1.0  0.07660234709396385  0.7782440282186458  0.7778504121673112  1.0000
  H   H558      1.0  0.027139239430631346  0.7424573218692242  0.7560041804381984  1.0000
  H   H559      1.0  0.9844953302977292  0.8233060547365039  0.7517905429149083  1.0000
  H   H560      1.0  0.9737597937486213  0.7676792608810916  0.7418344109478194  1.0000
  H   H561      1.0  0.01919324041774706  0.8170489554162484  0.724245834795222  1.0000
  H   H562      1.0  0.992230180476862  0.8087999633707113  0.8048463710970043  1.0000
  H   H563      1.0  0.031482168561668855  0.790509228517703  0.8156566212523453  1.0000
  H   H564      1.0  0.9806189661676845  0.7526705936009197  0.7955889187315147  1.0000
  N   N36       1.0  0.8977916704529181  0.3146484706914288  0.23460603922935616  1.0000
  C   C357      1.0  0.9180065790696622  0.345232071365586  0.20872992836229895  1.0000
  C   C358      1.0  0.9252073733664636  0.29302277595778625  0.2414665012693491  1.0000
  C   C359      1.0  0.8505761217692415  0.2793354774736314  0.22754779284299975  1.0000
  C   C360      1.0  0.897401600065798  0.3409586434350622  0.2606086668682696  1.0000
  H   H565      1.0  0.8978905868272388  0.3616577507592957  0.20251596416121653  1.0000
  H   H566      1.0  0.9191901999338797  0.3262955058670717  0.188839934039264  1.0000
  H   H567      1.0  0.9535147781408833  0.3725469736473789  0.21333965413934247  1.0000
  H   H568      1.0  0.9108347846082393  0.26932474855271304  0.2606659208387512  1.0000
  H   H569      1.0  0.9266036504785795  0.27331858793456315  0.22216028822495365  1.0000
  H   H570      1.0  0.960890040398701  0.3187110529795382  0.24717777492916962  1.0000
  H   H571      1.0  0.8493521230624735  0.26046783825456793  0.20710483317102713  1.0000
  H   H572      1.0  0.828420313903901  0.2942803929323396  0.22362811875887326  1.0000
  H   H573      1.0  0.8350085560453911  0.25397904551402517  0.24584514711413452  1.0000
  H   H574      1.0  0.8789635636990043  0.3596007696630989  0.25582936336956674  1.0000
  H   H575      1.0  0.9325329415392575  0.36622046183462814  0.26779492985323655  1.0000
  H   H576      1.0  0.880219532637185  0.31844951093019347  0.2800350918462864  1.0000
