data_image0
_chemical_formula_structural       FeS2FeS2FeSFeS3FeS2FeS2FeSFeS3FeS2FeS2FeSFeS3FeS2FeS2FeSFeS3FeS2FeS2FeSFeS3FeS2FeS2FeSFeS3FeS2FeS2FeSFeS3FeS2FeS2FeSFeS3FeS2FeS2FeSFeS3FeS2FeS2FeSFeS3FeS2FeS2FeSFeS3FeS2FeS2FeSFeS3C6H4C6H4C6H4C6H4C6H4C6H4C6H4C6H4C6H4C6H4C6H4C6H4C6H4C6H4C6H4C6H4C6H4C6H4C6H4C6H4C6H4C6H4C6H4C6H4NC4H12NC4H12NC4H12NC4H12NC4H12NC4H12NC4H12NC4H12NC4H12NC4H12NC4H12NC4H12NC4H12NC4H12NC4H12NC4H12NC4H12NC4H12NC4H12NC4H12NC4H12NC4H12NC4H12NC4H12
_chemical_formula_sum              "Fe48 S96 C240 H384 N24"
_cell_length_a       34.128224134600714
_cell_length_b       34.50206320403868
_cell_length_c       30.729541146462612
_cell_angle_alpha    89.20825675229025
_cell_angle_beta     90.54823212493301
_cell_angle_gamma    120.42514259208663

_space_group_name_H-M_alt    "P 1"
_space_group_IT_number       1

loop_
  _space_group_symop_operation_xyz
  'x, y, z'

loop_
  _atom_site_type_symbol
  _atom_site_label
  _atom_site_symmetry_multiplicity
  _atom_site_fract_x
  _atom_site_fract_y
  _atom_site_fract_z
  _atom_site_occupancy
  Fe  Fe1       1.0  0.3245853879148528  0.037881132669476  0.5882040658777459  1.0000
  S   S1        1.0  0.3825383123121126  0.07407207458852719  0.541161148248914  1.0000
  S   S2        1.0  0.25616824835886437  0.9833292512677374  0.563172048896316  1.0000
  Fe  Fe2       1.0  0.37721978651047217  0.10029447999008445  0.6634365119075213  1.0000
  S   S3        1.0  0.4381293342108353  0.14080956666155375  0.6215078118385721  1.0000
  S   S4        1.0  0.38684987333595106  0.11776964440125423  0.7352488704382231  1.0000
  Fe  Fe3       1.0  0.38951885159863253  0.13680480666276018  0.570038410973878  1.0000
  S   S5        1.0  0.41221999678104015  0.19976954027205998  0.5291699808459762  1.0000
  Fe  Fe4       1.0  0.4261081762061325  0.07473433808179489  0.5966742119606001  1.0000
  S   S6        1.0  0.49035097204388695  0.07049712660475492  0.5942882553309344  1.0000
  S   S7        1.0  0.3287981013702025  0.10104100503376047  0.6138361730429531  1.0000
  S   S8        1.0  0.36777463755991563  0.03378981133472931  0.6419678651431769  1.0000
  Fe  Fe5       1.0  0.6693394754553309  0.9543351005383016  0.4996945337171036  1.0000
  S   S9        1.0  0.6085648030796658  0.9105750595723312  0.541453314468742  1.0000
  S   S10       1.0  0.738079475276976  0.009309049231586517  0.5225904630116741  1.0000
  Fe  Fe6       1.0  0.626405766446311  0.9006896490200299  0.4176677198669163  1.0000
  S   S11       1.0  0.5615562431539053  0.8525643425935758  0.4520169791207302  1.0000
  S   S12       1.0  0.6471116059268834  0.9030729602681427  0.347260738600949  1.0000
  Fe  Fe7       1.0  0.5681093019100133  0.9139774887814023  0.48462986578849626  1.0000
  S   S13       1.0  0.5053292336821197  0.9210182683652272  0.48833235286748355  1.0000
  Fe  Fe8       1.0  0.6068252693780672  0.8528260545292032  0.5060332484644855  1.0000
  S   S14       1.0  0.5927733893849273  0.7888158774580447  0.5416280153437573  1.0000
  S   S15       1.0  0.6293743939396441  0.9621139893239303  0.44553141449733175  1.0000
  S   S16       1.0  0.6708662943907321  0.8964935849327695  0.46920857744958566  1.0000
  Fe  Fe9       1.0  0.5951462901683383  0.7430623082896609  0.09368317462822169  1.0000
  S   S17       1.0  0.6549653216779506  0.7697986612124125  0.1388015838903774  1.0000
  S   S18       1.0  0.5743193268202599  0.7877197742794694  0.05790136390347113  1.0000
  Fe  Fe10      1.0  0.567541666993142  0.6446292441949609  0.11149691285218431  1.0000
  S   S19       1.0  0.6258892371415088  0.6645362733426877  0.1580246759871415  1.0000
  S   S20       1.0  0.5154831743311717  0.5700250903788909  0.10661130566920395  1.0000
  Fe  Fe11      1.0  0.6083435101184683  0.714458897147226  0.1843755176658419  1.0000
  S   S21       1.0  0.5977851019372087  0.7194251280141519  0.2565422456360823  1.0000
  Fe  Fe12      1.0  0.6668147288621945  0.7177082490082617  0.1081212115289588  1.0000
  S   S22       1.0  0.7376265076855503  0.740632865335342  0.08425077629103954  1.0000
  S   S23       1.0  0.5471539918805597  0.6909965757694169  0.1413006276056311  1.0000
  S   S24       1.0  0.6099071335923075  0.6946169313410444  0.05947881993223449  1.0000
  Fe  Fe13      1.0  0.3295168203114109  0.2982758787551312  0.9663165702348634  1.0000
  S   S25       1.0  0.3955513280403531  0.32682213520370335  0.0031329843879099872  1.0000
  S   S26       1.0  0.26503592826528527  0.2793791715092952  0.0034177570806945834  1.0000
  Fe  Fe14      1.0  0.37198685670301546  0.29258430199150154  0.8805683896560915  1.0000
  S   S27       1.0  0.4411077455048478  0.3213825061440992  0.9108726933826077  1.0000
  S   S28       1.0  0.35682891132300326  0.2720779978131169  0.8093466004396385  1.0000
  Fe  Fe15      1.0  0.4042958187999651  0.2752572012502759  0.9673726771601862  1.0000
  S   S29       1.0  0.43123814636127955  0.23295950194152112  0.9971334371758751  1.0000
  Fe  Fe16      1.0  0.42609789872868126  0.37043582154588806  0.9437799202704447  1.0000
  S   S30       1.0  0.47774212709202274  0.44553056038818645  0.9426570902198249  1.0000
  S   S31       1.0  0.33608714025141956  0.24327939293064568  0.9349130230462074  1.0000
  S   S32       1.0  0.3591697053054503  0.3451981501146645  0.9090065301444196  1.0000
  Fe  Fe17      1.0  0.7153693175243457  0.6484146064201894  0.5600346900108404  1.0000
  S   S33       1.0  0.702979462149938  0.5848223130578496  0.5280484693989898  1.0000
  S   S34       1.0  0.7221622485689092  0.7076776059051859  0.5208678163373613  1.0000
  Fe  Fe18      1.0  0.7228357650142996  0.6160934399670618  0.650702833303389  1.0000
  S   S35       1.0  0.7094688821472487  0.5495331086256118  0.6264314732063023  1.0000
  S   S36       1.0  0.7335024821623312  0.6371561957122096  0.7214796548940777  1.0000
  Fe  Fe19      1.0  0.7581101059351473  0.5897266003120498  0.5726128957842059  1.0000
  S   S37       1.0  0.812128496202204  0.5722076994678708  0.5562042918190538  1.0000
  Fe  Fe20      1.0  0.6554615760662649  0.5501036539272983  0.5841188346340085  1.0000
  S   S38       1.0  0.5865148497126037  0.4867726492437109  0.576144544715844  1.0000
  S   S39       1.0  0.7748584053764116  0.6564325137642854  0.5997113017394436  1.0000
  S   S40       1.0  0.6644353012573004  0.613439319976619  0.6131820785260953  1.0000
  Fe  Fe21      1.0  0.2928569584454889  0.3427310132935249  0.4893708691937892  1.0000
  S   S41       1.0  0.31157411895598647  0.4027481503915607  0.530956919478517  1.0000
  S   S42       1.0  0.27820788143040587  0.27669700725930607  0.5201135065779364  1.0000
  Fe  Fe22      1.0  0.28463546551647334  0.3884868431853233  0.4066383772150678  1.0000
  S   S43       1.0  0.30356256449936486  0.4521417083249265  0.4417015659646384  1.0000
  S   S44       1.0  0.26978149476025176  0.3780040633687552  0.3341818071632422  1.0000
  Fe  Fe23      1.0  0.35709911981102754  0.4424242207125938  0.47522196628897195  1.0000
  S   S45       1.0  0.42763812275387064  0.5031470183558648  0.4842834397385928  1.0000
  Fe  Fe24      1.0  0.25648252500009244  0.40682684268105335  0.494132269179596  1.0000
  S   S46       1.0  0.208402886237839  0.42540153582814305  0.5254539324008406  1.0000
  S   S47       1.0  0.34203030900628323  0.3818864973978851  0.4358476914657941  1.0000
  S   S48       1.0  0.23397808599434303  0.34367060141537614  0.45667178975453065  1.0000
  Fe  Fe25      1.0  0.9505126552466806  0.6816052150302712  0.978576926548134  1.0000
  S   S49       1.0  0.9119563208111945  0.6242613654022962  0.026011638908929546  1.0000
  S   S50       1.0  0.004132906842668169  0.7511569200927642  0.0004994957214854434  1.0000
  Fe  Fe26      1.0  0.8943572804482367  0.6279972268961976  0.9002172089382185  1.0000
  S   S51       1.0  0.8518307510213684  0.5675867719929248  0.9419482405789046  1.0000
  S   S52       1.0  0.8860720596767724  0.6204101120005777  0.8267585152561461  1.0000
  Fe  Fe27      1.0  0.850344345037896  0.6153060828461249  0.9896657843871043  1.0000
  S   S53       1.0  0.7822288680883218  0.5929493209448494  0.02106250432979251  1.0000
  Fe  Fe28      1.0  0.9170429382618226  0.5815707683241226  0.9740959257646913  1.0000
  S   S54       1.0  0.9241080037344613  0.5194200299371756  0.9782038785531044  1.0000
  S   S55       1.0  0.8881647970212471  0.6752323240609945  0.9453888612139697  1.0000
  S   S56       1.0  0.9602699853215233  0.6397174859729348  0.9293991884345222  1.0000
  Fe  Fe29      1.0  0.14105520494662058  0.40415594277534583  0.07563584795260526  1.0000
  S   S57       1.0  0.10629636565000952  0.34576670634605144  0.12208156295947697  1.0000
  S   S58       1.0  0.20159781684176178  0.42072147490431716  0.03303777503939177  1.0000
  Fe  Fe30      1.0  0.07698183073274471  0.4393549906130272  0.09695684694837353  1.0000
  S   S59       1.0  0.03668828797784583  0.3825769464051059  0.14409045068512466  1.0000
  S   S60       1.0  0.06966356774355519  0.5012093447574533  0.09408437422038746  1.0000
  Fe  Fe31      1.0  0.10459609174406491  0.3949879359172134  0.16824026747399498  1.0000
  S   S61       1.0  0.11684258355866926  0.4042342634942221  0.24132060100548178  1.0000
  Fe  Fe32      1.0  0.04167536553227851  0.3386547594071235  0.09378858908908251  1.0000
  S   S62       1.0  0.989070065172522  0.2672533798302872  0.07541003117133732  1.0000
  S   S63       1.0  0.14459014152918903  0.45402343195186534  0.12383689154301195  1.0000
  S   S64       1.0  0.07684628413285778  0.394560429063398  0.04439472736444912  1.0000
  Fe  Fe33      1.0  0.8484474867786209  0.25667994828704643  0.571670684084825  1.0000
  S   S65       1.0  0.8898089230118624  0.23305533515583254  0.6079257605809776  1.0000
  S   S66       1.0  0.7803061224123351  0.20899513843312395  0.5411055918525022  1.0000
  Fe  Fe34      1.0  0.915120662582324  0.3552142974324901  0.5903664496072342  1.0000
  S   S67       1.0  0.9622006894789394  0.33974685036599894  0.6283751866995326  1.0000
  S   S68       1.0  0.9263162293763387  0.42586397752741234  0.5857169342587125  1.0000
  Fe  Fe35      1.0  0.949815371079481  0.29108412580029086  0.5751615448205063  1.0000
  S   S69       1.0  0.0021616157816318517  0.27455657088622015  0.5520009391284919  1.0000
  Fe  Fe36      1.0  0.8990006547524043  0.2828911121771416  0.6584894431346942  1.0000
  S   S70       1.0  0.9024471602936832  0.2663196017755887  0.7294063991409978  1.0000
  S   S71       1.0  0.9075861135411809  0.3108174738779155  0.5340745434608839  1.0000
  S   S72       1.0  0.8525686045144675  0.30238265308552037  0.6252941920076034  1.0000
  Fe  Fe37      1.0  0.147568735426369  0.7384876766352491  0.47809441701213595  1.0000
  S   S73       1.0  0.11644710306413907  0.7632837440361728  0.4287238817229882  1.0000
  S   S74       1.0  0.20775357170943684  0.7843083532804739  0.5204719287031009  1.0000
  Fe  Fe38      1.0  0.08646755803940764  0.639640886742904  0.4518739493604273  1.0000
  S   S75       1.0  0.050427554021921735  0.6574175254585924  0.40071083096581084  1.0000
  S   S76       1.0  0.07507370552190096  0.5687650267637265  0.45617897161977927  1.0000
  Fe  Fe39      1.0  0.1197263045867777  0.7148559469911191  0.38301977403553206  1.0000
  S   S77       1.0  0.14727675194302878  0.7261276396122057  0.31424353384003667  1.0000
  Fe  Fe40      1.0  0.050278115046530916  0.7039095459955732  0.45126840923975053  1.0000
  S   S78       1.0  0.994111313439072  0.7188759052571209  0.46379202317816254  1.0000
  S   S79       1.0  0.1558060268489947  0.6941690861661249  0.4308987583796785  1.0000
  S   S80       1.0  0.08138142469529096  0.682129328495104  0.5040462166903313  1.0000
  Fe  Fe41      1.0  0.2930418687187508  0.9789446007371069  0.06663983112925849  1.0000
  S   S81       1.0  0.31257394701137176  0.9374988262854933  0.02631541798849657  1.0000
  S   S82       1.0  0.27976235155536033  0.03198667429283662  0.038081045832352334  1.0000
  Fe  Fe42      1.0  0.2778646200445686  0.9227686939055169  0.1487887531236755  1.0000
  S   S83       1.0  0.29647912158676426  0.8771374291660639  0.11567812017930222  1.0000
  S   S84       1.0  0.25367611406295026  0.9157229448358629  0.21855658492614458  1.0000
  Fe  Fe43      1.0  0.3535842586243352  0.9395391442769565  0.08480634480951219  1.0000
  S   S85       1.0  0.418963270109932  0.9374669232257521  0.08029411875500161  1.0000
  Fe  Fe44      1.0  0.2545760425442766  0.8780707729528215  0.05955722130241002  1.0000
  S   S86       1.0  0.21183149381423658  0.8114495566568085  0.026036622304473234  1.0000
  S   S87       1.0  0.3387034633464903  0.9859872438997224  0.1230629080923531  1.0000
  S   S88       1.0  0.23113588147720338  0.9188706854434167  0.09501696137884368  1.0000
  Fe  Fe45      1.0  0.7130512803734654  0.036650132933500466  0.9699302042909252  1.0000
  S   S89       1.0  0.6935734484245999  0.07889183663138864  0.00912713219902761  1.0000
  S   S90       1.0  0.7261912449179727  0.9856556261043622  0.0042956602061403615  1.0000
  Fe  Fe46      1.0  0.7220284980293966  0.08763448631869691  0.8853500737631677  1.0000
  S   S91       1.0  0.7033091297035116  0.13338790088345595  0.917858594571958  1.0000
  S   S92       1.0  0.7315141293376058  0.0948490740956184  0.8119362520876926  1.0000
  Fe  Fe47      1.0  0.7492880558881625  0.13718923953216128  0.9723749365727299  1.0000
  S   S93       1.0  0.7900084549034126  0.20481735023009454  0.00508685661039654  1.0000
  Fe  Fe48      1.0  0.6489001591831501  0.07197059427036155  0.9522114748066197  1.0000
  S   S94       1.0  0.5820930000762036  0.07111119102596165  0.9574224579987497  1.0000
  S   S95       1.0  0.77275226937473  0.09598867864220836  0.9371349649235736  1.0000
  S   S96       1.0  0.6637621555579054  0.024931961833884252  0.9153555286190225  1.0000
  C   C1        1.0  0.464093556392241  0.9750161376574661  0.046151756015913  1.0000
  C   C2        1.0  0.4611590421040103  0.007272375126571931  0.020572492302282756  1.0000
  C   C3        1.0  0.4975961733745909  0.036383607485214756  0.9934637197704551  1.0000
  C   C4        1.0  0.5371294633115937  0.033434144987152394  0.9916388981213405  1.0000
  C   C5        1.0  0.5401247234874219  0.0012324729403738743  0.01727981097396447  1.0000
  C   C6        1.0  0.5036524633457155  0.9720781193468956  0.04438225311015197  1.0000
  H   H1        1.0  0.4309374485076167  0.009951217218428435  0.0218103036728754  1.0000
  H   H2        1.0  0.4951424612417469  0.06136679964183902  0.9738570198387866  1.0000
  H   H3        1.0  0.5704517382159239  0.9987246694766875  0.01614428073077856  1.0000
  H   H4        1.0  0.5061852616265899  0.9472463105550887  0.06414184553460416  1.0000
  C   C7        1.0  0.22538741913840885  0.8631860776332787  0.24552982756344088  1.0000
  C   C8        1.0  0.22621321273755557  0.8259112499536928  0.22946403070058663  1.0000
  C   C9        1.0  0.20202020670355408  0.7841128399595595  0.2509151216833185  1.0000
  C   C10       1.0  0.17719228156049274  0.7793482933149615  0.28875565831074784  1.0000
  C   C11       1.0  0.17649080796828526  0.8166453096548997  0.3049753111553663  1.0000
  C   C12       1.0  0.20087181376368005  0.8585319947701098  0.28360703736592924  1.0000
  H   H5        1.0  0.2454474559812096  0.8292791812707933  0.20047456734690278  1.0000
  H   H6        1.0  0.20265884925702488  0.755336454903434  0.2382079245865356  1.0000
  H   H7        1.0  0.15662314286110524  0.8130882068177768  0.33355922265527393  1.0000
  H   H8        1.0  0.19994227192770517  0.887255797797938  0.29605030044377467  1.0000
  C   C13       1.0  0.8537452242082456  0.2204034872701873  0.7530418478269311  1.0000
  C   C14       1.0  0.8556608656618853  0.2074048734863634  0.7961659710061408  1.0000
  C   C15       1.0  0.8178427584232151  0.16989788931667732  0.8151909091226728  1.0000
  C   C16       1.0  0.7778885042498688  0.1450854963037787  0.7911014585849365  1.0000
  C   C17       1.0  0.7756037331654276  0.1589206576781316  0.7484392240973142  1.0000
  C   C18       1.0  0.8134053433472367  0.19628428287160413  0.7293380736635331  1.0000
  H   H9        1.0  0.8865808739224511  0.22617133727385771  0.8148761705278825  1.0000
  H   H10       1.0  0.8199161322368643  0.15970402017725366  0.8481912943960968  1.0000
  H   H11       1.0  0.7442866704520292  0.14093204175508695  0.730325256110088  1.0000
  H   H12       1.0  0.8113276590213525  0.20661416490839463  0.6964002354207046  1.0000
  C   C19       1.0  0.03361374690971367  0.5294124483408718  0.4923419039604903  1.0000
  C   C20       1.0  0.012664590624559047  0.5425625179452818  0.522949307147855  1.0000
  C   C21       1.0  0.9804995082130563  0.5106620344498788  0.5519516518792743  1.0000
  C   C22       1.0  0.9685992170723319  0.4653262939360162  0.5502543719031212  1.0000
  C   C23       1.0  0.9895136280004144  0.4521420000571855  0.5196341946205686  1.0000
  C   C24       1.0  0.021905944235840726  0.48410311288502117  0.4907934380408472  1.0000
  H   H13       1.0  0.02168662981025381  0.5774052698257013  0.5246575420550048  1.0000
  H   H14       1.0  0.9654459266561224  0.5213973735254032  0.5762506707713726  1.0000
  H   H15       1.0  0.9805135787448652  0.4172887728560433  0.5179772976908689  1.0000
  H   H16       1.0  0.03754178208599519  0.47351931960101473  0.46697424914743374  1.0000
  C   C25       1.0  0.9343758339665854  0.2513054723438995  0.054967767434241456  1.0000
  C   C26       1.0  0.9064166279091275  0.20708625765029362  0.04044620502968663  1.0000
  C   C27       1.0  0.8624290679984925  0.19272207529523758  0.0244675184699541  1.0000
  C   C28       1.0  0.8458549444787155  0.2224011661713505  0.023284372584972735  1.0000
  C   C29       1.0  0.8738342143962325  0.26668454270989955  0.037750075480302625  1.0000
  C   C30       1.0  0.918086794769286  0.2812249886879305  0.053307238276812274  1.0000
  H   H17       1.0  0.9186378962358646  0.18365851804907704  0.04184724839241747  1.0000
  H   H18       1.0  0.8411053109694402  0.15849900223017005  0.013655190026187205  1.0000
  H   H19       1.0  0.8612744238264303  0.28985984191623887  0.036870355496431806  1.0000
  H   H20       1.0  0.9393284749067746  0.3153598938687011  0.06439287684374051  1.0000
  C   C31       1.0  0.029052327223910983  0.5056210257276075  0.061490180915189895  1.0000
  C   C32       1.0  0.028094062460272864  0.5458798599693556  0.061743560760067887  1.0000
  C   C33       1.0  0.9961231300188986  0.5506596041689218  0.03645281824849221  1.0000
  C   C34       1.0  0.96477693664594  0.5150778366570433  0.010774122400515784  1.0000
  C   C35       1.0  0.9656996859206789  0.4747958084069132  0.010593643043798506  1.0000
  C   C36       1.0  0.9976866283400702  0.47002462851537286  0.03585390162944768  1.0000
  H   H21       1.0  0.05230956604259496  0.5736066660511362  0.08142745633542668  1.0000
  H   H22       1.0  0.9957408677533839  0.5818220275423905  0.03678591077873364  1.0000
  H   H23       1.0  0.941473728500775  0.44706241477056086  0.9909071544094014  1.0000
  H   H24       1.0  0.9980331188125544  0.4388477273779895  0.035465802110435485  1.0000
  C   C37       1.0  0.062006053258936364  0.7674005171347509  0.0039048774605239256  1.0000
  C   C38       1.0  0.09383016380867992  0.8123434159333289  0.013289727831006015  1.0000
  C   C39       1.0  0.13994463907484342  0.826243477569371  0.01915392478291689  1.0000
  C   C40       1.0  0.15459909245732986  0.7952290596363959  0.015722764307231744  1.0000
  C   C41       1.0  0.12297202100517518  0.7503798302178416  0.0055763819805343395  1.0000
  C   C42       1.0  0.07670706525092827  0.736428299620137  0.999716556189342  1.0000
  H   H25       1.0  0.08264307922603319  0.8364667951455523  0.01626195460661628  1.0000
  H   H26       1.0  0.16409935088162853  0.8610026524505129  0.026279177369472828  1.0000
  H   H27       1.0  0.13406209334129163  0.7261723812687596  0.0028871504737499887  1.0000
  H   H28       1.0  0.05234575827294679  0.7016657712519475  0.9926168954241553  1.0000
  C   C43       1.0  0.05899765637471455  0.31727189193424377  0.5440615049943134  1.0000
  C   C44       1.0  0.09023941361220414  0.30549330374161177  0.5291767899643071  1.0000
  C   C45       1.0  0.1361849165820999  0.3383246865171444  0.5237517110728056  1.0000
  C   C46       1.0  0.15130224780728818  0.3831428437218228  0.5335951688309342  1.0000
  C   C47       1.0  0.12018884853861485  0.3948631955992249  0.5492854809303526  1.0000
  C   C48       1.0  0.0739885560399023  0.362120682529524  0.5539587521839275  1.0000
  H   H29       1.0  0.07885750414641486  0.2707983075067016  0.5217252049079172  1.0000
  H   H30       1.0  0.15986725048490252  0.3287937818443087  0.5122432327444637  1.0000
  H   H31       1.0  0.13172212909061276  0.4294751971482707  0.5572368689211373  1.0000
  H   H32       1.0  0.05010081648025394  0.3715160977667069  0.5654541507010952  1.0000
  C   C49       1.0  0.22732444864057405  0.3858760093319126  0.30907160442185416  1.0000
  C   C50       1.0  0.22103073551101501  0.3807264769709573  0.26380228140639217  1.0000
  C   C51       1.0  0.18736032046085951  0.38627874486702657  0.24266900664679739  1.0000
  C   C52       1.0  0.15953633449973031  0.39691105192659065  0.26671184759543837  1.0000
  C   C53       1.0  0.1657597967232928  0.40203095253379756  0.31203491435524816  1.0000
  C   C54       1.0  0.19955624793684032  0.39660997659784364  0.3331775845684001  1.0000
  H   H33       1.0  0.24231291708896482  0.37237690503792364  0.2449626239775662  1.0000
  H   H34       1.0  0.182868650681294  0.38221603938121296  0.20780517530014028  1.0000
  H   H35       1.0  0.1440535149485964  0.4097618460247823  0.3308612222647426  1.0000
  H   H36       1.0  0.203908550509591  0.4003150141367073  0.36807805759623563  1.0000
  C   C55       1.0  0.8632246151168966  0.6142165345731512  0.5320563450713913  1.0000
  C   C56       1.0  0.8675118554374485  0.6542346782848256  0.5158005107485668  1.0000
  C   C57       1.0  0.9078528965820215  0.6861381851330207  0.4949342513169601  1.0000
  C   C58       1.0  0.9439771688772586  0.6781094252347415  0.4899449496767447  1.0000
  C   C59       1.0  0.9400609856730129  0.6384987390803648  0.506838283363374  1.0000
  C   C60       1.0  0.89993019660914  0.6068375553559964  0.5280181528547584  1.0000
  H   H37       1.0  0.8394864272261788  0.6602975897371651  0.5186590910660849  1.0000
  H   H38       1.0  0.9107458903228277  0.7168196021298928  0.4820266004758835  1.0000
  H   H39       1.0  0.9678843294259665  0.6322037864990759  0.5035090823252009  1.0000
  H   H40       1.0  0.8975533133672666  0.5766601529650758  0.5412910120943575  1.0000
  C   C61       1.0  0.7753552399080826  0.6315934587938239  0.7508107015549444  1.0000
  C   C62       1.0  0.8037498705179245  0.6194945689936658  0.7298721191253245  1.0000
  C   C63       1.0  0.8374382924801163  0.6161909820537498  0.7536108583384205  1.0000
  C   C64       1.0  0.842885746920154  0.6246288249598574  0.798503663810607  1.0000
  C   C65       1.0  0.8142649218944261  0.6364002241652822  0.8195736192029552  1.0000
  C   C66       1.0  0.7807444926724044  0.6400477322019043  0.7957312651965327  1.0000
  H   H41       1.0  0.7999769929171106  0.6129501072268614  0.6952963724436225  1.0000
  H   H42       1.0  0.8594378690279275  0.6071432972248023  0.7370396993431705  1.0000
  H   H43       1.0  0.8181866719068435  0.6429964390462183  0.8541342839346137  1.0000
  H   H44       1.0  0.7588998005753531  0.6493596024809039  0.8121868639098543  1.0000
  C   C67       1.0  0.47074339528796255  0.4976122667342297  0.5108904339598875  1.0000
  C   C68       1.0  0.46457293903265817  0.45555665284387414  0.5227264599427843  1.0000
  C   C69       1.0  0.5002760770205646  0.4525844769231506  0.5428028950716529  1.0000
  C   C70       1.0  0.5422923882144751  0.4915432746365351  0.5510661782976958  1.0000
  C   C71       1.0  0.5482678070455557  0.5335313415657845  0.5394717868819731  1.0000
  C   C72       1.0  0.5125330162881512  0.5364817608524077  0.519686979383663  1.0000
  H   H45       1.0  0.432547771115414  0.42543106963084504  0.5159297267767163  1.0000
  H   H46       1.0  0.4956266500136223  0.4200467301408176  0.551408998494451  1.0000
  H   H47       1.0  0.5803407829108722  0.5636975480452047  0.5460063954758163  1.0000
  H   H48       1.0  0.5170811061498406  0.5690105006727532  0.5115627288243935  1.0000
  C   C73       1.0  0.3900113201688782  0.17845105381952076  0.014472898551359359  1.0000
  C   C74       1.0  0.3443497831308421  0.16628133691779143  0.017789600743113757  1.0000
  C   C75       1.0  0.3111632858502413  0.12148258872153715  0.02687738388311423  1.0000
  C   C76       1.0  0.32331990435107655  0.08859234470550226  0.03306611130803946  1.0000
  C   C77       1.0  0.369152376522068  0.10094598047064784  0.031378789941120644  1.0000
  C   C78       1.0  0.4024438080593429  0.14585231668683188  0.02208290389486689  1.0000
  H   H49       1.0  0.33452077428211013  0.1912892394952316  0.012899994363249291  1.0000
  H   H50       1.0  0.27579877862282637  0.11217198261751433  0.028706201407319148  1.0000
  H   H51       1.0  0.3787985200734745  0.07574075283331443  0.036028742044809325  1.0000
  H   H52       1.0  0.43773935351762866  0.15510883810354026  0.019609509828494076  1.0000
  C   C79       1.0  0.21875934172104455  0.3810349370024275  0.025179051318369398  1.0000
  C   C80       1.0  0.2048771508991303  0.3442869682064051  0.0533802213183826  1.0000
  C   C81       1.0  0.21967685396419254  0.3135197400823429  0.046609798046802986  1.0000
  C   C82       1.0  0.2489632320738662  0.31971527538935135  0.01203921620735593  1.0000
  C   C83       1.0  0.26332945660486584  0.35679934785007794  0.9841913644210377  1.0000
  C   C84       1.0  0.2480855861740401  0.38725297177518947  0.9906608110030296  1.0000
  H   H53       1.0  0.18329684236657356  0.3399287805929302  0.08074247442430775  1.0000
  H   H54       1.0  0.20871816245191321  0.2849678908483796  0.06839707193045896  1.0000
  H   H55       1.0  0.28556190963284245  0.3615638434069105  0.9572246581206302  1.0000
  H   H56       1.0  0.258928130325458  0.41563897733851396  0.9686817326826985  1.0000
  C   C85       1.0  0.6820563593347504  0.9324860221349014  0.02161793533008649  1.0000
  C   C86       1.0  0.6922530418130328  0.9078523110279926  0.051669399356974566  1.0000
  C   C87       1.0  0.6592125193317583  0.8638063921973699  0.06364708076386139  1.0000
  C   C88       1.0  0.615681256152702  0.8439362294929055  0.04546643050306894  1.0000
  C   C89       1.0  0.6049508089826919  0.8690463610118518  0.016473348244185674  1.0000
  C   C90       1.0  0.6380552695580388  0.9132540299816654  0.0045320997652202885  1.0000
  H   H57       1.0  0.7260722067384048  0.9229367614722388  0.06547128938149704  1.0000
  H   H58       1.0  0.6676894775825991  0.8452295330549688  0.08658024770084904  1.0000
  H   H59       1.0  0.5712347491815747  0.8540092786631223  0.002464012429519658  1.0000
  H   H60       1.0  0.6298951210698605  0.9320474899757242  0.9813606522915013  1.0000
  C   C91       1.0  0.5075088314825558  0.5365802850674114  0.06068027579289901  1.0000
  C   C92       1.0  0.517973939599744  0.5549014641548317  0.018628553704676643  1.0000
  C   C93       1.0  0.5079277680909376  0.5265125831958823  0.9826167208240266  1.0000
  C   C94       1.0  0.48757867089264884  0.479739371773634  0.9883974557613759  1.0000
  C   C95       1.0  0.47773786989549905  0.4615647858968416  0.03047504989993485  1.0000
  C   C96       1.0  0.4874952093297152  0.48987839716563875  0.06641784145275038  1.0000
  H   H61       1.0  0.5330220536919212  0.5907860562346771  0.013821050036704863  1.0000
  H   H62       1.0  0.5157343178187519  0.5408282731056753  0.9501041877940593  1.0000
  H   H63       1.0  0.4628526778891939  0.4257090046866186  0.03536691365815932  1.0000
  H   H64       1.0  0.4797005298089474  0.47551007446591287  0.0989087541064188  1.0000
  C   C97       1.0  0.7496028102502226  0.6992739109508784  0.06686383586877649  1.0000
  C   C98       1.0  0.7185025417295738  0.653523265868663  0.07322924442914935  1.0000
  C   C99       1.0  0.7292973428173904  0.6213107390041323  0.059617983515142914  1.0000
  C   C100      1.0  0.7707158952199493  0.6345389246844058  0.038845767625223404  1.0000
  C   C101      1.0  0.8016384659204453  0.6802821707872685  0.0321953973896592  1.0000
  C   C102      1.0  0.791159001884109  0.7125645977180336  0.04635382020487188  1.0000
  H   H65       1.0  0.6866339252815966  0.6430323641605774  0.08949169188491535  1.0000
  H   H66       1.0  0.7059086009620069  0.5860853637290215  0.0658965916932246  1.0000
  H   H67       1.0  0.8338012145612221  0.6908071832687893  0.01653986881909009  1.0000
  H   H68       1.0  0.8155071373157092  0.7479110725423666  0.04163196759769489  1.0000
  C   C103      1.0  0.6295087343272453  0.7670571207204899  0.536475445718931  1.0000
  C   C104      1.0  0.6687672814905322  0.7888761868199412  0.5110897056250705  1.0000
  C   C105      1.0  0.6968790130124355  0.7703202694309274  0.5068479473525719  1.0000
  C   C106      1.0  0.6860897715139688  0.7298393298347955  0.5279520033673097  1.0000
  C   C107      1.0  0.6467531277681839  0.7077882566111486  0.553286206903066  1.0000
  C   C108      1.0  0.6186262920112794  0.7264331772807916  0.5576105905611364  1.0000
  H   H69       1.0  0.6774206565415428  0.8199043375745159  0.4944387053637661  1.0000
  H   H70       1.0  0.7271129689539368  0.7873943691825579  0.4869500004433608  1.0000
  H   H71       1.0  0.6375740397798229  0.6760491768802024  0.5688833676581595  1.0000
  H   H72       1.0  0.5879885632239752  0.7090680043961971  0.5769216079595292  1.0000
  C   C109      1.0  0.6350685256708227  0.8520142245297553  0.3231222854652167  1.0000
  C   C110      1.0  0.6075117625990138  0.8107663777924055  0.34406214196082285  1.0000
  C   C111      1.0  0.5969201028046011  0.7704677652801243  0.32340979824021954  1.0000
  C   C112      1.0  0.6139591962493904  0.7710360592870901  0.28186789840155624  1.0000
  C   C113      1.0  0.6421707026391711  0.8123085261108429  0.2611791940894231  1.0000
  C   C114      1.0  0.6525086740960689  0.8526787065554675  0.28170336405784374  1.0000
  H   H73       1.0  0.5938459151847659  0.8098863823990602  0.3759297087092744  1.0000
  H   H74       1.0  0.5747877042407412  0.7386657128253517  0.33935530449913887  1.0000
  H   H75       1.0  0.6559988564509619  0.8130763365545811  0.22945473886927628  1.0000
  H   H76       1.0  0.6741880601712333  0.8845095869015568  0.2655103325513935  1.0000
  C   C115      1.0  0.7496558322719267  0.06506026344267675  0.5226408816922594  1.0000
  C   C116      1.0  0.7150817688377439  0.07523317324876115  0.5174559156958243  1.0000
  C   C117      1.0  0.7250035998607904  0.11984239532545678  0.5218636091884666  1.0000
  C   C118      1.0  0.769444412230642  0.15428877888919912  0.5312721753211259  1.0000
  C   C119      1.0  0.8041774420699679  0.14416650944193674  0.5346695481371366  1.0000
  C   C120      1.0  0.7942591532004383  0.09965412655559465  0.5305985310689271  1.0000
  H   H77       1.0  0.6805352199626247  0.048677250222073545  0.5113253279824462  1.0000
  H   H78       1.0  0.6980381392932016  0.12755254934077612  0.5190319989990952  1.0000
  H   H79       1.0  0.83866589872057  0.1705937810782665  0.5407871754057865  1.0000
  H   H80       1.0  0.821200626422365  0.09200638065211889  0.5343732065104839  1.0000
  C   C121      1.0  0.37500738299325237  0.2212195611050854  0.5261793777480447  1.0000
  C   C122      1.0  0.33139505394066937  0.1971477729056677  0.5438351134515361  1.0000
  C   C123      1.0  0.30234097404173516  0.21481238406789277  0.541717114981562  1.0000
  C   C124      1.0  0.31656659578855356  0.256712088075674  0.522001157056684  1.0000
  C   C125      1.0  0.36023838500254585  0.28104562028560337  0.5042807648205034  1.0000
  C   C126      1.0  0.389350328735626  0.2632274398168199  0.5062941095731407  1.0000
  H   H81       1.0  0.3197610054003881  0.16465532277668693  0.5588261207991664  1.0000
  H   H82       1.0  0.2685552734772251  0.19576001557188316  0.555395368702498  1.0000
  H   H83       1.0  0.37161278525894204  0.3135174725160049  0.489121669798534  1.0000
  H   H84       1.0  0.4231404246249001  0.2821297766516659  0.49263201854230715  1.0000
  C   C127      1.0  0.3815096088382729  0.16328603181539936  0.7536433107508131  1.0000
  C   C128      1.0  0.3996182613808007  0.18214604749324415  0.7943959617502389  1.0000
  C   C129      1.0  0.39330879971319405  0.21634248671270007  0.8112924504138594  1.0000
  C   C130      1.0  0.3681714105796672  0.23143449499716173  0.7878734435005814  1.0000
  C   C131      1.0  0.3510079913309291  0.21334734284291607  0.7466357495396593  1.0000
  C   C132      1.0  0.3577713070053483  0.17952258405123278  0.7294814192585578  1.0000
  H   H85       1.0  0.4186385201613818  0.17031295785983708  0.8130007406500199  1.0000
  H   H86       1.0  0.4078786929171228  0.23109202077964194  0.842450998324246  1.0000
  H   H87       1.0  0.3315405703096702  0.22484592239137988  0.7282960237053157  1.0000
  H   H88       1.0  0.34352809358715986  0.16515862332967718  0.6981233185945703  1.0000
  C   C133      1.0  0.49382827107406807  0.028483501230883092  0.5649902604186638  1.0000
  C   C134      1.0  0.45656962654160704  0.9952890007832301  0.5420883531193665  1.0000
  C   C135      1.0  0.460720498539256  0.9626702304418783  0.5187962049430889  1.0000
  C   C136      1.0  0.5020335677199803  0.9628736744541146  0.518165490314676  1.0000
  C   C137      1.0  0.5393816624330702  0.9962776402346529  0.5409001989050901  1.0000
  C   C138      1.0  0.535255429645774  0.028956281357818834  0.5641733162682531  1.0000
  H   H89       1.0  0.4244668394024556  0.9944844247540761  0.5424976241000056  1.0000
  H   H90       1.0  0.43166976851959693  0.9368793168217991  0.5013864183438809  1.0000
  H   H91       1.0  0.5713715872298367  0.9968600369654013  0.5405067045582851  1.0000
  H   H92       1.0  0.5643364831556694  0.05467334025753214  0.5815981886303792  1.0000
  C   C139      1.0  0.24508597709729485  0.9291752429863902  0.549378212857823  1.0000
  C   C140      1.0  0.20589225938363778  0.9010758507996774  0.5250884297330283  1.0000
  C   C141      1.0  0.19477708897630322  0.8570175422657871  0.5150321601235314  1.0000
  C   C142      1.0  0.22220135134118219  0.8403469958491825  0.5301600329090175  1.0000
  C   C143      1.0  0.2617322117480631  0.8685804529650215  0.5539215230223071  1.0000
  C   C144      1.0  0.2733766869788655  0.913008593034562  0.5632476721098869  1.0000
  H   H93       1.0  0.18410286182390104  0.9135822120420113  0.5140110589506056  1.0000
  H   H94       1.0  0.16468110560161417  0.8358174420464092  0.4961737228590106  1.0000
  H   H95       1.0  0.28322356580903885  0.8559316338849396  0.5655831701289464  1.0000
  H   H96       1.0  0.30358941406790974  0.9343508392760594  0.5820477662722879  1.0000
  N   N1        1.0  0.3420094375483552  0.8222503693818679  0.002881080512904921  1.0000
  C   C145      1.0  0.3399243346806347  0.8613442456337597  0.9856559545831873  1.0000
  C   C146      1.0  0.3891789224241787  0.8314425634193268  0.9997440690871398  1.0000
  C   C147      1.0  0.3111180115792273  0.7820388834263018  0.9773280407470737  1.0000
  C   C148      1.0  0.3276945078367917  0.8143887157662807  0.04893618025181712  1.0000
  H   H97       1.0  0.304826915566278  0.8557033478598185  0.9878178035150482  1.0000
  H   H98       1.0  0.35032604864406575  0.8682572454658288  0.950925547213455  1.0000
  H   H99       1.0  0.36295642700061714  0.8923292293550752  0.004147301987908136  1.0000
  H   H100      1.0  0.39221902266690595  0.8027719716467407  0.012599859707179695  1.0000
  H   H101      1.0  0.4012684594480626  0.8378164159393123  0.9654595383325341  1.0000
  H   H102      1.0  0.41302305051228794  0.8618286647222556  0.01880126677032079  1.0000
  H   H103      1.0  0.3115659343211942  0.7517281726413352  0.9894714516667054  1.0000
  H   H104      1.0  0.32066404395777187  0.786765217545691  0.9423156236237696  1.0000
  H   H105      1.0  0.27529945281140467  0.774632386180165  0.97933854173498  1.0000
  H   H106      1.0  0.32847918271956084  0.784922975504276  0.0629870089423219  1.0000
  H   H107      1.0  0.2924087808450481  0.807891519431919  0.05255104480024175  1.0000
  H   H108      1.0  0.3503295042640262  0.8440388044179676  0.06922076997015991  1.0000
  N   N2        1.0  0.16681326485353085  0.4894269104444949  0.4330387267164069  1.0000
  C   C149      1.0  0.18804792273555518  0.5013843447985822  0.3895001450032546  1.0000
  C   C150      1.0  0.13657320631449002  0.5081605915539876  0.43823178899147175  1.0000
  C   C151      1.0  0.20267087828650704  0.50816203925682  0.46681889467704973  1.0000
  C   C152      1.0  0.1400672432691732  0.43993413014887095  0.43772155173207783  1.0000
  H   H109      1.0  0.21056994404660226  0.48710268058167666  0.3845444621190453  1.0000
  H   H110      1.0  0.20910361323366328  0.5384748242212694  0.38501684241807405  1.0000
  H   H111      1.0  0.16199351434474688  0.48813465382829346  0.3631652207558147  1.0000
  H   H112      1.0  0.15525634989478013  0.5454043931467858  0.4341253497674026  1.0000
  H   H113      1.0  0.10829053745471877  0.49405722437507116  0.41412673307358766  1.0000
  H   H114      1.0  0.12100258527488263  0.5007290542532972  0.471247246421187  1.0000
  H   H115      1.0  0.22705005678509446  0.49592117488602566  0.4631212093904972  1.0000
  H   H116      1.0  0.18800843024515568  0.49800955172780476  0.5001151247664792  1.0000
  H   H117      1.0  0.22253579035879067  0.5455264618158281  0.4654017027181004  1.0000
  H   H118      1.0  0.11430910882899022  0.42428824087098577  0.41137351024884283  1.0000
  H   H119      1.0  0.12154126938261241  0.42968061246152356  0.4691774440955266  1.0000
  H   H120      1.0  0.1622921116865162  0.4248981063414842  0.43696255154950525  1.0000
  N   N3        1.0  0.3014378548849559  0.10621221556036946  0.8902377136962104  1.0000
  C   C153      1.0  0.29006469221465825  0.061607018989369836  0.9078252628947144  1.0000
  C   C154      1.0  0.2708212666459293  0.1199561719008152  0.9094320346839804  1.0000
  C   C155      1.0  0.29589429118240146  0.10399826432010088  0.8423812221748801  1.0000
  C   C156      1.0  0.3490232274619448  0.1394217056433589  0.901441880740665  1.0000
  H   H121      1.0  0.31314143637979086  0.050607697361243334  0.8947989264632118  1.0000
  H   H122      1.0  0.25453345334827837  0.035465080467248625  0.8997720325393516  1.0000
  H   H123      1.0  0.29320925514196544  0.06210569468250596  0.9440078741952629  1.0000
  H   H124      1.0  0.2345059452529317  0.09477768393647583  0.9031850225234096  1.0000
  H   H125      1.0  0.27551808783642745  0.12386723149734381  0.9453100764602049  1.0000
  H   H126      1.0  0.2774354932729505  0.15279223981013215  0.8957654421908088  1.0000
  H   H127      1.0  0.3188169805291398  0.09419641892319011  0.8265862503960016  1.0000
  H   H128      1.0  0.30411339887353284  0.13721001546481298  0.8282761699521572  1.0000
  H   H129      1.0  0.2604349413810865  0.07916817728058505  0.8326880013559157  1.0000
  H   H130      1.0  0.37347051490142175  0.13243857875276627  0.8846356099411509  1.0000
  H   H131      1.0  0.35536858796156645  0.13911102001167097  0.936876137234161  1.0000
  H   H132      1.0  0.3575801291618558  0.1742108834680838  0.892690780108116  1.0000
  N   N4        1.0  0.7300806102831364  0.8199902612340904  0.9895693312486806  1.0000
  C   C157      1.0  0.7673165238554163  0.8534030834779591  0.96175279684376  1.0000
  C   C158      1.0  0.741462258061215  0.83261838577569  0.03568656470873188  1.0000
  C   C159      1.0  0.7242752939989847  0.7750185930797899  0.9827834620170702  1.0000
  C   C160      1.0  0.6873821291288925  0.8190014285970458  0.9781715920529351  1.0000
  H   H133      1.0  0.7599758587859037  0.8450357853067669  0.9266847461393446  1.0000
  H   H134      1.0  0.8000066434212891  0.8549686764230655  0.9697146485972182  1.0000
  H   H135      1.0  0.7725730333907941  0.887745703509439  0.9662467756124656  1.0000
  H   H136      1.0  0.7137227455974156  0.8086626176757099  0.05761683233336301  1.0000
  H   H137      1.0  0.7726943945873397  0.8322256389747963  0.0458586648529824  1.0000
  H   H138      1.0  0.7473232104857972  0.866823700392054  0.04187016719663372  1.0000
  H   H139      1.0  0.6962751577345162  0.7490244287198797  0.003230741698236672  1.0000
  H   H140      1.0  0.7555423813679586  0.7742306935232681  0.9920395168853103  1.0000
  H   H141      1.0  0.7162534347877555  0.7644391535810025  0.9482927142487813  1.0000
  H   H142      1.0  0.6910432737711614  0.8527982201274064  0.9814284599832482  1.0000
  H   H143      1.0  0.6589090948895668  0.79540327101307  0.9997756700148949  1.0000
  H   H144      1.0  0.6768630771501335  0.8081028464724761  0.9440586943098968  1.0000
  N   N5        1.0  0.7318094716388933  0.053595060149983054  0.6590158122582589  1.0000
  C   C161      1.0  0.6883914891415925  0.02341885421023937  0.6367057448161042  1.0000
  C   C162      1.0  0.7473173952488592  0.10072653325186365  0.6465768021397074  1.0000
  C   C163      1.0  0.7664115481233457  0.04230845836950614  0.6460109390612808  1.0000
  C   C164      1.0  0.7252584881453714  0.047976538550671854  0.7066812709455791  1.0000
  H   H145      1.0  0.6755765826033148  0.9875360759811546  0.64532709796  1.0000
  H   H146      1.0  0.692330583482205  0.026510916825289943  0.6006689179583217  1.0000
  H   H147      1.0  0.6616228145322433  0.03132378487104015  0.6453633628645395  1.0000
  H   H148      1.0  0.7518954551968839  0.10592882354059507  0.6108467490036952  1.0000
  H   H149      1.0  0.7224021994567013  0.11078210555001  0.6562358032199563  1.0000
  H   H150      1.0  0.7805089057137107  0.12447186312157221  0.6620115889288455  1.0000
  H   H151      1.0  0.7996157976225023  0.06447699386256356  0.6622343094497121  1.0000
  H   H152      1.0  0.772325198801283  0.0463525495712378  0.6102578030557074  1.0000
  H   H153      1.0  0.755696858297792  0.006851404806127004  0.6544757738520122  1.0000
  H   H154      1.0  0.6998589864292725  0.05681094952783772  0.7179762727770835  1.0000
  H   H155      1.0  0.7574513262233606  0.07003735922606791  0.7245911492054334  1.0000
  H   H156      1.0  0.713218220122333  0.012784719041827763  0.7173539031470353  1.0000
  N   N6        1.0  0.052351687913520406  0.487631164747015  0.22714184261482087  1.0000
  C   C165      1.0  0.03827955787437709  0.44602769907154105  0.25273092427242894  1.0000
  C   C166      1.0  0.05863561998363043  0.5239824022490751  0.25645344680966703  1.0000
  C   C167      1.0  0.016980229373348976  0.47949183995996075  0.1944191193423216  1.0000
  C   C168      1.0  0.09563370313401376  0.5010419273655031  0.2048530593062472  1.0000
  H   H157      1.0  0.06460599827689806  0.4506797259296603  0.27714317418570816  1.0000
  H   H158      1.0  0.033291816910901995  0.41796905673905216  0.23148289065642916  1.0000
  H   H159      1.0  0.005835737771758609  0.43482578367277386  0.27023559245392237  1.0000
  H   H160      1.0  0.06935263990508522  0.5558302414104531  0.23801522087010263  1.0000
  H   H161      1.0  0.02660457976530095  0.5150691389004862  0.27379949450810886  1.0000
  H   H162      1.0  0.08515358775910076  0.5310847882277123  0.2815069093357165  1.0000
  H   H163      1.0  0.026738462040607702  0.5100931382316775  0.17415764400802627  1.0000
  H   H164      1.0  0.9837431943083779  0.4692223740536843  0.20987623996012522  1.0000
  H   H165      1.0  0.011630908889064262  0.4525264009077943  0.17144202511952206  1.0000
  H   H166      1.0  0.10725847444917469  0.5320796792920423  0.18476738723476366  1.0000
  H   H167      1.0  0.09182627377869235  0.4744061329749136  0.1824014945308065  1.0000
  H   H168      1.0  0.1230963615339713  0.5068821207306776  0.2283051051380829  1.0000
  N   N7        1.0  0.579192247068429  0.6540150916762227  0.42650132090237713  1.0000
  C   C169      1.0  0.5883432644384671  0.6992497949473094  0.43840158303304183  1.0000
  C   C170      1.0  0.6022345402714429  0.6392164017437207  0.4578991429403015  1.0000
  C   C171      1.0  0.5966323364999436  0.655705067457078  0.3822042387021013  1.0000
  C   C172      1.0  0.5296402138466232  0.6219774151965024  0.4275495175108134  1.0000
  H   H169      1.0  0.5716057341594155  0.7116463742830847  0.4154762063785455  1.0000
  H   H170      1.0  0.6254318900389721  0.7242396887534941  0.4381514548464704  1.0000
  H   H171      1.0  0.5755717815966522  0.6992720690919858  0.4716157281867578  1.0000
  H   H172      1.0  0.5955765085811398  0.6048871817300676  0.45045944190655046  1.0000
  H   H173      1.0  0.6397798935192418  0.6623302617639942  0.4576776519513663  1.0000
  H   H174      1.0  0.590435846830191  0.6382615980391139  0.49173633997630617  1.0000
  H   H175      1.0  0.5902130132032454  0.6221062074102267  0.37209941402841756  1.0000
  H   H176      1.0  0.6339563980655518  0.6795392654402244  0.3802981194474007  1.0000
  H   H177      1.0  0.5802768985154267  0.6670221200859013  0.3575340026301963  1.0000
  H   H178      1.0  0.5113181640575651  0.6311646391047431  0.4031585794819529  1.0000
  H   H179      1.0  0.515009646552046  0.6211098399145685  0.46004227398468517  1.0000
  H   H180      1.0  0.5214282912578225  0.5870149617943275  0.42057320641317025  1.0000
  N   N8        1.0  0.5447631638927872  0.8174869863914105  0.18286785236907255  1.0000
  C   C173      1.0  0.5371109474074675  0.8545772081059404  0.19445198626722338  1.0000
  C   C174      1.0  0.5922180209447617  0.8363739840906909  0.16832972433239457  1.0000
  C   C175      1.0  0.513558184591294  0.7910042726672475  0.14727779545033873  1.0000
  C   C176      1.0  0.5362621537209401  0.7880353272321873  0.22131623825082966  1.0000
  H   H181      1.0  0.5016720171234633  0.841613323227576  0.2057280189635664  1.0000
  H   H182      1.0  0.5432282784067619  0.8774142395748397  0.16609826907858363  1.0000
  H   H183      1.0  0.5603588362677456  0.875276758894211  0.22116883623685374  1.0000
  H   H184      1.0  0.6168442082521568  0.8567702837702343  0.1942027548387293  1.0000
  H   H185      1.0  0.5991320113707883  0.8092778053432998  0.15943165540296392  1.0000
  H   H186      1.0  0.599651843418143  0.8583413104330392  0.13901507528424942  1.0000
  H   H187      1.0  0.5182430709224426  0.7624708522454209  0.1381597469631895  1.0000
  H   H188      1.0  0.5198566235978297  0.8118925477590837  0.11730845585734229  1.0000
  H   H189      1.0  0.4773903745213465  0.776714254461741  0.15665028991095314  1.0000
  H   H190      1.0  0.5576607736384561  0.8073428914615611  0.2495126156155178  1.0000
  H   H191      1.0  0.5440603640534976  0.7609826084851387  0.2144546003646379  1.0000
  H   H192      1.0  0.5002333370693761  0.771466465784503  0.23197275945493945  1.0000
  N   N9        1.0  0.9099697352124814  0.5115145793134771  0.8434255782512484  1.0000
  C   C177      1.0  0.9482335294056662  0.555231607077012  0.8576398420066902  1.0000
  C   C178      1.0  0.9192384584616449  0.4753776411829076  0.8559381269500208  1.0000
  C   C179      1.0  0.9047221729017175  0.5124839726527594  0.7956859963773031  1.0000
  C   C180      1.0  0.8676504138187928  0.5031499537463305  0.86459548505302  1.0000
  H   H193      1.0  0.9807400505844583  0.5627334192213465  0.8423100437938825  1.0000
  H   H194      1.0  0.9531510592460462  0.555789127308307  0.8935189223204767  1.0000
  H   H195      1.0  0.942279286154977  0.5832891962589363  0.8490496375712638  1.0000
  H   H196      1.0  0.9234201511331432  0.4742461610762783  0.8919501878095791  1.0000
  H   H197      1.0  0.890954026333317  0.44178597410371745  0.8460499478879944  1.0000
  H   H198      1.0  0.9509948126709988  0.4805525113796039  0.8406838541744466  1.0000
  H   H199      1.0  0.8976154937371389  0.5395900616424868  0.785716310190464  1.0000
  H   H200      1.0  0.8760707121167206  0.4800826539361537  0.7837257656290194  1.0000
  H   H201      1.0  0.9360745598436885  0.518950628388372  0.7785361579562526  1.0000
  H   H202      1.0  0.8379609480029915  0.4706690401872793  0.8543269425274563  1.0000
  H   H203      1.0  0.8599355579166311  0.5301545921724485  0.8564404749165492  1.0000
  H   H204      1.0  0.8702633075881486  0.5018532066808867  0.9006629652498733  1.0000
  N   N10       1.0  0.08050528533601674  0.25835396272407307  0.9988846185595722  1.0000
  C   C181      1.0  0.11515439233141075  0.2565991456260126  0.9718139015571099  1.0000
  C   C182      1.0  0.034648132101879614  0.22736523194420166  0.9813631184741007  1.0000
  C   C183      1.0  0.08848956068378885  0.3046470697414829  0.9983357356264393  1.0000
  C   C184      1.0  0.08362476100856864  0.24484861743175398  0.04408188046659834  1.0000
  H   H205      1.0  0.15014712796693144  0.2805252144357778  0.9835728414654445  1.0000
  H   H206      1.0  0.113232841940216  0.26575664283821276  0.937332435493186  1.0000
  H   H207      1.0  0.11109404548394536  0.2224887956151654  0.9724034738332601  1.0000
  H   H208      1.0  0.007794335555839326  0.22778913882763713  0.0014320488148509283  1.0000
  H   H209      1.0  0.03068063761129624  0.2369084057270444  0.9475803708942757  1.0000
  H   H210      1.0  0.027370777454527703  0.1920852086169247  0.9810853986082987  1.0000
  H   H211      1.0  0.06212300374835698  0.3068083527806627  0.017286773136243383  1.0000
  H   H212      1.0  0.08769776425000607  0.3165524860269534  0.9647040022265747  1.0000
  H   H213      1.0  0.1219741846772137  0.32886914045741805  0.012812233841901001  1.0000
  H   H214      1.0  0.05832423696446607  0.2463175757030803  0.06555221610820489  1.0000
  H   H215      1.0  0.11770357222425573  0.26729164393476545  0.058392909032564874  1.0000
  H   H216      1.0  0.07731277822483656  0.2099191796097058  0.04579366872779235  1.0000
  N   N11       1.0  0.6249490317618891  0.5107569204266363  0.9818266955223275  1.0000
  C   C185      1.0  0.5969224507677873  0.4613756235414649  0.9868674561691323  1.0000
  C   C186      1.0  0.6735473741827406  0.5243924223101362  0.9800453184738112  1.0000
  C   C187      1.0  0.6172500935056576  0.5324952197243495  0.019288811995442415  1.0000
  C   C188      1.0  0.6120769306934076  0.5248266983928392  0.9410754267573485  1.0000
  H   H217      1.0  0.6056166908680625  0.44952948934341086  0.017336991768255986  1.0000
  H   H218      1.0  0.6017292053206318  0.4438215943962637  0.9591091888755158  1.0000
  H   H219      1.0  0.559992941462586  0.4500814479398219  0.9881319883902019  1.0000
  H   H220      1.0  0.6849546034310653  0.5151317874761536  0.010526001021455846  1.0000
  H   H221      1.0  0.6808542211986136  0.508424264946108  0.9525129575139029  1.0000
  H   H222      1.0  0.6955758493228462  0.5614781896491525  0.9758354290297179  1.0000
  H   H223      1.0  0.6370262229366354  0.5698177465087715  0.016184904725715436  1.0000
  H   H224      1.0  0.627411350023039  0.5232457405419376  0.05049529343859028  1.0000
  H   H225      1.0  0.5808360200078576  0.5221756755955927  0.022288752993404607  1.0000
  H   H226      1.0  0.5754230164743721  0.5143724782089113  0.9409165708204192  1.0000
  H   H227      1.0  0.6179430089982628  0.5093800616382971  0.912138922741894  1.0000
  H   H228      1.0  0.6319811624422957  0.561971550427333  0.9365301443351902  1.0000
  N   N12       1.0  0.0344774350488722  0.28510946035019186  0.6910791120599473  1.0000
  C   C189      1.0  0.05811024839884115  0.26419143287101077  0.7128006330394248  1.0000
  C   C190      1.0  0.06533859153515419  0.3192468955624102  0.6592338527787478  1.0000
  C   C191      1.0  0.020579250840794133  0.30672313759154113  0.7239162156650731  1.0000
  C   C192      1.0  0.9937736188581796  0.25018829583862096  0.6682431278888241  1.0000
  H   H229      1.0  0.03562601863803153  0.238150455798878  0.7369265794750155  1.0000
  H   H230      1.0  0.08905185265747821  0.289635065519378  0.7303387712500684  1.0000
  H   H231      1.0  0.06901918929887749  0.2476501590968253  0.6887767433629857  1.0000
  H   H232      1.0  0.04845740217965309  0.3356048443891477  0.6422493451626784  1.0000
  H   H233      1.0  0.09661201870771237  0.34621698998885  0.6750348803454214  1.0000
  H   H234      1.0  0.07601364123368637  0.30397999794373903  0.6335987796119896  1.0000
  H   H235      1.0  0.0025039381720570963  0.32273954602659993  0.7085746217830236  1.0000
  H   H236      1.0  0.050292663645511944  0.33327917990589034  0.7419326717950125  1.0000
  H   H237      1.0  0.9966096674279095  0.28179931976838885  0.7480952178406226  1.0000
  H   H238      1.0  0.9757176581722377  0.2650843262920412  0.651068903209609  1.0000
  H   H239      1.0  0.9690152671001289  0.224320575215168  0.6912337278120263  1.0000
  H   H240      1.0  0.00276599748873611  0.23309658739928096  0.6430578310609268  1.0000
  N   N13       1.0  0.35493738156360655  0.467216452714631  0.07652873235849571  1.0000
  C   C193      1.0  0.39308665983186913  0.4988237862843353  0.10441977057641993  1.0000
  C   C194      1.0  0.3323402017271161  0.4904145027063896  0.057356959450962315  1.0000
  C   C195      1.0  0.3219690260850469  0.42835779135154656  0.1030126049352675  1.0000
  C   C196      1.0  0.3723806398648932  0.4512845193266587  0.04132823939897329  1.0000
  H   H241      1.0  0.4114971650601487  0.48282886162220745  0.11901271791980579  1.0000
  H   H242      1.0  0.3812205294850155  0.5112112740185304  0.13163494005673382  1.0000
  H   H243      1.0  0.41850596298004367  0.5287507613748591  0.08554605748793205  1.0000
  H   H244      1.0  0.30338889818813514  0.46766230017965943  0.03607110672252216  1.0000
  H   H245      1.0  0.3183019247009425  0.5024748741765557  0.08294661754354496  1.0000
  H   H246      1.0  0.3562995309202311  0.5199068083579128  0.03716401535607356  1.0000
  H   H247      1.0  0.2935055274698754  0.40330126132656685  0.08265632131451567  1.0000
  H   H248      1.0  0.30693735492027635  0.4388022182123747  0.1291205032280572  1.0000
  H   H249      1.0  0.33817907743116815  0.4106999774521862  0.11877455210606129  1.0000
  H   H250      1.0  0.3990008462541936  0.4797947203142331  0.021816997293188093  1.0000
  H   H251      1.0  0.3448547211455081  0.42885427641708945  0.018558654649096562  1.0000
  H   H252      1.0  0.3876235217937174  0.4316955292638128  0.05458823806206119  1.0000
  N   N14       1.0  0.7744611993311183  0.019204783311569915  0.38892002218982036  1.0000
  C   C197      1.0  0.765699121972684  0.9765093134858921  0.4093148000238441  1.0000
  C   C198      1.0  0.734502178937597  0.024473409674695953  0.39480195110337923  1.0000
  C   C199      1.0  0.7828314261241286  0.018477208428511662  0.34191087928702274  1.0000
  C   C200      1.0  0.8145141979310535  0.05715493563400322  0.4097549768123095  1.0000
  H   H253      1.0  0.7352510823919906  0.9471570330885578  0.3947722945829837  1.0000
  H   H254      1.0  0.7595433429095229  0.9759948371545073  0.4448883185838393  1.0000
  H   H255      1.0  0.7949190156133167  0.9711035361805003  0.4051776860950105  1.0000
  H   H256      1.0  0.739790239800729  0.056295629793815284  0.3798092149772377  1.0000
  H   H257      1.0  0.703547951847767  0.9962503336100212  0.3796651508208965  1.0000
  H   H258      1.0  0.7272217142691928  0.025152423874327486  0.42992767627073275  1.0000
  H   H259      1.0  0.7893537390425699  0.05007144010784581  0.32531438217587777  1.0000
  H   H260      1.0  0.7529101003478298  0.98996490360024  0.32563768090739625  1.0000
  H   H261      1.0  0.8126873686764828  0.014394377170219253  0.33615546176543887  1.0000
  H   H262      1.0  0.821964845711677  0.09000418037681426  0.3954300923004757  1.0000
  H   H263      1.0  0.8453910064113348  0.05435257964493911  0.406099516648543  1.0000
  H   H264      1.0  0.8088504605161152  0.05825599019792456  0.4453191943347489  1.0000
  N   N15       1.0  0.11093049722704129  0.7973648204990279  0.15187514780221478  1.0000
  C   C201      1.0  0.10359492132380121  0.7909482727566142  0.19940131919507126  1.0000
  C   C202      1.0  0.15711523652719395  0.8066375236301755  0.14160093658976045  1.0000
  C   C203      1.0  0.10621194074094786  0.83582715537123  0.13729137759877275  1.0000
  C   C204      1.0  0.07702013700257648  0.756238467101068  0.12919534135269511  1.0000
  H   H265      1.0  0.06887562138231251  0.7833573053496944  0.20837684269045564  1.0000
  H   H266      1.0  0.12840095320107503  0.821633102059375  0.21733547084893654  1.0000
  H   H267      1.0  0.10777248298915687  0.7627304963029774  0.2117724036158472  1.0000
  H   H268      1.0  0.16355823416856174  0.8107891316574658  0.10600007259135108  1.0000
  H   H269      1.0  0.1835059712337379  0.838191400598932  0.15715887184705327  1.0000
  H   H270      1.0  0.1624177052868696  0.778860990459427  0.15294488477185278  1.0000
  H   H271      1.0  0.13138323129820328  0.8674526621078709  0.15377173176497302  1.0000
  H   H272      1.0  0.07162568004538095  0.829925591331107  0.14412224777194368  1.0000
  H   H273      1.0  0.11191800737721924  0.841824338219365  0.1016449200120981  1.0000
  H   H274      1.0  0.08208173024623577  0.759802504613256  0.09332167400423755  1.0000
  H   H275      1.0  0.04170258884996603  0.7486254749357469  0.13537262780024875  1.0000
  H   H276      1.0  0.07933875819074387  0.7264581160512714  0.13967168804947624  1.0000
  N   N16       1.0  0.4067280822861132  0.3291900493329915  0.6384396610525811  1.0000
  C   C205      1.0  0.3815934960157481  0.32672377004435355  0.6783334595107473  1.0000
  C   C206      1.0  0.45584869543238393  0.3606611741890197  0.6452077948278545  1.0000
  C   C207      1.0  0.3904606650548917  0.345377216246315  0.6015532400612901  1.0000
  C   C208      1.0  0.39903172821208  0.2839888216730865  0.6286500504568898  1.0000
  H   H277      1.0  0.34440431096920515  0.3032705095877303  0.674351504050758  1.0000
  H   H278      1.0  0.38665735497439196  0.36022732457590884  0.6868450858526151  1.0000
  H   H279      1.0  0.392902405715018  0.3145259524310035  0.7069194973308437  1.0000
  H   H280      1.0  0.4630138165816391  0.3953048061274014  0.6520174815207354  1.0000
  H   H281      1.0  0.46924463763141416  0.34985584252028484  0.673123256123949  1.0000
  H   H282      1.0  0.4759571866457905  0.36303693270735055  0.6158945994971782  1.0000
  H   H283      1.0  0.40884791009672505  0.3477301531546132  0.5709938477807407  1.0000
  H   H284      1.0  0.3957136576349137  0.3794363295377656  0.6077209250126547  1.0000
  H   H285      1.0  0.35351144725426065  0.3224216297086959  0.5952540167159378  1.0000
  H   H286      1.0  0.36242158522200624  0.2596339631672325  0.6223701991632815  1.0000
  H   H287      1.0  0.4100231425582365  0.2702798795458053  0.6561529425059452  1.0000
  H   H288      1.0  0.4181440588740446  0.2846278099652865  0.5992060593611839  1.0000
  N   N17       1.0  0.7148738712525458  0.7407110938332861  0.6746658102830113  1.0000
  C   C209      1.0  0.7426602133793759  0.7315438327839685  0.6446061537689779  1.0000
  C   C210      1.0  0.7381527185047557  0.7542591809510583  0.7172832412425335  1.0000
  C   C211      1.0  0.6699748874061603  0.6996301590073543  0.6803830624770892  1.0000
  C   C212      1.0  0.7087906611319655  0.7771920183261605  0.6563562659598591  1.0000
  H   H289      1.0  0.7255022731152698  0.7196097955422686  0.6126102472955277  1.0000
  H   H290      1.0  0.7490613714772851  0.7051769201757793  0.6580943473960942  1.0000
  H   H291      1.0  0.7763118105742542  0.7620028045696795  0.6383248954422595  1.0000
  H   H292      1.0  0.7428803273240204  0.727042336026619  0.7318044271026268  1.0000
  H   H293      1.0  0.7724807969457453  0.7847011840389998  0.7141524843604654  1.0000
  H   H294      1.0  0.7183031080146948  0.7615713496586928  0.7408971894502444  1.0000
  H   H295      1.0  0.6482378339856404  0.7050448837477311  0.7033298657280346  1.0000
  H   H296      1.0  0.6734376103579656  0.6712121519596788  0.6935423840772373  1.0000
  H   H297      1.0  0.651278899857638  0.6885406952692442  0.6489429174482387  1.0000
  H   H298      1.0  0.6872029062676414  0.7844946465625766  0.6776917745887194  1.0000
  H   H299      1.0  0.6920801058406595  0.7681253870551749  0.6237833009021425  1.0000
  H   H300      1.0  0.7419764474187529  0.8088025848336186  0.6519617665931327  1.0000
  N   N18       1.0  0.2516062559287665  0.23733825032420983  0.3874411273262041  1.0000
  C   C213      1.0  0.2972430579234413  0.2550432509443504  0.4068868576401717  1.0000
  C   C214      1.0  0.2172674595364777  0.2216277890285524  0.4224199666543057  1.0000
  C   C215      1.0  0.2415874736830243  0.19949231597275172  0.35856421990296466  1.0000
  C   C216      1.0  0.25041639630291146  0.2733871907885998  0.36199427604467627  1.0000
  H   H301      1.0  0.3241605789580536  0.26757260905817526  0.38156546776820766  1.0000
  H   H302      1.0  0.2994416137672919  0.2289494090427512  0.42674847890110446  1.0000
  H   H303      1.0  0.3056925290805629  0.2835810956881436  0.42887488478394725  1.0000
  H   H304      1.0  0.21875790971058698  0.19611017160744706  0.4438700187124464  1.0000
  H   H305      1.0  0.22285018140446067  0.24983952948016785  0.44372081233774247  1.0000
  H   H306      1.0  0.18222652120595365  0.20664231039300932  0.4090069898937583  1.0000
  H   H307      1.0  0.24204148922930827  0.17164875735300336  0.37690780515967487  1.0000
  H   H308      1.0  0.26704484144758384  0.21028051151019775  0.33193188352728475  1.0000
  H   H309      1.0  0.20750216169092736  0.1855629808968853  0.34308525725682154  1.0000
  H   H310      1.0  0.21647098105298537  0.26177188445166855  0.3470282115754908  1.0000
  H   H311      1.0  0.27598221170062587  0.28656018765536057  0.33534418183527565  1.0000
  H   H312      1.0  0.258086258670248  0.3024483301388482  0.38291503255027576  1.0000
  N   N19       1.0  0.6565393523171035  0.17527253924325398  0.04981151888892492  1.0000
  C   C217      1.0  0.6452409468063488  0.20962432078961235  0.062457834436130524  1.0000
  C   C218      1.0  0.6174601252074646  0.1299037619621557  0.05897405476927447  1.0000
  C   C219      1.0  0.6967531116883395  0.18176906856582842  0.07462482335951659  1.0000
  C   C220      1.0  0.6668073556240475  0.1797567295962597  0.002844296143331482  1.0000
  H   H313      1.0  0.6740435172587047  0.24418457016522246  0.055690375314957435  1.0000
  H   H314      1.0  0.6372795381195394  0.207245385335389  0.09776356950825063  1.0000
  H   H315      1.0  0.6151138507732353  0.20562015245621676  0.04409722770554146  1.0000
  H   H316      1.0  0.6247336494142809  0.10317036911514138  0.049285218026356124  1.0000
  H   H317      1.0  0.6085702308767373  0.12498557499142593  0.09411309218755738  1.0000
  H   H318      1.0  0.5866957284837048  0.12374900771101098  0.040299289956204534  1.0000
  H   H319      1.0  0.7064022302250489  0.15656921102750812  0.06549775833657968  1.0000
  H   H320      1.0  0.6905768254949713  0.17872100586498912  0.11028662894090548  1.0000
  H   H321      1.0  0.7270940085667519  0.21540969695829454  0.06779774051778961  1.0000
  H   H322      1.0  0.6750189997763704  0.15403539539739508  0.9926746474388168  1.0000
  H   H323      1.0  0.6967574096378347  0.21313500727407744  0.9944960837222693  1.0000
  H   H324      1.0  0.6373160581695758  0.17477374761021133  0.9827250755311134  1.0000
  N   N20       1.0  0.8260185132055227  0.458867856919239  0.535445423606322  1.0000
  C   C221      1.0  0.8387180937207377  0.4894835251771153  0.49732979711468955  1.0000
  C   C222      1.0  0.8359221425463812  0.4227446488256718  0.5261835005411729  1.0000
  C   C223      1.0  0.77704731238168  0.4391880211869967  0.54443126819374  1.0000
  C   C224      1.0  0.8524757159670628  0.48417541551885834  0.5739128705555352  1.0000
  H   H325      1.0  0.8300647186143063  0.5161618268694672  0.5024336379905339  1.0000
  H   H326      1.0  0.8205386534334617  0.47117923167756626  0.467426057712095  1.0000
  H   H327      1.0  0.8758886430673686  0.5065693691414925  0.49076003221349507  1.0000
  H   H328      1.0  0.8286658346568555  0.3999739480207191  0.5548410133133506  1.0000
  H   H329      1.0  0.8155647831674054  0.40189160941272595  0.49825893809383565  1.0000
  H   H330      1.0  0.8724768067064737  0.4368702873822458  0.5180898033591875  1.0000
  H   H331      1.0  0.7663353917377771  0.41594025345859975  0.5730279714463317  1.0000
  H   H332      1.0  0.7558916721011876  0.420070861135182  0.5160755768197856  1.0000
  H   H333      1.0  0.768837533557595  0.4659294631579159  0.551692411857165  1.0000
  H   H334      1.0  0.8450908024320631  0.46171747526432927  0.6027981735944273  1.0000
  H   H335      1.0  0.8447126207427316  0.5107766693978714  0.5828304511459188  1.0000
  H   H336      1.0  0.8895701358260096  0.5007267148748611  0.5678115691498171  1.0000
  N   N21       1.0  0.5150264888032031  0.15372996406995024  0.48276906829593513  1.0000
  C   C225      1.0  0.4806578725298396  0.163546668456311  0.4645276346544529  1.0000
  C   C226      1.0  0.5234387064313949  0.16728909002804185  0.5288620700685971  1.0000
  C   C227      1.0  0.557840661082417  0.17912125086848538  0.45808380208320143  1.0000
  C   C228      1.0  0.49826059178410254  0.10502449348044161  0.47980276986652576  1.0000
  H   H337      1.0  0.47340580670365623  0.15396623568165918  0.42970482779838043  1.0000
  H   H338      1.0  0.4918477589162331  0.19990813000284455  0.46695980376644275  1.0000
  H   H339      1.0  0.4479149611816841  0.14499076012312276  0.482436166987642  1.0000
  H   H340      1.0  0.5488154031391564  0.1599555896816562  0.5440091070368628  1.0000
  H   H341      1.0  0.5358593156055459  0.20376114799499484  0.5326112495835813  1.0000
  H   H342      1.0  0.4917837024557056  0.14860534209456255  0.5481861652794823  1.0000
  H   H343      1.0  0.5845171455725976  0.17257568548212263  0.47125516424301533  1.0000
  H   H344      1.0  0.5714211546899932  0.21600303967841508  0.4596730848508625  1.0000
  H   H345      1.0  0.5527884038470631  0.16959583381361382  0.423140686867135  1.0000
  H   H346      1.0  0.4663534266464397  0.08481860062824789  0.4986432498425487  1.0000
  H   H347      1.0  0.5233870432223846  0.09648772532707281  0.49342031383109897  1.0000
  H   H348      1.0  0.4911371049654981  0.09329655563547785  0.4455592917946169  1.0000
  N   N22       1.0  0.2775171312557109  0.8350763770204631  0.3993972992617381  1.0000
  C   C229      1.0  0.23087248708365868  0.8272111480864549  0.4018183342870273  1.0000
  C   C230      1.0  0.27789045500750986  0.7947111224630397  0.4156171929359495  1.0000
  C   C231      1.0  0.30802867141102946  0.8740366140604838  0.4266046816817922  1.0000
  C   C232      1.0  0.29286030586531514  0.8441064489988996  0.3536109115480409  1.0000
  H   H349      1.0  0.228703885337851  0.8561497456348681  0.3882457617743346  1.0000
  H   H350      1.0  0.21880036911092293  0.8220775592668735  0.4359755790010187  1.0000
  H   H351      1.0  0.20664185770191992  0.7966729160211292  0.383424336631529  1.0000
  H   H352      1.0  0.25517047661092435  0.7646347661965065  0.3958229226341712  1.0000
  H   H353      1.0  0.3126646803913379  0.7995015455862542  0.4147466189119712  1.0000
  H   H354      1.0  0.265826268145968  0.7866501359713223  0.4499378689043262  1.0000
  H   H355      1.0  0.29718687919841413  0.8678988931708695  0.46137549773494135  1.0000
  H   H356      1.0  0.30806996222456867  0.9049588596578451  0.41568675058113214  1.0000
  H   H357      1.0  0.34366825382765437  0.8811114275811746  0.42553861067959453  1.0000
  H   H358      1.0  0.27015407682115866  0.8152654852696587  0.33237557174818794  1.0000
  H   H359      1.0  0.3279806627024212  0.8501852819191812  0.35032689299977204  1.0000
  H   H360      1.0  0.29257389418307544  0.8741480871077375  0.3401996307041266  1.0000
  N   N23       1.0  0.47908235003709576  0.06691887481455311  0.7368016643231584  1.0000
  C   C233      1.0  0.43613269458949433  0.04851212289435256  0.7613779371666681  1.0000
  C   C234      1.0  0.48662601792210547  0.10696326590422456  0.7117787308103692  1.0000
  C   C235      1.0  0.47614487453653237  0.032633319056552576  0.7064368475714347  1.0000
  C   C236      1.0  0.5172999741708545  0.0797246975604933  0.7674206106524394  1.0000
  H   H361      1.0  0.4292638282615977  0.018377580406480763  0.7809800098116241  1.0000
  H   H362      1.0  0.4066191058858164  0.03859826281203981  0.7391385720096525  1.0000
  H   H363      1.0  0.43689623844756165  0.07391467253620886  0.783929393787543  1.0000
  H   H364      1.0  0.518191488454449  0.1214439546490384  0.6919604557957681  1.0000
  H   H365      1.0  0.45799028643793865  0.09819096490144479  0.6890035774880071  1.0000
  H   H366      1.0  0.4888966735429409  0.13368281545915406  0.7334209073724259  1.0000
  H   H367      1.0  0.5077686095050298  0.0456540786891361  0.6868629823669008  1.0000
  H   H368      1.0  0.4477537159461549  0.022435725651107553  0.6827120659828745  1.0000
  H   H369      1.0  0.4704795687388044  0.0018154766427326246  0.7240052947191973  1.0000
  H   H370      1.0  0.5127746433309158  0.050296597005607034  0.7869299643031178  1.0000
  H   H371      1.0  0.5204329624961939  0.10561382882216484  0.790724281364158  1.0000
  H   H372      1.0  0.5502382494280096  0.09393226441159433  0.7498767696366927  1.0000
  N   N24       1.0  0.06472274713251881  0.7826871482196609  0.576329752347498  1.0000
  C   C237      1.0  0.1068216930158243  0.7824274500092956  0.5876587128913509  1.0000
  C   C238      1.0  0.06975111249148556  0.8035984752560718  0.5328809269532563  1.0000
  C   C239      1.0  0.05642006343813423  0.8087704769758701  0.6089611409231678  1.0000
  C   C240      1.0  0.025835567762510163  0.7360562787139772  0.5757765149583061  1.0000
  H   H373      1.0  0.10395687585552982  0.7658998373003638  0.6197611445424065  1.0000
  H   H374      1.0  0.1366852197536379  0.8171651874612288  0.5892665409511372  1.0000
  H   H375      1.0  0.11488703669560114  0.7640926616719328  0.5630528779143177  1.0000
  H   H376      1.0  0.07708593262962528  0.7853312263756433  0.5076511650142441  1.0000
  H   H377      1.0  0.0379923145126631  0.8028140881232694  0.5224482134322582  1.0000
  H   H378      1.0  0.09792892516978652  0.8392233599392993  0.532298816122253  1.0000
  H   H379      1.0  0.024919814720168906  0.8096503973138032  0.6012223446026296  1.0000
  H   H380      1.0  0.08510753499359562  0.8441776706547433  0.6102327383494559  1.0000
  H   H381      1.0  0.05235947954932477  0.7938676395886779  0.6421544792597134  1.0000
  H   H382      1.0  0.9935733765625105  0.7349931958527196  0.5668292427850904  1.0000
  H   H383      1.0  0.02077923373330866  0.7190505714922744  0.6079692695332722  1.0000
  H   H384      1.0  0.030757056245957114  0.7154546790792023  0.5513354834434463  1.0000
