data_image0
_chemical_formula_structural       FeS2FeSFeSCS2FeS2FeHFeSHSHSHS2H3C6H2CSFeH2CHC6H4C6H3CHFeHCH3CHC2H2FeHCHNH2SH2SH4C3H6NC4H8CH3NC2H6NC4H3CH2SCH4SH2C2NH2SH2CFeHCFeC2HCS2HCH6NH2C2H4SCH2NC2HFeH3CH3CNH9C3SH3CSH7CHCHCFeNFe2HCFeCHCHCHSC2H2S2HSFeHCSCHCHSCHC2S2HSHCH3C3SH2C2FeSC3H2SCNH2SFeSHSFeS2FeS2FeSFeS3NS2H2FeSHSC6H4C6H4C6H4FeHCH5CH4SHCH3C3SH3C2HNC2HCH7CHC2FeHCH3NC4H12NC4SH8FeHCHNH3CH4CHCH3CH2SFeSHSFeS2FeS2FeSFeS3HS2H2FeSHSC6H4C6H4C6H7CH2CH7CH6CHFeHNH2C2H2FeH3C2H2NC2FeCSH2C2SHCHC2SHCH2CHNHCH2CHSH2FeS2FeS2FeSFeHSHFeS2FeS2FeSFeS3FeS2FeS2FeSFeS3HSHC2H2CSH3C7H4CH2C6H4C6H4C5H5C6H4CH2CH5NHC3H7CH2CHC2H2SC3NC4H11NC4H12CNH3CFeH5CH2CNHSH4NCHCSHC3H3CH6CH2SH4SFeS2FeSFeHSHFeS2FeS2FeSFeS3FeS2FeS2FeSFeS3CS2CHC3H3CHC6HCH5C6H4C6H5C4H4SC6H7C3H3NC4H13CH5CH4C2NCH2CFeHNH3SC2H3CH6CSH2NCHCH3C2H2NCH3CH3Fe2NC3HCHCH3SH8C2HSH2CHCH5NSHSFeSFeS2FeHC2HNC2HS2HC3H2C3H3CH2CHCH6CH5CFeC2H2C2NHC7H3FeHCHSCSFeSFeSH3C3NC2H2SHCHCH2CH3CHC2HFeHC2H2FeCHSH3C2HC3HC2NCHCH5NH3SCH2CH5SC2HSHCH3SCH5C2HC4H5NCHC2H7SCFeH2CHSH3CH2NC2H3C2NHCSC3H2SCHFeH5CHC6H3SHC3SH2FeCH2CH3C2HSCH4SCFeS2FeS2FeCFeS3H2SCFe2S2FeS2FeSFeS3FeS2FeHSFeSHS3FeSFeHS2NCHC6H4C6H4C6H4CNCH3C3HCH2CHC3SC2HCH2C6H7CHCH2SNHCHC3HCH2CHCH2CHCHFeHSH2C3H2SH2CNHNCH14SH3C2HCH8CH4NH5CNH2CH3C2H6CH3FeH4C2H2CH2CHCH3SH7CHCNCSCH2CFeCFeC2HCH2CH2CHNH3FeS2FeS2FeHFeS3FeCSHCFeS2FeS2FeSFeS3FeS2FeCSFeSCS3FeSFeS3HC8H4C6H4C6H4CHCH3C3H6C3HC2H4C6H5FeCH2NC4H11NHSC2HNH2CHCSCH2SHCHNH10CH5NC4H13FeH2SCH2C2HCHC2NH2CH6CHCHC4H3CHSHSFeSFeS2FeS2FeSFeS3FeHNS2FeSHSC6H4C6H4C6H4CH2CHSCSH2CSH4C2HCNCH8NHNHCH3CHCHCFeHC2H2NC4H12CHC3H3CHFeHCHCH5SCH3SCH3SCHFeSFeS2FeS2FeSFeS3H2CSHFeSCSC6H4C6H4C6H7NHSH2SHC2H2FeH3C3HCSHFeC3NCH6C2H4CNC4H12CFeH3CH5CH4C2H3CH3SFeS2CS2FeHFeSHSFeS2FeSCSHSH3SH4C5HCH3C6H4C6H4C2FeH2CS3CHCH2CFeH2CH2FeH2NC3H8NH2C2H3SH2C2HCH3NCH2C2H3NH4CHSCH2NC2FeS2HS2FeCFeSCSFeS2FeSHSFeSC2S2CH3NHC4H3C7H4C6H4CHCH3CH2CH2FeCH2CH2C2NSH3NC4H12CHCH2SH5CH4FeH8NCH4CFeSH3NCHC
_chemical_formula_sum              "Fe144 S288 C720 H1152 N72"
_cell_length_a       65.304
_cell_length_b       64.493
_cell_length_c       40.4654
_cell_angle_alpha    90.7189
_cell_angle_beta     89.156
_cell_angle_gamma    117.273

_space_group_name_H-M_alt    "P 1"
_space_group_IT_number       1

loop_
  _space_group_symop_operation_xyz
  'x, y, z'

loop_
  _atom_site_type_symbol
  _atom_site_label
  _atom_site_symmetry_multiplicity
  _atom_site_fract_x
  _atom_site_fract_y
  _atom_site_fract_z
  _atom_site_occupancy
  Fe  Fe1       1.0  0.19544  0.31363  0.31815  1.0000
  S   S1        1.0  0.17279  0.27830  0.29645  1.0000
  S   S2        1.0  0.18544  0.32903  0.36313  1.0000
  Fe  Fe2       1.0  0.18733  0.29547  0.24737  1.0000
  S   S3        1.0  0.16505  0.28357  0.20098  1.0000
  Fe  Fe3       1.0  0.20417  0.27250  0.29953  1.0000
  S   S4        1.0  0.20883  0.33154  0.26880  1.0000
  C   C1        1.0  0.22350  0.21665  0.35050  1.0000
  S   S5        1.0  0.10535  0.33318  0.02787  1.0000
  S   S6        1.0  0.09424  0.28239  0.45286  1.0000
  Fe  Fe4       1.0  0.04173  0.28947  0.05045  1.0000
  S   S7        1.0  0.06045  0.32540  0.07232  1.0000
  S   S8        1.0  0.00319  0.27144  0.06170  1.0000
  Fe  Fe5       1.0  0.07324  0.33725  0.02088  1.0000
  H   H1        1.0  0.14062  0.28825  0.35335  1.0000
  Fe  Fe6       1.0  0.09039  0.31744  0.07736  1.0000
  S   S9        1.0  0.11012  0.32878  0.12566  1.0000
  H   H2        1.0  0.10571  0.27026  0.38941  1.0000
  S   S10       1.0  0.07102  0.28064  0.05832  1.0000
  H   H3        1.0  0.19492  0.27501  0.40223  1.0000
  S   S11       1.0  0.03852  0.40510  0.40138  1.0000
  H   H4        1.0  0.00678  0.23493  0.09989  1.0000
  S   S12       1.0  0.05296  0.30186  0.99833  1.0000
  S   S13       1.0  0.00611  0.44196  0.38313  1.0000
  H   H5        1.0  0.18006  0.30479  0.06432  1.0000
  H   H6        1.0  0.11714  0.26509  0.07048  1.0000
  H   H7        1.0  0.07625  0.30102  0.18684  1.0000
  C   C2        1.0  0.01865  0.35686  0.47469  1.0000
  C   C3        1.0  0.01799  0.37068  0.44851  1.0000
  C   C4        1.0  0.03842  0.38640  0.43303  1.0000
  C   C5        1.0  0.05944  0.38784  0.44356  1.0000
  C   C6        1.0  0.98607  0.46498  0.26509  1.0000
  C   C7        1.0  0.97793  0.22239  0.13422  1.0000
  H   H8        1.0  0.00169  0.36926  0.44044  1.0000
  H   H9        1.0  0.07536  0.40032  0.43210  1.0000
  C   C8        1.0  0.15275  0.25083  0.42908  1.0000
  S   S14       1.0  0.07581  0.37076  0.99947  1.0000
  Fe  Fe7       1.0  0.98741  0.42921  0.33483  1.0000
  H   H10       1.0  0.02082  0.42551  0.44914  1.0000
  H   H11       1.0  0.07448  0.31288  0.36307  1.0000
  C   C9        1.0  0.99352  0.47847  0.46973  1.0000
  H   H12       1.0  0.15845  0.32351  0.03870  1.0000
  C   C10       1.0  0.14942  0.29626  0.18124  1.0000
  C   C11       1.0  0.15171  0.31823  0.19019  1.0000
  C   C12       1.0  0.13952  0.32789  0.17295  1.0000
  C   C13       1.0  0.12500  0.31578  0.14658  1.0000
  C   C14       1.0  0.12236  0.29364  0.13800  1.0000
  C   C15       1.0  0.13457  0.28398  0.15520  1.0000
  H   H13       1.0  0.16305  0.32787  0.21016  1.0000
  H   H14       1.0  0.14157  0.34499  0.17992  1.0000
  H   H15       1.0  0.11074  0.28388  0.11844  1.0000
  H   H16       1.0  0.13246  0.26683  0.14844  1.0000
  C   C16       1.0  0.15993  0.31580  0.38775  1.0000
  C   C17       1.0  0.15919  0.32571  0.41866  1.0000
  C   C18       1.0  0.13939  0.31563  0.43913  1.0000
  C   C19       1.0  0.12002  0.29551  0.42881  1.0000
  C   C20       1.0  0.12069  0.28569  0.39779  1.0000
  C   C21       1.0  0.14048  0.29578  0.37733  1.0000
  H   H17       1.0  0.17412  0.34124  0.42692  1.0000
  H   H18       1.0  0.13918  0.32340  0.46291  1.0000
  H   H19       1.0  0.16128  0.27042  0.00722  1.0000
  C   C22       1.0  0.01921  0.43782  0.46724  1.0000
  H   H20       1.0  0.09876  0.36458  0.37593  1.0000
  Fe  Fe8       1.0  0.00614  0.40704  0.38539  1.0000
  H   H21       1.0  0.18720  0.26360  0.36093  1.0000
  C   C23       1.0  0.16332  0.28886  0.06762  1.0000
  H   H22       1.0  0.13570  0.24823  0.36830  1.0000
  H   H23       1.0  0.04631  0.31338  0.40639  1.0000
  H   H24       1.0  0.17608  0.22338  0.38069  1.0000
  C   C24       1.0  0.18039  0.26706  0.38458  1.0000
  H   H25       1.0  0.21785  0.20375  0.33085  1.0000
  C   C25       1.0  0.00665  0.38675  0.00552  1.0000
  C   C26       1.0  0.06007  0.37356  0.46921  1.0000
  H   H26       1.0  0.16648  0.25797  0.44807  1.0000
  H   H27       1.0  0.98136  0.20873  0.14387  1.0000
  Fe  Fe9       1.0  0.08427  0.29696  0.00818  1.0000
  H   H28       1.0  0.05724  0.33075  0.44311  1.0000
  C   C27       1.0  0.98756  0.25440  0.09589  1.0000
  H   H29       1.0  0.22476  0.26832  0.37195  1.0000
  N   N1        1.0  0.14702  0.28649  0.04112  1.0000
  H   H30       1.0  0.06569  0.32569  0.15174  1.0000
  H   H31       1.0  0.10492  0.32887  0.37097  1.0000
  S   S15       1.0  0.20447  0.23879  0.31396  1.0000
  H   H32       1.0  0.18475  0.23523  0.42139  1.0000
  H   H33       1.0  0.13810  0.23503  0.43956  1.0000
  S   S16       1.0  0.99913  0.45072  0.28751  1.0000
  H   H34       1.0  0.00508  0.44139  0.45857  1.0000
  H   H35       1.0  0.01448  0.28568  0.20163  1.0000
  H   H36       1.0  0.01245  0.42939  0.02491  1.0000
  H   H37       1.0  0.13049  0.30576  0.02191  1.0000
  C   C28       1.0  0.14263  0.23575  0.37346  1.0000
  C   C29       1.0  0.21968  0.23629  0.34817  1.0000
  C   C30       1.0  0.99245  0.23733  0.10947  1.0000
  H   H38       1.0  0.98670  0.40712  0.04368  1.0000
  H   H39       1.0  0.17321  0.30159  0.00338  1.0000
  H   H40       1.0  0.15630  0.21189  0.41478  1.0000
  H   H41       1.0  0.17462  0.28044  0.37945  1.0000
  H   H42       1.0  0.07923  0.36558  0.40676  1.0000
  H   H43       1.0  0.06814  0.34747  0.37098  1.0000
  N   N2        1.0  0.04235  0.29107  0.16802  1.0000
  C   C31       1.0  0.05777  0.29113  0.19446  1.0000
  C   C32       1.0  0.04620  0.27991  0.13810  1.0000
  C   C33       1.0  0.04751  0.31535  0.16039  1.0000
  C   C34       1.0  0.01803  0.27793  0.17890  1.0000
  H   H44       1.0  0.01334  0.25937  0.18426  1.0000
  H   H45       1.0  0.05538  0.29942  0.21749  1.0000
  H   H46       1.0  0.05450  0.27309  0.20060  1.0000
  H   H47       1.0  0.04168  0.26130  0.14248  1.0000
  H   H48       1.0  0.03558  0.28042  0.11719  1.0000
  H   H49       1.0  0.06456  0.28894  0.12998  1.0000
  H   H50       1.0  0.04499  0.32443  0.18246  1.0000
  H   H51       1.0  0.03615  0.31593  0.14052  1.0000
  C   C35       1.0  0.12520  0.26494  0.04614  1.0000
  H   H52       1.0  0.00603  0.27779  0.15950  1.0000
  H   H53       1.0  0.03551  0.45443  0.46602  1.0000
  H   H54       1.0  0.99929  0.37713  0.02887  1.0000
  N   N3        1.0  0.16142  0.24546  0.39783  1.0000
  C   C36       1.0  0.99447  0.41598  0.01998  1.0000
  C   C37       1.0  0.16998  0.22824  0.40401  1.0000
  H   H55       1.0  0.02512  0.39902  0.00989  1.0000
  H   H56       1.0  0.08709  0.30376  0.39507  1.0000
  H   H57       1.0  0.14655  0.26410  0.42536  1.0000
  H   H58       1.0  0.14879  0.23181  0.34946  1.0000
  H   H59       1.0  0.15641  0.29027  0.09241  1.0000
  H   H60       1.0  0.12806  0.21929  0.38244  1.0000
  N   N4        1.0  0.08315  0.33430  0.40693  1.0000
  C   C38       1.0  0.10179  0.34368  0.43156  1.0000
  C   C39       1.0  0.06091  0.32029  0.42400  1.0000
  C   C40       1.0  0.08763  0.31936  0.38288  1.0000
  C   C41       1.0  0.08230  0.35382  0.38933  1.0000
  H   H61       1.0  0.11899  0.35374  0.41964  1.0000
  H   H62       1.0  0.10250  0.32942  0.44586  1.0000
  H   H63       1.0  0.09918  0.35536  0.44976  1.0000
  C   C42       1.0  0.14238  0.30687  0.04201  1.0000
  H   H64       1.0  0.06091  0.30507  0.43675  1.0000
  H   H65       1.0  0.12797  0.24915  0.04518  1.0000
  S   S17       1.0  0.99062  0.39578  0.33497  1.0000
  C   C43       1.0  0.15711  0.28532  0.00862  1.0000
  H   H66       1.0  0.11242  0.26280  0.02673  1.0000
  H   H67       1.0  0.07639  0.37522  0.47767  1.0000
  H   H68       1.0  0.13433  0.30815  0.06594  1.0000
  H   H69       1.0  0.00228  0.47748  0.44732  1.0000
  S   S18       1.0  0.21664  0.28613  0.24870  1.0000
  H   H70       1.0  0.01365  0.47850  0.22907  1.0000
  H   H71       1.0  0.16688  0.27356  0.06819  1.0000
  C   C44       1.0  0.99725  0.47750  0.23653  1.0000
  C   C45       1.0  0.03964  0.35804  0.48495  1.0000
  N   N5        1.0  0.99377  0.39915  0.99433  1.0000
  H   H72       1.0  0.98467  0.42541  0.01218  1.0000
  H   H73       1.0  0.00279  0.34519  0.48699  1.0000
  S   S19       1.0  0.22581  0.30648  0.32440  1.0000
  H   H74       1.0  0.99281  0.39310  0.48380  1.0000
  H   H75       1.0  0.97785  0.40988  0.49309  1.0000
  C   C46       1.0  0.99417  0.23896  0.60307  1.0000
  Fe  Fe10      1.0  0.99198  0.39419  0.87716  1.0000
  H   H76       1.0  0.99285  0.26417  0.67707  1.0000
  C   C47       1.0  0.98950  0.46944  0.76763  1.0000
  Fe  Fe11      1.0  0.98600  0.43033  0.83453  1.0000
  C   C48       1.0  0.98660  0.25244  0.65609  1.0000
  C   C49       1.0  0.99315  0.47559  0.97189  1.0000
  H   H77       1.0  0.98367  0.30708  0.51497  1.0000
  C   C50       1.0  0.99951  0.47968  0.73719  1.0000
  S   S20       1.0  0.00153  0.45409  0.78988  1.0000
  S   S21       1.0  0.97823  0.39287  0.82605  1.0000
  H   H78       1.0  0.99576  0.42224  0.95532  1.0000
  C   C51       1.0  0.99229  0.40642  0.50107  1.0000
  H   H79       1.0  0.98791  0.39858  0.52612  1.0000
  H   H80       1.0  0.97777  0.26645  0.51508  1.0000
  H   H81       1.0  0.99848  0.44886  0.51816  1.0000
  H   H82       1.0  0.98028  0.32040  0.55233  1.0000
  H   H83       1.0  0.00245  0.47388  0.95056  1.0000
  H   H84       1.0  0.00303  0.39961  0.94306  1.0000
  N   N6        1.0  0.97703  0.28596  0.55822  1.0000
  H   H85       1.0  0.22155  0.39500  0.69611  1.0000
  H   H86       1.0  0.00619  0.37379  0.98669  1.0000
  C   C52       1.0  0.00178  0.29471  0.56491  1.0000
  C   C53       1.0  0.00197  0.25408  0.63027  1.0000
  H   H87       1.0  0.00487  0.28279  0.58120  1.0000
  H   H88       1.0  0.00938  0.31215  0.57716  1.0000
  H   H89       1.0  0.01170  0.29623  0.54177  1.0000
  H   H90       1.0  0.21637  0.35528  0.62561  1.0000
  S   S22       1.0  0.22250  0.30393  0.75103  1.0000
  C   C54       1.0  0.22236  0.34296  0.68664  1.0000
  H   H91       1.0  0.21572  0.23879  0.92343  1.0000
  H   H92       1.0  0.14494  0.28293  0.98820  1.0000
  N   N7        1.0  0.01444  0.42801  0.50090  1.0000
  C   C55       1.0  0.03319  0.42265  0.51084  1.0000
  C   C56       1.0  0.22489  0.23917  0.90077  1.0000
  H   H93       1.0  0.01022  0.43866  0.55011  1.0000
  Fe  Fe12      1.0  0.08461  0.29388  0.50214  1.0000
  H   H94       1.0  0.15324  0.20493  0.80020  1.0000
  H   H95       1.0  0.09034  0.37190  0.86923  1.0000
  H   H96       1.0  0.13914  0.22978  0.72608  1.0000
  C   C57       1.0  0.22183  0.25002  0.87257  1.0000
  H   H97       1.0  0.14796  0.28528  0.87456  1.0000
  H   H98       1.0  0.09039  0.32483  0.86190  1.0000
  H   H99       1.0  0.20402  0.33140  0.69332  1.0000
  C   C58       1.0  0.00438  0.41183  0.96355  1.0000
  N   N8        1.0  0.09474  0.34840  0.90237  1.0000
  H   H100      1.0  0.21348  0.38069  0.63813  1.0000
  H   H101      1.0  0.03008  0.41490  0.53597  1.0000
  H   H102      1.0  0.20061  0.36679  0.71020  1.0000
  H   H103      1.0  0.05012  0.43861  0.51099  1.0000
  H   H104      1.0  0.09070  0.32171  0.93704  1.0000
  H   H105      1.0  0.11538  0.35278  0.85855  1.0000
  H   H106      1.0  0.18310  0.21523  0.78896  1.0000
  H   H107      1.0  0.16496  0.35002  0.92491  1.0000
  H   H108      1.0  0.14150  0.18491  0.74571  1.0000
  C   C59       1.0  0.14459  0.29503  0.89398  1.0000
  C   C60       1.0  0.08031  0.35786  0.88722  1.0000
  C   C61       1.0  0.12135  0.29593  0.94161  1.0000
  S   S23       1.0  0.00336  0.43272  0.88366  1.0000
  H   H109      1.0  0.11530  0.26492  0.91387  1.0000
  H   H110      1.0  0.04592  0.40896  0.92359  1.0000
  H   H111      1.0  0.01461  0.47846  0.72816  1.0000
  C   C62       1.0  0.01303  0.44514  0.52426  1.0000
  S   S24       1.0  0.08232  0.27662  0.55131  1.0000
  H   H112      1.0  0.15275  0.20110  0.70825  1.0000
  H   H113      1.0  0.17303  0.23550  0.80187  1.0000
  H   H114      1.0  0.21031  0.25786  0.87355  1.0000
  H   H115      1.0  0.02904  0.46208  0.52368  1.0000
  H   H116      1.0  0.17997  0.24337  0.71091  1.0000
  H   H117      1.0  0.02295  0.42413  0.96680  1.0000
  H   H118      1.0  0.06539  0.34407  0.87389  1.0000
  C   C63       1.0  0.03781  0.34987  0.95896  1.0000
  H   H119      1.0  0.12499  0.36067  0.93246  1.0000
  C   C64       1.0  0.05810  0.39201  0.95847  1.0000
  H   H120      1.0  0.19860  0.23752  0.73781  1.0000
  C   C65       1.0  0.15404  0.33144  0.92235  1.0000
  Fe  Fe13      1.0  0.04652  0.27365  0.55668  1.0000
  N   N9        1.0  0.16287  0.22171  0.75276  1.0000
  Fe  Fe14      1.0  0.18723  0.30170  0.75542  1.0000
  Fe  Fe15      1.0  0.21631  0.28915  0.80235  1.0000
  H   H121      1.0  0.07192  0.40820  0.96737  1.0000
  C   C66       1.0  0.15871  0.31907  0.89689  1.0000
  Fe  Fe16      1.0  0.09443  0.31287  0.57242  1.0000
  C   C67       1.0  0.14330  0.22729  0.75190  1.0000
  H   H122      1.0  0.18799  0.25752  0.75016  1.0000
  C   C68       1.0  0.15442  0.31972  0.69035  1.0000
  H   H123      1.0  0.03550  0.33334  0.96847  1.0000
  C   C69       1.0  0.21159  0.36355  0.64664  1.0000
  H   H124      1.0  0.14777  0.34734  0.67178  1.0000
  S   S25       1.0  0.00901  0.37105  0.88733  1.0000
  C   C70       1.0  0.14505  0.32963  0.66795  1.0000
  C   C71       1.0  0.11375  0.36719  0.92072  1.0000
  H   H125      1.0  0.01009  0.33411  0.92410  1.0000
  H   H126      1.0  0.17130  0.19507  0.73459  1.0000
  S   S26       1.0  0.09835  0.33042  0.52270  1.0000
  S   S27       1.0  0.05849  0.30866  0.58083  1.0000
  H   H127      1.0  0.12480  0.38183  0.90417  1.0000
  S   S28       1.0  0.17988  0.28427  0.80526  1.0000
  Fe  Fe17      1.0  0.19563  0.32076  0.82623  1.0000
  H   H128      1.0  0.16404  0.32969  0.71142  1.0000
  C   C72       1.0  0.13549  0.31997  0.94461  1.0000
  S   S29       1.0  0.12160  0.33053  0.61241  1.0000
  C   C73       1.0  0.12831  0.29375  0.63632  1.0000
  H   H129      1.0  0.13232  0.32970  0.96422  1.0000
  C   C74       1.0  0.08053  0.32956  0.92548  1.0000
  H   H130      1.0  0.14728  0.24386  0.76533  1.0000
  S   S30       1.0  0.20055  0.33795  0.77630  1.0000
  C   C75       1.0  0.16820  0.21914  0.78743  1.0000
  H   H131      1.0  0.12749  0.21330  0.76334  1.0000
  C   C76       1.0  0.04330  0.39250  0.93384  1.0000
  C   C77       1.0  0.15683  0.19970  0.73451  1.0000
  S   S31       1.0  0.04777  0.28754  0.50571  1.0000
  S   S32       1.0  0.16341  0.28393  0.71216  1.0000
  H   H132      1.0  0.07351  0.33630  0.94578  1.0000
  S   S33       1.0  0.01245  0.24161  0.56866  1.0000
  H   H133      1.0  0.10703  0.37450  0.94082  1.0000
  C   C78       1.0  0.15110  0.29688  0.68553  1.0000
  H   H134      1.0  0.06566  0.31524  0.91282  1.0000
  H   H135      1.0  0.19296  0.35233  0.65202  1.0000
  H   H136      1.0  0.11510  0.33149  0.88691  1.0000
  C   C79       1.0  0.02597  0.37161  0.92125  1.0000
  C   C80       1.0  0.12606  0.28354  0.91630  1.0000
  C   C81       1.0  0.10432  0.33899  0.87627  1.0000
  S   S34       1.0  0.09834  0.28051  0.96981  1.0000
  H   H137      1.0  0.01985  0.26704  0.63145  1.0000
  H   H138      1.0  0.13509  0.26621  0.65459  1.0000
  C   C82       1.0  0.18327  0.24077  0.73709  1.0000
  C   C83       1.0  0.13198  0.31675  0.64076  1.0000
  Fe  Fe18      1.0  0.06118  0.32278  0.52941  1.0000
  S   S35       1.0  0.18229  0.33454  0.86957  1.0000
  C   C84       1.0  0.05557  0.37069  0.97087  1.0000
  C   C85       1.0  0.13790  0.28394  0.65851  1.0000
  C   C86       1.0  0.02333  0.35034  0.93393  1.0000
  H   H139      1.0  0.07315  0.36547  0.90623  1.0000
  H   H140      1.0  0.11831  0.28362  0.61556  1.0000
  S   S36       1.0  0.03964  0.34177  0.51979  1.0000
  C   C87       1.0  0.21906  0.37737  0.70315  1.0000
  N   N10       1.0  0.22585  0.36618  0.67596  1.0000
  H   H141      1.0  0.03489  0.40998  0.49347  1.0000
  H   H142      1.0  0.09196  0.79227  0.42993  1.0000
  S   S37       1.0  0.00615  0.54011  0.13811  1.0000
  Fe  Fe19      1.0  0.00610  0.57508  0.13759  1.0000
  S   S38       1.0  0.03814  0.60981  0.14538  1.0000
  H   H143      1.0  0.07459  0.80441  0.44820  1.0000
  S   S39       1.0  0.00511  0.52360  0.04551  1.0000
  Fe  Fe20      1.0  0.04754  0.74875  0.30348  1.0000
  S   S40       1.0  0.06086  0.72594  0.32576  1.0000
  S   S41       1.0  0.01834  0.75513  0.32472  1.0000
  Fe  Fe21      1.0  0.08696  0.76772  0.25180  1.0000
  S   S42       1.0  0.10298  0.74584  0.27102  1.0000
  S   S43       1.0  0.09958  0.79450  0.20994  1.0000
  Fe  Fe22      1.0  0.06645  0.71684  0.27357  1.0000
  S   S44       1.0  0.05466  0.67763  0.26941  1.0000
  Fe  Fe23      1.0  0.09609  0.75643  0.32181  1.0000
  S   S45       1.0  0.11883  0.76142  0.36668  1.0000
  S   S46       1.0  0.05066  0.73798  0.25125  1.0000
  S   S47       1.0  0.08257  0.78016  0.30263  1.0000
  N   N11       1.0  0.12988  0.78528  0.03408  1.0000
  S   S48       1.0  0.21070  0.84755  0.02064  1.0000
  S   S49       1.0  0.16393  0.85152  0.46097  1.0000
  H   H144      1.0  0.04545  0.57671  0.04447  1.0000
  H   H145      1.0  0.02148  0.51116  0.48575  1.0000
  Fe  Fe24      1.0  0.19760  0.85235  0.07076  1.0000
  S   S50       1.0  0.18333  0.82241  0.10752  1.0000
  H   H146      1.0  0.18848  0.86935  0.14028  1.0000
  S   S51       1.0  0.17702  0.86935  0.05138  1.0000
  C   C88       1.0  0.12280  0.80166  0.18152  1.0000
  C   C89       1.0  0.12611  0.81777  0.15629  1.0000
  C   C90       1.0  0.14461  0.82444  0.13359  1.0000
  C   C91       1.0  0.16005  0.81505  0.13590  1.0000
  C   C92       1.0  0.15658  0.79872  0.16082  1.0000
  C   C93       1.0  0.13811  0.79209  0.18359  1.0000
  H   H147      1.0  0.11419  0.82505  0.15430  1.0000
  H   H148      1.0  0.14672  0.83662  0.11415  1.0000
  H   H149      1.0  0.16831  0.79119  0.16267  1.0000
  H   H150      1.0  0.13576  0.77965  0.20280  1.0000
  C   C94       1.0  0.13179  0.78688  0.39209  1.0000
  C   C95       1.0  0.14367  0.78646  0.42061  1.0000
  C   C96       1.0  0.15388  0.80613  0.44169  1.0000
  C   C97       1.0  0.15217  0.82646  0.43463  1.0000
  C   C98       1.0  0.14022  0.82685  0.40613  1.0000
  C   C99       1.0  0.13027  0.80729  0.38483  1.0000
  H   H151      1.0  0.14509  0.77085  0.42645  1.0000
  H   H152      1.0  0.16301  0.80552  0.46348  1.0000
  H   H153      1.0  0.13896  0.84253  0.40022  1.0000
  H   H154      1.0  0.12173  0.80810  0.36257  1.0000
  C   C100      1.0  0.04077  0.62896  0.17892  1.0000
  C   C101      1.0  0.05626  0.65286  0.17630  1.0000
  C   C102      1.0  0.05985  0.66828  0.20320  1.0000
  C   C103      1.0  0.04843  0.65979  0.23334  1.0000
  C   C104      1.0  0.03297  0.63590  0.23593  1.0000
  C   C105      1.0  0.02888  0.62063  0.20877  1.0000
  H   H155      1.0  0.06561  0.65948  0.15339  1.0000
  H   H156      1.0  0.07196  0.68655  0.20091  1.0000
  H   H157      1.0  0.02417  0.62910  0.25916  1.0000
  H   H158      1.0  0.01706  0.60228  0.21127  1.0000
  Fe  Fe25      1.0  0.20947  0.90312  0.05820  1.0000
  H   H159      1.0  0.08305  0.80203  0.37429  1.0000
  C   C106      1.0  0.98342  0.71800  0.36046  1.0000
  H   H160      1.0  0.20138  0.90593  0.21636  1.0000
  H   H161      1.0  0.10332  0.77991  0.07008  1.0000
  H   H162      1.0  0.19285  0.92822  0.15496  1.0000
  H   H163      1.0  0.15889  0.78676  0.00643  1.0000
  H   H164      1.0  0.21850  0.91397  0.17919  1.0000
  C   C107      1.0  0.99221  0.74074  0.34777  1.0000
  H   H165      1.0  0.17850  0.91001  0.46178  1.0000
  H   H166      1.0  0.12427  0.81565  0.03688  1.0000
  H   H167      1.0  0.16255  0.90949  0.15253  1.0000
  H   H168      1.0  0.16993  0.88007  0.12290  1.0000
  S   S52       1.0  0.20810  0.93537  0.07924  1.0000
  H   H169      1.0  0.07823  0.60313  0.12111  1.0000
  C   C108      1.0  0.13854  0.81083  0.03415  1.0000
  H   H170      1.0  0.12975  0.78291  0.08709  1.0000
  H   H171      1.0  0.16219  0.78791  0.05050  1.0000
  H   H172      1.0  0.14794  0.81881  0.01076  1.0000
  C   C109      1.0  0.11374  0.77483  0.00637  1.0000
  C   C110      1.0  0.11786  0.77567  0.06576  1.0000
  C   C111      1.0  0.16220  0.87428  0.18843  1.0000
  S   S53       1.0  0.99059  0.56989  0.08699  1.0000
  H   H173      1.0  0.08631  0.58547  0.03591  1.0000
  H   H174      1.0  0.04611  0.75069  0.37503  1.0000
  H   H175      1.0  0.05739  0.57469  0.13341  1.0000
  C   C112      1.0  0.20315  0.89968  0.19124  1.0000
  C   C113      1.0  0.99141  0.49824  0.02017  1.0000
  H   H176      1.0  0.06892  0.77509  0.45772  1.0000
  N   N12       1.0  0.06837  0.57710  0.08257  1.0000
  C   C114      1.0  0.15066  0.92797  0.48390  1.0000
  C   C115      1.0  0.07304  0.58419  0.11767  1.0000
  H   H177      1.0  0.09503  0.60954  0.06443  1.0000
  C   C116      1.0  0.08936  0.59044  0.06252  1.0000
  H   H178      1.0  0.07488  0.54744  0.08771  1.0000
  H   H179      1.0  0.20023  0.89870  0.12525  1.0000
  H   H180      1.0  0.05403  0.60068  0.07366  1.0000
  H   H181      1.0  0.15927  0.87980  0.21348  1.0000
  H   H182      1.0  0.13798  0.88233  0.47229  1.0000
  H   H183      1.0  0.99256  0.70788  0.35570  1.0000
  H   H184      1.0  0.14607  0.86889  0.17418  1.0000
  C   C117      1.0  0.17807  0.91371  0.16772  1.0000
  H   H185      1.0  0.16470  0.85843  0.19145  1.0000
  C   C118      1.0  0.17996  0.91531  0.48828  1.0000
  C   C119      1.0  0.06124  0.55185  0.07924  1.0000
  Fe  Fe26      1.0  0.19165  0.86643  0.00180  1.0000
  H   H186      1.0  0.17559  0.92051  0.19205  1.0000
  C   C120      1.0  0.04968  0.58192  0.07083  1.0000
  H   H187      1.0  0.08694  0.58072  0.12762  1.0000
  H   H188      1.0  0.15060  0.81910  0.05496  1.0000
  H   H189      1.0  0.98671  0.77109  0.34468  1.0000
  N   N13       1.0  0.10443  0.68897  0.34088  1.0000
  C   C121      1.0  0.12230  0.69459  0.36625  1.0000
  C   C122      1.0  0.08439  0.69055  0.35575  1.0000
  C   C123      1.0  0.09704  0.66508  0.32793  1.0000
  C   C124      1.0  0.11396  0.70578  0.31351  1.0000
  H   H190      1.0  0.13776  0.69369  0.35588  1.0000
  H   H191      1.0  0.11574  0.68232  0.38742  1.0000
  H   H192      1.0  0.12812  0.71261  0.37627  1.0000
  H   H193      1.0  0.08924  0.70851  0.36512  1.0000
  H   H194      1.0  0.07043  0.68607  0.33735  1.0000
  H   H195      1.0  0.07691  0.67833  0.37680  1.0000
  H   H196      1.0  0.08960  0.65185  0.34782  1.0000
  H   H197      1.0  0.11168  0.66324  0.31632  1.0000
  H   H198      1.0  0.08355  0.66053  0.30865  1.0000
  H   H199      1.0  0.12922  0.70525  0.30179  1.0000
  H   H200      1.0  0.11944  0.72399  0.32230  1.0000
  H   H201      1.0  0.10097  0.70192  0.29379  1.0000
  N   N14       1.0  0.05806  0.77932  0.40943  1.0000
  C   C125      1.0  0.05842  0.75814  0.39578  1.0000
  C   C126      1.0  0.03441  0.77355  0.42066  1.0000
  C   C127      1.0  0.06536  0.79735  0.38352  1.0000
  C   C128      1.0  0.07405  0.78818  0.43758  1.0000
  S   S54       1.0  0.22200  0.90216  0.00649  1.0000
  H   H202      1.0  0.05351  0.74430  0.41474  1.0000
  H   H203      1.0  0.07585  0.76198  0.38614  1.0000
  H   H204      1.0  0.03344  0.78905  0.43135  1.0000
  H   H205      1.0  0.05373  0.79117  0.36180  1.0000
  H   H206      1.0  0.02808  0.75962  0.43970  1.0000
  H   H207      1.0  0.06523  0.81359  0.39283  1.0000
  H   H208      1.0  0.11075  0.75635  0.06645  1.0000
  H   H209      1.0  0.10387  0.58726  0.07074  1.0000
  Fe  Fe27      1.0  0.98862  0.53403  0.08865  1.0000
  H   H210      1.0  0.04535  0.54131  0.09401  1.0000
  C   C129      1.0  0.18532  0.88488  0.13858  1.0000
  H   H211      1.0  0.14841  0.92337  0.45713  1.0000
  N   N15       1.0  0.18217  0.89314  0.17154  1.0000
  H   H212      1.0  0.02206  0.76707  0.39975  1.0000
  H   H213      1.0  0.14370  0.76079  0.03043  1.0000
  H   H214      1.0  0.21905  0.98233  0.09880  1.0000
  C   C130      1.0  0.98751  0.48891  0.21762  1.0000
  H   H215      1.0  0.03369  0.57187  0.08530  1.0000
  H   H216      1.0  0.99640  0.49854  0.19581  1.0000
  H   H217      1.0  0.20690  0.88461  0.19419  1.0000
  H   H218      1.0  0.19390  0.93356  0.49066  1.0000
  C   C131      1.0  0.98018  0.75358  0.35424  1.0000
  H   H219      1.0  0.05710  0.54582  0.05312  1.0000
  C   C132      1.0  0.14952  0.77992  0.03017  1.0000
  H   H220      1.0  0.09861  0.77835  0.00877  1.0000
  H   H221      1.0  0.10718  0.75558  0.00505  1.0000
  H   H222      1.0  0.16375  0.94662  0.48600  1.0000
  C   C133      1.0  0.00436  0.49758  0.49154  1.0000
  H   H223      1.0  0.97622  0.54082  0.45783  1.0000
  H   H224      1.0  0.02040  0.50912  0.98660  1.0000
  S   S55       1.0  0.00544  0.54777  0.63899  1.0000
  Fe  Fe28      1.0  0.99533  0.57648  0.63169  1.0000
  S   S56       1.0  0.01186  0.61523  0.64447  1.0000
  H   H225      1.0  0.10928  0.70056  0.65147  1.0000
  S   S57       1.0  0.00720  0.52409  0.54668  1.0000
  Fe  Fe29      1.0  0.04670  0.72890  0.80735  1.0000
  S   S58       1.0  0.06696  0.71265  0.83029  1.0000
  S   S59       1.0  0.00737  0.71099  0.81298  1.0000
  Fe  Fe30      1.0  0.08816  0.76011  0.76175  1.0000
  S   S60       1.0  0.11043  0.74521  0.78212  1.0000
  S   S61       1.0  0.09701  0.78465  0.71728  1.0000
  Fe  Fe31      1.0  0.07878  0.71027  0.77864  1.0000
  S   S62       1.0  0.07923  0.67723  0.75831  1.0000
  Fe  Fe32      1.0  0.09653  0.74925  0.83201  1.0000
  S   S63       1.0  0.11981  0.75965  0.87767  1.0000
  S   S64       1.0  0.05751  0.72496  0.75545  1.0000
  S   S65       1.0  0.07543  0.76588  0.81188  1.0000
  H   H226      1.0  0.97761  0.62753  0.94867  1.0000
  S   S66       1.0  0.20617  0.83954  0.52774  1.0000
  S   S67       1.0  0.16988  0.85695  0.95522  1.0000
  H   H227      1.0  0.06495  0.72123  0.64155  1.0000
  H   H228      1.0  0.07501  0.74164  0.67547  1.0000
  Fe  Fe33      1.0  0.19659  0.85083  0.57641  1.0000
  S   S68       1.0  0.18542  0.82622  0.62101  1.0000
  H   H229      1.0  0.08126  0.68721  0.67041  1.0000
  S   S69       1.0  0.17764  0.86844  0.55293  1.0000
  C   C134      1.0  0.12232  0.79715  0.69193  1.0000
  C   C135      1.0  0.12266  0.81019  0.66406  1.0000
  C   C136      1.0  0.14187  0.81950  0.64233  1.0000
  C   C137      1.0  0.16100  0.81576  0.64810  1.0000
  C   C138      1.0  0.16066  0.80275  0.67599  1.0000
  C   C139      1.0  0.14157  0.79365  0.69791  1.0000
  H   H230      1.0  0.10791  0.81305  0.65919  1.0000
  H   H231      1.0  0.14183  0.82944  0.62103  1.0000
  H   H232      1.0  0.17539  0.79984  0.68081  1.0000
  H   H233      1.0  0.14182  0.78399  0.71942  1.0000
  C   C140      1.0  0.13407  0.78714  0.89809  1.0000
  C   C141      1.0  0.14987  0.79003  0.92326  1.0000
  C   C142      1.0  0.16110  0.81129  0.94084  1.0000
  C   C143      1.0  0.15645  0.82986  0.93366  1.0000
  C   C144      1.0  0.14091  0.82710  0.90826  1.0000
  C   C145      1.0  0.12977  0.80589  0.89056  1.0000
  H   H234      1.0  0.15349  0.77570  0.92900  1.0000
  H   H235      1.0  0.17345  0.81336  0.95969  1.0000
  H   H236      1.0  0.13729  0.84140  0.90231  1.0000
  H   H237      1.0  0.11770  0.80397  0.87128  1.0000
  C   C146      1.0  0.02964  0.63091  0.67787  1.0000
  C   C147      1.0  0.02797  0.65052  0.69027  1.0000
  C   C148      1.0  0.04248  0.66431  0.71567  1.0000
  C   C149      1.0  0.05935  0.65907  0.72834  1.0000
  C   C150      1.0  0.06099  0.63936  0.71607  1.0000
  C   C151      1.0  0.04613  0.62525  0.69103  1.0000
  H   H238      1.0  0.01530  0.65506  0.68020  1.0000
  H   H239      1.0  0.04070  0.67911  0.72522  1.0000
  H   H240      1.0  0.07409  0.63524  0.72558  1.0000
  H   H241      1.0  0.04795  0.61051  0.68116  1.0000
  H   H242      1.0  0.06112  0.71090  0.68331  1.0000
  H   H243      1.0  0.21154  0.89483  0.92719  1.0000
  H   H244      1.0  0.12873  0.74369  0.64048  1.0000
  C   C152      1.0  0.99588  0.72258  0.87467  1.0000
  H   H245      1.0  0.11328  0.76006  0.64869  1.0000
  H   H246      1.0  0.10826  0.74629  0.70739  1.0000
  C   C153      1.0  0.07321  0.72452  0.66619  1.0000
  H   H247      1.0  0.10430  0.73907  0.61573  1.0000
  H   H248      1.0  0.16660  0.90859  0.55183  1.0000
  H   H249      1.0  0.12216  0.78207  0.98214  1.0000
  H   H250      1.0  0.14440  0.91757  0.54891  1.0000
  H   H251      1.0  0.99465  0.58073  0.80491  1.0000
  H   H252      1.0  0.08440  0.69669  0.62832  1.0000
  H   H253      1.0  0.01402  0.61249  0.74545  1.0000
  C   C154      1.0  0.00349  0.57594  0.78473  1.0000
  H   H254      1.0  0.97939  0.68615  0.95158  1.0000
  H   H255      1.0  0.98621  0.60443  0.76348  1.0000
  H   H256      1.0  0.98885  0.59957  0.72011  1.0000
  H   H257      1.0  0.12336  0.72970  0.69753  1.0000
  H   H258      1.0  0.99891  0.56964  0.70136  1.0000
  H   H259      1.0  0.09508  0.71573  0.71569  1.0000
  C   C155      1.0  0.00330  0.49557  0.99242  1.0000
  H   H260      1.0  0.02208  0.58887  0.78521  1.0000
  Fe  Fe34      1.0  0.21192  0.90084  0.55187  1.0000
  H   H261      1.0  0.00219  0.55855  0.79068  1.0000
  N   N16       1.0  0.99327  0.57557  0.75224  1.0000
  H   H262      1.0  0.17408  0.93791  0.54092  1.0000
  H   H263      1.0  0.14518  0.87618  0.51202  1.0000
  C   C156      1.0  0.98927  0.70694  0.84799  1.0000
  C   C157      1.0  0.09256  0.70121  0.65307  1.0000
  H   H264      1.0  0.02421  0.58073  0.72625  1.0000
  H   H265      1.0  0.00278  0.55070  0.72986  1.0000
  Fe  Fe35      1.0  0.18878  0.85897  0.50431  1.0000
  H   H266      1.0  0.98499  0.73262  0.92014  1.0000
  H   H267      1.0  0.20904  0.95729  0.67040  1.0000
  H   H268      1.0  0.01299  0.73719  0.87496  1.0000
  C   C158      1.0  0.99011  0.49140  0.71821  1.0000
  C   C159      1.0  0.99311  0.49942  0.52052  1.0000
  H   H269      1.0  0.97993  0.63474  0.99207  1.0000
  H   H270      1.0  0.20123  0.93041  0.62241  1.0000
  N   N17       1.0  0.09577  0.72437  0.66449  1.0000
  C   C160      1.0  0.10612  0.72924  0.69767  1.0000
  C   C161      1.0  0.11118  0.74252  0.64127  1.0000
  Fe  Fe36      1.0  0.98988  0.53455  0.58849  1.0000
  C   C162      1.0  0.00536  0.56886  0.72636  1.0000
  S   S70       1.0  0.21897  0.93887  0.55473  1.0000
  H   H271      1.0  0.99310  0.66981  0.93458  1.0000
  H   H272      1.0  0.99797  0.49912  0.69481  1.0000
  C   C163      1.0  0.98361  0.67158  0.95665  1.0000
  C   C164      1.0  0.99565  0.59901  0.74503  1.0000
  S   S71       1.0  0.98344  0.56543  0.57944  1.0000
  H   H273      1.0  0.99554  0.67694  0.97799  1.0000
  C   C165      1.0  0.16074  0.91947  0.53743  1.0000
  H   H274      1.0  0.20028  0.85899  0.89372  1.0000
  C   C166      1.0  0.21463  0.94824  0.62072  1.0000
  C   C167      1.0  0.97993  0.71997  0.90019  1.0000
  S   S72       1.0  0.22185  0.89261  0.50185  1.0000
  H   H275      1.0  0.21565  0.86107  0.94916  1.0000
  C   C168      1.0  0.21898  0.96357  0.64783  1.0000
  H   H276      1.0  0.18578  0.90411  0.50165  1.0000
  H   H277      1.0  0.12320  0.88540  0.50864  1.0000
  C   C169      1.0  0.21832  0.86648  0.88400  1.0000
  H   H278      1.0  0.21893  0.87570  0.86066  1.0000
  N   N18       1.0  0.15786  0.91272  0.50208  1.0000
  H   H279      1.0  0.22187  0.85157  0.87766  1.0000
  C   C170      1.0  0.14019  0.88813  0.49862  1.0000
  H   H280      1.0  0.98041  0.53879  0.50122  1.0000
  H   H281      1.0  0.13404  0.92651  0.49372  1.0000
  C   C171      1.0  0.46119  0.47345  0.22441  1.0000
  H   H282      1.0  0.31009  0.99369  0.22586  1.0000
  S   S73       1.0  0.27651  0.33645  0.26636  1.0000
  H   H283      1.0  0.30192  0.30293  0.08220  1.0000
  H   H284      1.0  0.38288  0.41554  0.20626  1.0000
  Fe  Fe37      1.0  0.23729  0.32081  0.27315  1.0000
  S   S74       1.0  0.33235  0.20726  0.47411  1.0000
  S   S75       1.0  0.28014  0.15996  0.03854  1.0000
  Fe  Fe38      1.0  0.27758  0.21269  0.44911  1.0000
  S   S76       1.0  0.31128  0.23076  0.42201  1.0000
  S   S77       1.0  0.24887  0.22295  0.44308  1.0000
  Fe  Fe39      1.0  0.31318  0.19683  0.42573  1.0000
  S   S78       1.0  0.32815  0.18129  0.38691  1.0000
  Fe  Fe40      1.0  0.32702  0.23952  0.47270  1.0000
  H   H285      1.0  0.34933  0.99480  0.42050  1.0000
  S   S79       1.0  0.27796  0.17794  0.44880  1.0000
  H   H286      1.0  0.47407  0.41631  0.48995  1.0000
  Fe  Fe41      1.0  0.29729  0.08311  0.24646  1.0000
  S   S80       1.0  0.33307  0.10520  0.22715  1.0000
  S   S81       1.0  0.27990  0.09730  0.28354  1.0000
  Fe  Fe42      1.0  0.29030  0.04178  0.19988  1.0000
  S   S82       1.0  0.32533  0.06257  0.17698  1.0000
  S   S83       1.0  0.27416  0.00240  0.19063  1.0000
  Fe  Fe43      1.0  0.33736  0.07254  0.22916  1.0000
  S   S84       1.0  0.36959  0.06938  0.24227  1.0000
  Fe  Fe44      1.0  0.31729  0.09301  0.17694  1.0000
  S   S85       1.0  0.33024  0.12131  0.13715  1.0000
  S   S86       1.0  0.30271  0.05125  0.25232  1.0000
  S   S87       1.0  0.28109  0.07151  0.19605  1.0000
  Fe  Fe45      1.0  0.40349  0.37879  0.11139  1.0000
  S   S88       1.0  0.38601  0.39790  0.08835  1.0000
  S   S89       1.0  0.39245  0.34002  0.10305  1.0000
  Fe  Fe46      1.0  0.43007  0.41941  0.16051  1.0000
  S   S90       1.0  0.41378  0.44065  0.14066  1.0000
  S   S91       1.0  0.45352  0.42875  0.20554  1.0000
  Fe  Fe47      1.0  0.38068  0.40697  0.14056  1.0000
  S   S92       1.0  0.34568  0.40364  0.15677  1.0000
  Fe  Fe48      1.0  0.42093  0.42960  0.09025  1.0000
  S   S93       1.0  0.43244  0.45641  0.04842  1.0000
  S   S94       1.0  0.39645  0.38649  0.16355  1.0000
  S   S95       1.0  0.43898  0.40984  0.11022  1.0000
  H   H287      1.0  0.38983  0.41096  0.24743  1.0000
  S   S96       1.0  0.45452  0.99398  0.45065  1.0000
  H   H288      1.0  0.40252  0.36752  0.48634  1.0000
  C   C172      1.0  0.45890  0.48139  0.99563  1.0000
  C   C173      1.0  0.24426  0.99224  0.13760  1.0000
  H   H289      1.0  0.25520  0.28310  0.31760  1.0000
  H   H290      1.0  0.46071  0.40500  0.45087  1.0000
  C   C174      1.0  0.45604  0.46498  0.02021  1.0000
  S   S97       1.0  0.34861  0.27899  0.47826  1.0000
  H   H291      1.0  0.28112  0.13551  0.47073  1.0000
  H   H292      1.0  0.29269  0.11580  0.01454  1.0000
  H   H293      1.0  0.33267  0.16333  0.45181  1.0000
  C   C175      1.0  0.41716  0.38252  0.47425  1.0000
  C   C176      1.0  0.37053  0.05165  0.27476  1.0000
  C   C177      1.0  0.38868  0.04562  0.27561  1.0000
  C   C178      1.0  0.38989  0.03144  0.30098  1.0000
  C   C179      1.0  0.37322  0.02363  0.32618  1.0000
  C   C180      1.0  0.35506  0.02961  0.32524  1.0000
  C   C181      1.0  0.35356  0.04333  0.29949  1.0000
  H   H294      1.0  0.40199  0.05213  0.25673  1.0000
  H   H295      1.0  0.40407  0.02715  0.30159  1.0000
  H   H296      1.0  0.34220  0.02385  0.34475  1.0000
  H   H297      1.0  0.33959  0.04793  0.29924  1.0000
  C   C182      1.0  0.28871  0.12942  0.45028  1.0000
  H   H298      1.0  0.47298  0.99499  0.29347  1.0000
  H   H299      1.0  0.32356  0.13128  0.41240  1.0000
  C   C183      1.0  0.29454  0.14952  0.06560  1.0000
  C   C184      1.0  0.31856  0.15970  0.06745  1.0000
  C   C185      1.0  0.32911  0.15064  0.08922  1.0000
  C   C186      1.0  0.31585  0.13133  0.10939  1.0000
  C   C187      1.0  0.29183  0.12108  0.10743  1.0000
  C   C188      1.0  0.28128  0.13019  0.08572  1.0000
  H   H300      1.0  0.32904  0.17470  0.05241  1.0000
  H   H301      1.0  0.34772  0.15876  0.09062  1.0000
  H   H302      1.0  0.28135  0.10606  0.12242  1.0000
  H   H303      1.0  0.26267  0.12210  0.08438  1.0000
  C   C189      1.0  0.31421  0.15788  0.35840  1.0000
  C   C190      1.0  0.29022  0.14592  0.35552  1.0000
  C   C191      1.0  0.28003  0.12736  0.33263  1.0000
  C   C192      1.0  0.29363  0.12048  0.31245  1.0000
  C   C193      1.0  0.31760  0.13239  0.31545  1.0000
  C   C194      1.0  0.32779  0.15098  0.33825  1.0000
  H   H304      1.0  0.27952  0.15104  0.37075  1.0000
  H   H305      1.0  0.26147  0.11828  0.33052  1.0000
  H   H306      1.0  0.32833  0.12725  0.30031  1.0000
  H   H307      1.0  0.34636  0.16006  0.34033  1.0000
  C   C195      1.0  0.35595  0.29425  0.01281  1.0000
  C   C196      1.0  0.35689  0.28414  0.04276  1.0000
  C   C197      1.0  0.36802  0.29841  0.07017  1.0000
  C   C198      1.0  0.37796  0.32288  0.06816  1.0000
  C   C199      1.0  0.37631  0.33296  0.03857  1.0000
  H   H308      1.0  0.24106  0.26104  0.42292  1.0000
  H   H309      1.0  0.34972  0.26537  0.04449  1.0000
  H   H310      1.0  0.36930  0.29045  0.09291  1.0000
  H   H311      1.0  0.38403  0.35176  0.03659  1.0000
  H   H312      1.0  0.34854  0.33026  0.14358  1.0000
  C   C200      1.0  0.32635  0.38388  0.18623  1.0000
  C   C201      1.0  0.30341  0.38026  0.18753  1.0000
  C   C202      1.0  0.28770  0.36533  0.21129  1.0000
  C   C203      1.0  0.29492  0.35419  0.23442  1.0000
  C   C204      1.0  0.31786  0.35773  0.23298  1.0000
  C   C205      1.0  0.33343  0.37232  0.20890  1.0000
  H   H313      1.0  0.29775  0.38921  0.17026  1.0000
  H   H314      1.0  0.27016  0.36290  0.21222  1.0000
  H   H315      1.0  0.32368  0.34928  0.25078  1.0000
  H   H316      1.0  0.35099  0.37486  0.20831  1.0000
  C   C206      1.0  0.30323  0.31895  0.14421  1.0000
  H   H317      1.0  0.35201  0.42448  0.22767  1.0000
  H   H318      1.0  0.35844  0.41901  0.26861  1.0000
  C   C207      1.0  0.24008  0.22901  0.40498  1.0000
  H   H319      1.0  0.44694  0.36435  0.47146  1.0000
  H   H320      1.0  0.32081  0.01500  0.15856  1.0000
  H   H321      1.0  0.38250  0.45229  0.19159  1.0000
  H   H322      1.0  0.34248  0.14970  0.48179  1.0000
  H   H323      1.0  0.31612  0.10942  0.00499  1.0000
  N   N19       1.0  0.38783  0.44304  0.24046  1.0000
  H   H324      1.0  0.41178  0.43157  0.22099  1.0000
  C   C208      1.0  0.40201  0.45444  0.26974  1.0000
  C   C209      1.0  0.32758  0.00842  0.22178  1.0000
  C   C210      1.0  0.46440  0.45395  0.23140  1.0000
  H   H325      1.0  0.32747  0.35706  0.08096  1.0000
  H   H326      1.0  0.41911  0.37685  0.44881  1.0000
  H   H327      1.0  0.45387  0.42509  0.47378  1.0000
  H   H328      1.0  0.45217  0.47359  0.20228  1.0000
  H   H329      1.0  0.37291  0.02914  0.20863  1.0000
  H   H330      1.0  0.47009  0.44360  0.04050  1.0000
  H   H331      1.0  0.32540  0.02441  0.21890  1.0000
  C   C211      1.0  0.36554  0.31871  0.01099  1.0000
  H   H332      1.0  0.30489  0.28225  0.27274  1.0000
  H   H333      1.0  0.30347  0.33188  0.16296  1.0000
  C   C212      1.0  0.45762  0.40996  0.47620  1.0000
  H   H334      1.0  0.31512  0.36119  0.11869  1.0000
  C   C213      1.0  0.31936  0.31284  0.09297  1.0000
  C   C214      1.0  0.39330  0.42444  0.22830  1.0000
  H   H335      1.0  0.33397  0.11736  0.44112  1.0000
  H   H336      1.0  0.34487  0.35607  0.14972  1.0000
  S   S98       1.0  0.43280  0.99493  0.36191  1.0000
  C   C215      1.0  0.39290  0.46044  0.21410  1.0000
  C   C216      1.0  0.32446  0.00004  0.16323  1.0000
  C   C217      1.0  0.34347  0.34257  0.13134  1.0000
  N   N20       1.0  0.28866  0.28437  0.31834  1.0000
  C   C218      1.0  0.28504  0.27456  0.35200  1.0000
  C   C219      1.0  0.30208  0.27540  0.29842  1.0000
  C   C220      1.0  0.30137  0.31009  0.32033  1.0000
  C   C221      1.0  0.26614  0.27742  0.30258  1.0000
  H   H337      1.0  0.27467  0.25521  0.35160  1.0000
  H   H338      1.0  0.27575  0.28166  0.36810  1.0000
  H   H339      1.0  0.30163  0.27867  0.36425  1.0000
  H   H340      1.0  0.30544  0.10168  0.42446  1.0000
  H   H341      1.0  0.31928  0.28052  0.30943  1.0000
  H   H342      1.0  0.29299  0.25599  0.29684  1.0000
  H   H343      1.0  0.42076  0.46210  0.26378  1.0000
  H   H344      1.0  0.29114  0.31747  0.33380  1.0000
  H   H345      1.0  0.26815  0.28540  0.27772  1.0000
  H   H346      1.0  0.30510  0.31802  0.29530  1.0000
  H   H347      1.0  0.25627  0.25814  0.29954  1.0000
  N   N21       1.0  0.30052  0.15172  0.20896  1.0000
  C   C222      1.0  0.32192  0.15297  0.22262  1.0000
  C   C223      1.0  0.30628  0.16747  0.18028  1.0000
  C   C224      1.0  0.28858  0.15867  0.23477  1.0000
  C   C225      1.0  0.28532  0.12757  0.19818  1.0000
  H   H348      1.0  0.31811  0.14102  0.24402  1.0000
  H   H349      1.0  0.33376  0.17088  0.23142  1.0000
  H   H350      1.0  0.33146  0.14795  0.20369  1.0000
  H   H351      1.0  0.29053  0.16668  0.16887  1.0000
  H   H352      1.0  0.31768  0.18589  0.18743  1.0000
  H   H353      1.0  0.31548  0.16259  0.16064  1.0000
  H   H354      1.0  0.27226  0.15779  0.22540  1.0000
  H   H355      1.0  0.29958  0.17675  0.24377  1.0000
  H   H356      1.0  0.28406  0.14692  0.25662  1.0000
  H   H357      1.0  0.26934  0.12602  0.18656  1.0000
  H   H358      1.0  0.28002  0.11529  0.21936  1.0000
  H   H359      1.0  0.29417  0.12142  0.17978  1.0000
  C   C226      1.0  0.36311  0.43276  0.24950  1.0000
  N   N22       1.0  0.30918  0.12743  0.46143  1.0000
  H   H360      1.0  0.29729  0.33921  0.08970  1.0000
  H   H361      1.0  0.30699  0.30602  0.15730  1.0000
  H   H362      1.0  0.28537  0.30962  0.13458  1.0000
  C   C227      1.0  0.30260  0.11093  0.48931  1.0000
  Fe  Fe49      1.0  0.29306  0.18763  0.99791  1.0000
  H   H363      1.0  0.41140  0.46846  0.20653  1.0000
  H   H364      1.0  0.35841  0.44621  0.25935  1.0000
  H   H365      1.0  0.35651  0.35152  0.11169  1.0000
  H   H366      1.0  0.27503  0.11241  0.44126  1.0000
  H   H367      1.0  0.28916  0.09328  0.48198  1.0000
  C   C228      1.0  0.23400  0.21318  0.37859  1.0000
  H   H368      1.0  0.32417  0.30005  0.10434  1.0000
  H   H369      1.0  0.33177  0.32111  0.07220  1.0000
  C   C229      1.0  0.31471  0.34768  0.10090  1.0000
  N   N23       1.0  0.32014  0.33047  0.11735  1.0000
  H   H370      1.0  0.37086  0.02268  0.16510  1.0000
  S   S99       1.0  0.28747  0.21970  0.99746  1.0000
  H   H371      1.0  0.39853  0.44180  0.29013  1.0000
  H   H372      1.0  0.31805  0.31605  0.33328  1.0000
  H   H373      1.0  0.35921  0.04091  0.18219  1.0000
  H   H374      1.0  0.24491  0.00914  0.14173  1.0000
  N   N24       1.0  0.33915  0.00437  0.19256  1.0000
  C   C230      1.0  0.22697  0.25280  0.37376  1.0000
  H   H375      1.0  0.23623  0.19762  0.38061  1.0000
  C   C231      1.0  0.47206  0.45626  0.02180  1.0000
  S   S100      1.0  0.37477  0.00740  0.36025  1.0000
  H   H376      1.0  0.38896  0.47476  0.22230  1.0000
  C   C232      1.0  0.36151  0.02512  0.18679  1.0000
  C   C233      1.0  0.23651  0.24881  0.40246  1.0000
  C   C234      1.0  0.31844  0.11901  0.43369  1.0000
  H   H377      1.0  0.39861  0.46882  0.27940  1.0000
  H   H378      1.0  0.46949  0.00094  0.01831  1.0000
  H   H379      1.0  0.29320  0.14208  0.42964  1.0000
  C   C235      1.0  0.32696  0.15055  0.47245  1.0000
  H   H380      1.0  0.32736  0.99073  0.45070  1.0000
  H   H381      1.0  0.33768  0.01076  0.24463  1.0000
  H   H382      1.0  0.33271  0.99722  0.14056  1.0000
  H   H383      1.0  0.41220  0.39684  0.47205  1.0000
  H   H384      1.0  0.32029  0.15770  0.49274  1.0000
  H   H385      1.0  0.31592  0.15656  0.99502  1.0000
  C   C236      1.0  0.30073  0.10995  0.99438  1.0000
  H   H386      1.0  0.25366  0.39834  0.65872  1.0000
  H   H387      1.0  0.26232  0.22071  0.86920  1.0000
  S   S101      1.0  0.26785  0.37080  0.75822  1.0000
  H   H388      1.0  0.44344  0.48720  0.50010  1.0000
  H   H389      1.0  0.29623  0.99907  0.73462  1.0000
  H   H390      1.0  0.46807  0.05078  0.73586  1.0000
  H   H391      1.0  0.31273  0.32480  0.94618  1.0000
  S   S102      1.0  0.28322  0.16020  0.53600  1.0000
  Fe  Fe50      1.0  0.27324  0.20856  0.94641  1.0000
  S   S103      1.0  0.30737  0.22732  0.92069  1.0000
  S   S104      1.0  0.24221  0.21449  0.93553  1.0000
  Fe  Fe51      1.0  0.31079  0.19439  0.92705  1.0000
  S   S105      1.0  0.32691  0.17896  0.88978  1.0000
  Fe  Fe52      1.0  0.32190  0.23768  0.97199  1.0000
  H   H392      1.0  0.33225  0.31224  0.94508  1.0000
  S   S106      1.0  0.27534  0.17471  0.94901  1.0000
  H   H393      1.0  0.23291  0.34445  0.70870  1.0000
  Fe  Fe53      1.0  0.29251  0.07953  0.74427  1.0000
  S   S107      1.0  0.32852  0.09305  0.72360  1.0000
  S   S108      1.0  0.27940  0.09636  0.78404  1.0000
  Fe  Fe54      1.0  0.27290  0.03968  0.69191  1.0000
  S   S109      1.0  0.30740  0.05188  0.66722  1.0000
  S   S110      1.0  0.24113  0.00522  0.68119  1.0000
  Fe  Fe55      1.0  0.32103  0.05528  0.71900  1.0000
  S   S111      1.0  0.34200  0.03529  0.72491  1.0000
  Fe  Fe56      1.0  0.31137  0.08831  0.67397  1.0000
  S   S112      1.0  0.32870  0.11894  0.63824  1.0000
  S   S113      1.0  0.28628  0.04210  0.74347  1.0000
  S   S114      1.0  0.27564  0.07577  0.69476  1.0000
  Fe  Fe57      1.0  0.41234  0.37909  0.60870  1.0000
  S   S115      1.0  0.38930  0.39248  0.58770  1.0000
  S   S116      1.0  0.41421  0.34689  0.58883  1.0000
  Fe  Fe58      1.0  0.42956  0.41700  0.66341  1.0000
  S   S117      1.0  0.40661  0.43225  0.64629  1.0000
  S   S118      1.0  0.45736  0.43027  0.70304  1.0000
  Fe  Fe59      1.0  0.37909  0.39474  0.64067  1.0000
  S   S119      1.0  0.34025  0.37297  0.64883  1.0000
  Fe  Fe60      1.0  0.41898  0.42817  0.59517  1.0000
  S   S120      1.0  0.43001  0.45640  0.55590  1.0000
  S   S121      1.0  0.40134  0.37986  0.66126  1.0000
  S   S122      1.0  0.44287  0.41461  0.61254  1.0000
  C   C237      1.0  0.24767  0.23931  0.84193  1.0000
  S   S123      1.0  0.39368  0.02342  0.84979  1.0000
  S   S124      1.0  0.43560  0.99515  0.86137  1.0000
  C   C238      1.0  0.45810  0.42801  0.86850  1.0000
  H   H394      1.0  0.27917  0.12038  0.72040  1.0000
  C   C239      1.0  0.46250  0.48063  0.64343  1.0000
  C   C240      1.0  0.25044  0.38083  0.66759  1.0000
  C   C241      1.0  0.45406  0.46574  0.52841  1.0000
  H   H395      1.0  0.37350  0.99391  0.79166  1.0000
  H   H396      1.0  0.45802  0.46196  0.64710  1.0000
  H   H397      1.0  0.28068  0.99693  0.66462  1.0000
  C   C242      1.0  0.45504  0.03256  0.74131  1.0000
  H   H398      1.0  0.22736  0.33395  0.66689  1.0000
  C   C243      1.0  0.35393  0.03092  0.76166  1.0000
  C   C244      1.0  0.35909  0.01204  0.76307  1.0000
  C   C245      1.0  0.36985  0.00863  0.79090  1.0000
  C   C246      1.0  0.37649  0.02467  0.81708  1.0000
  C   C247      1.0  0.37123  0.04350  0.81577  1.0000
  C   C248      1.0  0.35969  0.04643  0.78841  1.0000
  H   H399      1.0  0.43288  0.99586  0.78115  1.0000
  C   C249      1.0  0.29361  0.99065  0.66922  1.0000
  H   H400      1.0  0.37639  0.05607  0.83582  1.0000
  H   H401      1.0  0.35601  0.06115  0.78754  1.0000
  H   H402      1.0  0.32398  0.27781  0.91075  1.0000
  H   H403      1.0  0.22950  0.37949  0.72571  1.0000
  H   H404      1.0  0.26177  0.01283  0.61473  1.0000
  C   C250      1.0  0.29644  0.14921  0.56423  1.0000
  C   C251      1.0  0.32035  0.15901  0.56771  1.0000
  C   C252      1.0  0.32989  0.14943  0.59033  1.0000
  C   C253      1.0  0.31572  0.12995  0.60965  1.0000
  C   C254      1.0  0.29183  0.12013  0.60610  1.0000
  C   C255      1.0  0.28229  0.12974  0.58355  1.0000
  H   H405      1.0  0.33148  0.17406  0.55319  1.0000
  H   H406      1.0  0.34841  0.15718  0.59293  1.0000
  H   H407      1.0  0.28068  0.10508  0.62061  1.0000
  H   H408      1.0  0.26377  0.12197  0.58099  1.0000
  C   C256      1.0  0.31332  0.15589  0.86063  1.0000
  C   C257      1.0  0.28941  0.14427  0.85686  1.0000
  C   C258      1.0  0.27942  0.12599  0.83354  1.0000
  C   C259      1.0  0.29312  0.11903  0.81372  1.0000
  C   C260      1.0  0.31705  0.13062  0.81755  1.0000
  C   C261      1.0  0.32705  0.14893  0.84086  1.0000
  H   H409      1.0  0.27859  0.14942  0.87177  1.0000
  H   H410      1.0  0.26089  0.11718  0.83078  1.0000
  H   H411      1.0  0.32785  0.12538  0.80276  1.0000
  H   H412      1.0  0.34557  0.15773  0.84367  1.0000
  H   H413      1.0  0.35496  0.00007  0.74242  1.0000
  C   C262      1.0  0.37817  0.28952  0.53156  1.0000
  C   C263      1.0  0.39323  0.30522  0.55509  1.0000
  C   C264      1.0  0.39476  0.32754  0.55952  1.0000
  C   C265      1.0  0.38114  0.33409  0.54020  1.0000
  H   H414      1.0  0.32941  0.32698  0.90940  1.0000
  H   H415      1.0  0.37741  0.27253  0.52793  1.0000
  H   H416      1.0  0.40380  0.30004  0.56981  1.0000
  H   H417      1.0  0.38199  0.35111  0.54342  1.0000
  S   S125      1.0  0.32882  0.20649  0.97611  1.0000
  C   C266      1.0  0.32130  0.37223  0.68131  1.0000
  C   C267      1.0  0.32675  0.39081  0.70342  1.0000
  C   C268      1.0  0.31036  0.38994  0.72725  1.0000
  C   C269      1.0  0.28865  0.37027  0.72984  1.0000
  C   C270      1.0  0.28345  0.35146  0.70822  1.0000
  C   C271      1.0  0.29954  0.35261  0.68381  1.0000
  H   H418      1.0  0.34331  0.40612  0.70160  1.0000
  H   H419      1.0  0.31450  0.40467  0.74367  1.0000
  H   H420      1.0  0.26686  0.33622  0.70981  1.0000
  H   H421      1.0  0.29502  0.33824  0.66663  1.0000
  H   H422      1.0  0.45230  0.48153  0.62212  1.0000
  H   H423      1.0  0.41582  0.03785  0.74476  1.0000
  H   H424      1.0  0.35672  0.32417  0.50043  1.0000
  C   C272      1.0  0.23948  0.22853  0.89975  1.0000
  C   C273      1.0  0.25120  0.22901  0.87035  1.0000
  C   C274      1.0  0.24870  0.99487  0.61658  1.0000
  H   H425      1.0  0.43034  0.35548  0.50913  1.0000
  H   H426      1.0  0.44410  0.02551  0.71905  1.0000
  H   H427      1.0  0.45508  0.44861  0.81239  1.0000
  N   N25       1.0  0.33588  0.30800  0.62403  1.0000
  C   C275      1.0  0.34011  0.32659  0.59993  1.0000
  C   C276      1.0  0.31241  0.28873  0.61940  1.0000
  C   C277      1.0  0.33806  0.31754  0.65795  1.0000
  C   C278      1.0  0.35296  0.29919  0.61876  1.0000
  H   H428      1.0  0.32777  0.33395  0.60350  1.0000
  H   H429      1.0  0.33835  0.31998  0.57406  1.0000
  H   H430      1.0  0.35776  0.34133  0.60255  1.0000
  H   H431      1.0  0.30855  0.27441  0.63729  1.0000
  H   H432      1.0  0.29914  0.29489  0.62291  1.0000
  H   H433      1.0  0.31031  0.28110  0.59403  1.0000
  H   H434      1.0  0.33566  0.30424  0.67687  1.0000
  H   H435      1.0  0.32511  0.32391  0.66303  1.0000
  H   H436      1.0  0.35532  0.33271  0.66178  1.0000
  H   H437      1.0  0.35026  0.28501  0.63631  1.0000
  H   H438      1.0  0.37087  0.31331  0.62225  1.0000
  H   H439      1.0  0.35194  0.29209  0.59326  1.0000
  H   H440      1.0  0.27479  0.26113  0.93798  1.0000
  C   C279      1.0  0.28882  0.27808  0.94629  1.0000
  H   H441      1.0  0.44060  0.06375  0.75848  1.0000
  H   H442      1.0  0.25648  0.37258  0.64801  1.0000
  H   H443      1.0  0.36513  0.32675  0.98790  1.0000
  H   H444      1.0  0.33107  0.13829  0.70441  1.0000
  H   H445      1.0  0.29323  0.30889  0.87663  1.0000
  C   C280      1.0  0.30215  0.16387  0.74384  1.0000
  H   H446      1.0  0.30782  0.17837  0.68041  1.0000
  H   H447      1.0  0.28979  0.17046  0.73683  1.0000
  H   H448      1.0  0.31742  0.17854  0.75521  1.0000
  H   H449      1.0  0.29368  0.15054  0.76348  1.0000
  C   C281      1.0  0.32365  0.14951  0.97610  1.0000
  C   C282      1.0  0.45549  0.46837  0.73331  1.0000
  N   N26       1.0  0.30106  0.29305  0.91790  1.0000
  C   C283      1.0  0.45062  0.45491  0.83587  1.0000
  H   H450      1.0  0.32013  0.29164  0.87482  1.0000
  H   H451      1.0  0.32239  0.12919  0.91738  1.0000
  C   C284      1.0  0.28464  0.29762  0.89829  1.0000
  Fe  Fe61      1.0  0.39979  0.99217  0.86075  1.0000
  H   H452      1.0  0.43171  0.44466  0.83986  1.0000
  N   N27       1.0  0.30879  0.15383  0.71507  1.0000
  H   H453      1.0  0.27536  0.13981  0.69265  1.0000
  H   H454      1.0  0.33558  0.18682  0.69858  1.0000
  H   H455      1.0  0.43996  0.46385  0.71945  1.0000
  S   S126      1.0  0.29311  0.22209  0.49966  1.0000
  C   C285      1.0  0.28804  0.13412  0.70144  1.0000
  C   C286      1.0  0.31976  0.17173  0.68927  1.0000
  H   H456      1.0  0.34081  0.15961  0.73709  1.0000
  H   H457      1.0  0.31720  0.13129  0.74425  1.0000
  H   H458      1.0  0.46241  0.42072  0.84588  1.0000
  C   C287      1.0  0.32521  0.14542  0.72568  1.0000
  H   H459      1.0  0.46897  0.05965  0.79589  1.0000
  H   H460      1.0  0.41203  0.99924  0.75639  1.0000
  H   H461      1.0  0.43059  0.41232  0.52561  1.0000
  H   H462      1.0  0.29253  0.12588  0.68007  1.0000
  H   H463      1.0  0.32489  0.16443  0.66733  1.0000
  H   H464      1.0  0.28093  0.28643  0.96276  1.0000
  C   C288      1.0  0.46696  0.45469  0.73012  1.0000
  S   S127      1.0  0.23182  0.32447  0.82680  1.0000
  H   H465      1.0  0.29764  0.26393  0.88787  1.0000
  H   H466      1.0  0.43880  0.45200  0.90013  1.0000
  N   N28       1.0  0.44098  0.03153  0.77079  1.0000
  C   C289      1.0  0.31967  0.31530  0.93016  1.0000
  H   H467      1.0  0.45115  0.40374  0.54162  1.0000
  C   C290      1.0  0.45641  0.48132  0.50289  1.0000
  H   H468      1.0  0.27054  0.28109  0.88854  1.0000
  H   H469      1.0  0.43944  0.41711  0.87397  1.0000
  H   H470      1.0  0.46972  0.44675  0.55156  1.0000
  C   C291      1.0  0.47104  0.45842  0.53180  1.0000
  C   C292      1.0  0.31754  0.11752  0.93933  1.0000
  H   H471      1.0  0.30999  0.00624  0.67564  1.0000
  H   H472      1.0  0.29553  0.11697  0.51050  1.0000
  N   N29       1.0  0.30701  0.12573  0.96567  1.0000
  C   C293      1.0  0.36506  0.29636  0.51158  1.0000
  H   H473      1.0  0.27642  0.30636  0.91339  1.0000
  H   H474      1.0  0.46693  0.45995  0.91618  1.0000
  H   H475      1.0  0.26157  0.38368  0.68951  1.0000
  C   C294      1.0  0.43526  0.39775  0.52665  1.0000
  H   H476      1.0  0.30055  0.27399  0.96147  1.0000
  H   H477      1.0  0.41889  0.04610  0.78752  1.0000
  H   H478      1.0  0.44587  0.04059  0.82242  1.0000
  Fe  Fe62      1.0  0.23549  0.33879  0.77537  1.0000
  Fe  Fe63      1.0  0.29691  0.18909  0.49714  1.0000
  N   N30       1.0  0.46369  0.45276  0.86403  1.0000
  C   C295      1.0  0.36668  0.31871  0.51601  1.0000
  C   C296      1.0  0.31114  0.28110  0.89687  1.0000
  C   C297      1.0  0.45608  0.04115  0.79976  1.0000
  H   H479      1.0  0.29033  0.13813  0.93147  1.0000
  C   C298      1.0  0.42420  0.00700  0.77723  1.0000
  H   H480      1.0  0.47108  0.99576  0.79179  1.0000
  C   C299      1.0  0.42856  0.04540  0.76501  1.0000
  H   H481      1.0  0.30544  0.09964  0.93069  1.0000
  H   H482      1.0  0.46034  0.37577  0.51060  1.0000
  H   H483      1.0  0.46563  0.03105  0.80508  1.0000
  S   S128      1.0  0.34367  0.27730  0.97674  1.0000
  H   H484      1.0  0.31766  0.10914  0.49864  1.0000
  H   H485      1.0  0.32931  0.16175  0.95484  1.0000
  H   H486      1.0  0.41375  0.00561  0.79978  1.0000
  H   H487      1.0  0.46211  0.48051  0.89218  1.0000
  H   H488      1.0  0.25620  0.23890  0.81897  1.0000
  H   H489      1.0  0.46794  0.42591  0.88937  1.0000
  H   H490      1.0  0.27759  0.13200  0.97223  1.0000
  H   H491      1.0  0.27325  0.10850  0.94428  1.0000
  C   C300      1.0  0.45757  0.46169  0.89444  1.0000
  C   C301      1.0  0.28611  0.12609  0.95285  1.0000
  H   H492      1.0  0.42130  0.38321  0.54039  1.0000
  S   S129      1.0  0.22772  0.26083  0.80584  1.0000
  H   H493      1.0  0.45658  0.48652  0.66593  1.0000
  H   H494      1.0  0.46450  0.02213  0.74480  1.0000
  C   C302      1.0  0.23294  0.24978  0.84286  1.0000
  H   H495      1.0  0.45446  0.47343  0.83191  1.0000
  C   C303      1.0  0.44433  0.37061  0.49616  1.0000
  H   H496      1.0  0.33346  0.11715  0.94804  1.0000
  H   H497      1.0  0.28818  0.09181  0.98750  1.0000
  H   H498      1.0  0.26701  0.98848  0.72163  1.0000
  H   H499      1.0  0.33935  0.14986  0.98698  1.0000
  H   H500      1.0  0.47591  0.98869  0.61650  1.0000
  N   N31       1.0  0.43861  0.39021  0.49327  1.0000
  S   S130      1.0  0.38286  0.95237  0.34013  1.0000
  H   H501      1.0  0.46768  0.97054  0.35229  1.0000
  S   S131      1.0  0.41582  0.94069  0.38850  1.0000
  Fe  Fe64      1.0  0.41990  0.95895  0.33971  1.0000
  S   S132      1.0  0.43487  0.94723  0.29584  1.0000
  Fe  Fe65      1.0  0.37985  0.93741  0.39090  1.0000
  S   S133      1.0  0.34554  0.90505  0.40014  1.0000
  S   S134      1.0  0.27898  0.89825  0.01955  1.0000
  Fe  Fe66      1.0  0.24027  0.88353  0.02844  1.0000
  H   H502      1.0  0.39927  0.93798  0.04806  1.0000
  C   C304      1.0  0.32655  0.90074  0.43422  1.0000
  C   C305      1.0  0.33473  0.91040  0.46535  1.0000
  H   H503      1.0  0.36237  0.89629  0.01194  1.0000
  N   N32       1.0  0.31885  0.96180  0.41725  1.0000
  C   C306      1.0  0.28712  0.88293  0.45669  1.0000
  C   C307      1.0  0.30267  0.88707  0.43002  1.0000
  H   H504      1.0  0.35305  0.92082  0.46901  1.0000
  S   S135      1.0  0.22919  0.88627  0.08073  1.0000
  S   S136      1.0  0.39102  0.97178  0.41676  1.0000
  H   H505      1.0  0.29618  0.87942  0.40607  1.0000
  C   C308      1.0  0.33085  0.95045  0.39919  1.0000
  C   C309      1.0  0.47489  0.98515  0.27292  1.0000
  C   C310      1.0  0.24196  0.94812  0.12684  1.0000
  H   H506      1.0  0.30748  0.98446  0.16665  1.0000
  H   H507      1.0  0.26884  0.87210  0.45325  1.0000
  C   C311      1.0  0.45823  0.96207  0.26778  1.0000
  C   C312      1.0  0.38361  0.95453  0.99876  1.0000
  C   C313      1.0  0.30135  0.94476  0.43979  1.0000
  H   H508      1.0  0.46749  0.50800  0.24024  1.0000
  H   H509      1.0  0.30945  0.93837  0.45843  1.0000
  H   H510      1.0  0.37980  0.95948  0.02365  1.0000
  C   C314      1.0  0.46063  0.94980  0.24021  1.0000
  H   H511      1.0  0.26574  0.95721  0.16724  1.0000
  H   H512      1.0  0.35164  0.98020  0.17691  1.0000
  C   C315      1.0  0.25597  0.96299  0.15188  1.0000
  H   H513      1.0  0.40457  0.91768  0.02291  1.0000
  C   C316      1.0  0.40285  0.93406  0.02239  1.0000
  H   H514      1.0  0.46568  0.97221  0.39645  1.0000
  H   H515      1.0  0.28868  0.92912  0.42616  1.0000
  H   H516      1.0  0.24128  0.93122  0.12284  1.0000
  H   H517      1.0  0.44899  0.94637  0.45727  1.0000
  H   H518      1.0  0.35715  0.91730  0.03548  1.0000
  H   H519      1.0  0.44762  0.93209  0.23566  1.0000
  C   C317      1.0  0.46156  0.95755  0.47501  1.0000
  H   H520      1.0  0.32650  0.96798  0.20325  1.0000
  H   H521      1.0  0.31862  0.93421  0.38627  1.0000
  H   H522      1.0  0.41994  0.94835  0.01485  1.0000
  H   H523      1.0  0.34311  0.96214  0.38033  1.0000
  H   H524      1.0  0.34102  0.94560  0.41631  1.0000
  C   C318      1.0  0.29540  0.89190  0.48810  1.0000
  Fe  Fe67      1.0  0.42719  0.97637  0.41088  1.0000
  C   C319      1.0  0.22960  0.97700  0.11329  1.0000
  C   C320      1.0  0.36211  0.91339  0.01062  1.0000
  H   H525      1.0  0.29496  0.95569  0.37798  1.0000
  H   H526      1.0  0.34471  0.97586  0.45484  1.0000
  C   C321      1.0  0.33576  0.98169  0.43672  1.0000
  C   C322      1.0  0.25729  0.98517  0.15733  1.0000
  N   N33       1.0  0.38461  0.93210  0.99947  1.0000
  H   H527      1.0  0.29163  0.95251  0.45357  1.0000
  C   C323      1.0  0.34304  0.98389  0.19850  1.0000
  C   C324      1.0  0.22837  0.95488  0.10778  1.0000
  C   C325      1.0  0.30761  0.97028  0.39327  1.0000
  C   C326      1.0  0.46686  0.98113  0.47732  1.0000
  C   C327      1.0  0.31927  0.90567  0.49221  1.0000
  C   C328      1.0  0.46996  0.49294  0.24592  1.0000
  C   C329      1.0  0.47126  0.98597  0.00927  1.0000
  H   H528      1.0  0.29833  0.97895  0.40595  1.0000
  H   H529      1.0  0.32055  0.98321  0.37607  1.0000
  H   H530      1.0  0.35421  0.98675  0.22042  1.0000
  Fe  Fe68      1.0  0.39532  0.98698  0.36574  1.0000
  H   H531      1.0  0.44653  0.48815  0.99409  1.0000
  C   C330      1.0  0.47544  0.48946  0.48089  1.0000
  H   H532      1.0  0.34811  0.91111  0.99333  1.0000
  S   S137      1.0  0.38422  0.95833  0.83275  1.0000
  C   C331      1.0  0.46401  0.48781  0.75485  1.0000
  S   S138      1.0  0.41084  0.93988  0.88396  1.0000
  Fe  Fe69      1.0  0.41942  0.96004  0.83612  1.0000
  S   S139      1.0  0.43266  0.94831  0.79056  1.0000
  Fe  Fe70      1.0  0.37702  0.94144  0.88281  1.0000
  S   S140      1.0  0.34315  0.90939  0.89474  1.0000
  H   H533      1.0  0.40027  0.96898  0.99005  1.0000
  H   H534      1.0  0.30858  0.95898  0.68063  1.0000
  H   H535      1.0  0.37682  0.92537  0.94781  1.0000
  C   C332      1.0  0.32373  0.90741  0.92704  1.0000
  C   C333      1.0  0.30529  0.88553  0.93447  1.0000
  C   C334      1.0  0.29046  0.88282  0.96151  1.0000
  N   N34       1.0  0.28591  0.97319  0.69593  1.0000
  C   C335      1.0  0.26492  0.95226  0.68554  1.0000
  C   C336      1.0  0.32667  0.92679  0.94615  1.0000
  H   H536      1.0  0.30298  0.87042  0.91993  1.0000
  H   H537      1.0  0.24142  0.91393  0.93478  1.0000
  S   S141      1.0  0.27705  0.88568  0.52335  1.0000
  H   H538      1.0  0.34049  0.94380  0.94023  1.0000
  C   C337      1.0  0.22679  0.95636  0.59103  1.0000
  H   H539      1.0  0.26359  0.87814  0.88861  1.0000
  C   C338      1.0  0.47387  0.98622  0.77158  1.0000
  H   H540      1.0  0.25897  0.93843  0.70469  1.0000
  H   H541      1.0  0.45073  0.93219  0.73674  1.0000
  C   C339      1.0  0.45823  0.96278  0.76643  1.0000
  H   H542      1.0  0.40702  0.94000  0.95711  1.0000
  H   H543      1.0  0.29937  0.95381  0.72321  1.0000
  H   H544      1.0  0.25053  0.95655  0.68125  1.0000
  C   C340      1.0  0.22923  0.90157  0.91643  1.0000
  H   H545      1.0  0.32046  0.98230  0.71042  1.0000
  C   C341      1.0  0.46331  0.95600  0.96788  1.0000
  C   C342      1.0  0.46000  0.93079  0.62363  1.0000
  H   H546      1.0  0.44939  0.95425  0.67086  1.0000
  Fe  Fe71      1.0  0.42475  0.97495  0.90912  1.0000
  H   H547      1.0  0.32585  0.91255  0.51645  1.0000
  C   C343      1.0  0.23345  0.86924  0.93876  1.0000
  C   C344      1.0  0.46102  0.97543  0.97914  1.0000
  H   H548      1.0  0.27487  0.97056  0.74677  1.0000
  H   H549      1.0  0.47134  0.92959  0.60361  1.0000
  Fe  Fe72      1.0  0.23844  0.87435  0.52878  1.0000
  C   C345      1.0  0.29387  0.90202  0.98138  1.0000
  H   H550      1.0  0.24513  0.88082  0.95823  1.0000
  S   S142      1.0  0.39032  0.97520  0.91068  1.0000
  H   H551      1.0  0.26780  0.94468  0.66211  1.0000
  H   H552      1.0  0.23828  0.85502  0.93390  1.0000
  H   H553      1.0  0.45551  0.94766  0.94481  1.0000
  C   C346      1.0  0.44109  0.95242  0.64642  1.0000
  C   C347      1.0  0.23612  0.98689  0.64601  1.0000
  H   H554      1.0  0.45495  0.49822  0.75730  1.0000
  C   C348      1.0  0.24374  0.97976  0.58905  1.0000
  C   C349      1.0  0.46257  0.95042  0.74063  1.0000
  C   C350      1.0  0.38994  0.92646  0.96596  1.0000
  H   H555      1.0  0.46816  0.93005  0.49398  1.0000
  C   C351      1.0  0.25858  0.89212  0.89463  1.0000
  C   C352      1.0  0.44447  0.94931  0.58724  1.0000
  N   N35       1.0  0.45594  0.95133  0.61922  1.0000
  C   C353      1.0  0.30439  0.96672  0.70285  1.0000
  H   H556      1.0  0.42426  0.93636  0.64728  1.0000
  C   C354      1.0  0.31200  0.92403  0.97347  1.0000
  H   H557      1.0  0.39042  0.90944  0.96525  1.0000
  H   H558      1.0  0.26036  0.90208  0.87160  1.0000
  H   H559      1.0  0.44361  0.91425  0.62318  1.0000
  H   H560      1.0  0.27717  0.86563  0.96803  1.0000
  H   H561      1.0  0.22993  0.91174  0.89406  1.0000
  N   N36       1.0  0.23491  0.88236  0.90841  1.0000
  H   H562      1.0  0.46856  0.93164  0.64755  1.0000
  H   H563      1.0  0.44198  0.96494  0.58226  1.0000
  H   H564      1.0  0.27146  0.90422  0.91254  1.0000
  S   S143      1.0  0.23005  0.88416  0.57900  1.0000
  C   C355      1.0  0.47252  0.94836  0.49581  1.0000
  H   H565      1.0  0.45486  0.94756  0.56636  1.0000
  H   H566      1.0  0.42730  0.93368  0.58642  1.0000
  C   C356      1.0  0.28078  0.98322  0.72608  1.0000
  H   H567      1.0  0.29649  0.98338  0.64554  1.0000
  H   H568      1.0  0.43752  0.96760  0.64363  1.0000
  H   H569      1.0  0.37004  0.95370  0.98173  1.0000
  H   H570      1.0  0.31498  0.93893  0.98896  1.0000
  H   H571      1.0  0.25295  0.98630  0.56601  1.0000
  S   S144      1.0  0.44501  0.98682  0.95730  1.0000
  C   C357      1.0  0.47590  0.94742  0.98645  1.0000
  C   C358      1.0  0.51417  0.99401  0.34882  1.0000
  H   H572      1.0  0.48549  0.01350  0.34838  1.0000
  S   S145      1.0  0.61096  0.00195  0.09352  1.0000
  H   H573      1.0  0.59293  0.03443  0.00008  1.0000
  C   C359      1.0  0.54841  0.01192  0.01775  1.0000
  H   H574      1.0  0.49469  0.47374  0.30331  1.0000
  H   H575      1.0  0.63056  0.01180  0.48691  1.0000
  H   H576      1.0  0.69429  0.11592  0.46864  1.0000
  S   S146      1.0  0.54374  0.99547  0.10447  1.0000
  C   C360      1.0  0.56903  0.98901  0.01642  1.0000
  H   H577      1.0  0.65425  0.00869  0.06650  1.0000
  H   H578      1.0  0.50313  0.45725  0.00096  1.0000
  H   H579      1.0  0.66962  0.08750  0.46899  1.0000
  H   H580      1.0  0.63747  0.06894  0.01692  1.0000
  H   H581      1.0  0.53348  0.99745  0.03019  1.0000
  C   C361      1.0  0.67576  0.07414  0.40846  1.0000
  C   C362      1.0  0.66167  0.05488  0.01882  1.0000
  H   H582      1.0  0.65839  0.06332  0.41950  1.0000
  C   C363      1.0  0.65038  0.02167  0.05548  1.0000
  C   C364      1.0  0.62970  0.02230  0.06401  1.0000
  C   C365      1.0  0.62506  0.03936  0.04983  1.0000
  C   C366      1.0  0.64097  0.05554  0.02734  1.0000
  H   H583      1.0  0.57987  0.99940  0.03741  1.0000
  H   H584      1.0  0.71000  0.11202  0.38040  1.0000
  H   H585      1.0  0.60963  0.04056  0.05697  1.0000
  H   H586      1.0  0.54156  0.02195  0.00338  1.0000
  H   H587      1.0  0.69798  0.09009  0.46630  1.0000
  N   N37       1.0  0.68620  0.09833  0.42140  1.0000
  C   C367      1.0  0.49417  0.99545  0.25144  1.0000
  H   H588      1.0  0.55965  0.02360  0.03750  1.0000
  C   C368      1.0  0.67216  0.10974  0.41138  1.0000
  C   C369      1.0  0.66620  0.03774  0.03293  1.0000
  H   H589      1.0  0.65423  0.10026  0.42126  1.0000
  H   H590      1.0  0.72079  0.10304  0.41478  1.0000
  H   H591      1.0  0.68201  0.03700  0.02671  1.0000
  H   H592      1.0  0.67405  0.07360  0.38111  1.0000
  H   H593      1.0  0.54137  0.48186  0.21292  1.0000
  H   H594      1.0  0.50711  0.01323  0.25581  1.0000
  H   H595      1.0  0.67958  0.12803  0.42073  1.0000
  S   S147      1.0  0.52198  0.99628  0.19889  1.0000
  C   C370      1.0  0.68705  0.09803  0.45789  1.0000
  Fe  Fe73      1.0  0.71754  0.05915  0.46864  1.0000
  H   H596      1.0  0.51036  0.03138  0.37262  1.0000
  H   H597      1.0  0.67116  0.11029  0.38398  1.0000
  C   C371      1.0  0.49429  0.01454  0.37215  1.0000
  H   H598      1.0  0.53340  0.47888  0.27307  1.0000
  S   S148      1.0  0.67837  0.04141  0.47517  1.0000
  H   H599      1.0  0.52765  0.01255  0.40897  1.0000
  H   H600      1.0  0.68643  0.06533  0.41442  1.0000
  H   H601      1.0  0.48283  0.01527  0.39235  1.0000
  C   C372      1.0  0.48547  0.47381  0.28136  1.0000
  H   H602      1.0  0.50017  0.99794  0.42906  1.0000
  H   H603      1.0  0.50573  0.99199  0.32447  1.0000
  N   N38       1.0  0.56105  0.00284  0.99632  1.0000
  C   C373      1.0  0.49245  0.48220  0.48436  1.0000
  C   C374      1.0  0.70985  0.11137  0.40788  1.0000
  H   H604      1.0  0.53068  0.01043  0.34798  1.0000
  H   H605      1.0  0.70911  0.98953  0.38759  1.0000
  H   H606      1.0  0.71852  0.12964  0.41732  1.0000
  C   C375      1.0  0.51073  0.99663  0.40807  1.0000
  C   C376      1.0  0.49077  0.46402  0.99926  1.0000
  N   N39       1.0  0.49911  0.99445  0.37618  1.0000
  H   H607      1.0  0.47922  0.43931  0.26557  1.0000
  C   C377      1.0  0.47665  0.45431  0.25991  1.0000
  S   S149      1.0  0.57268  0.99156  0.65706  1.0000
  C   C378      1.0  0.49547  0.48010  0.77028  1.0000
  C   C379      1.0  0.63689  0.02351  0.50790  1.0000
  C   C380      1.0  0.54557  0.98780  0.97021  1.0000
  H   H608      1.0  0.53882  0.99750  0.95489  1.0000
  H   H609      1.0  0.48761  0.01366  0.50241  1.0000
  S   S150      1.0  0.61045  0.03682  0.59279  1.0000
  C   C381      1.0  0.66028  0.03997  0.50905  1.0000
  H   H610      1.0  0.62285  0.00245  0.60972  1.0000
  Fe  Fe74      1.0  0.71575  0.07782  0.97340  1.0000
  H   H611      1.0  0.67049  0.00445  0.59991  1.0000
  H   H612      1.0  0.68615  0.06800  0.53730  1.0000
  H   H613      1.0  0.65600  0.00023  0.83929  1.0000
  H   H614      1.0  0.49628  0.47308  0.66842  1.0000
  H   H615      1.0  0.49909  0.46629  0.87878  1.0000
  C   C382      1.0  0.65670  0.99519  0.58151  1.0000
  H   H616      1.0  0.68820  0.99611  0.81110  1.0000
  C   C383      1.0  0.66822  0.05517  0.53615  1.0000
  C   C384      1.0  0.65274  0.05405  0.56158  1.0000
  C   C385      1.0  0.62934  0.03752  0.56044  1.0000
  C   C386      1.0  0.62152  0.02216  0.53354  1.0000
  C   C387      1.0  0.62698  0.98947  0.62179  1.0000
  C   C388      1.0  0.49375  0.48058  0.97491  1.0000
  H   H617      1.0  0.65890  0.06608  0.58227  1.0000
  H   H618      1.0  0.60351  0.00958  0.53214  1.0000
  H   H619      1.0  0.49600  0.45023  0.74631  1.0000
  S   S151      1.0  0.71947  0.06650  0.92171  1.0000
  H   H620      1.0  0.50513  0.01551  0.75447  1.0000
  C   C389      1.0  0.48694  0.46065  0.74876  1.0000
  C   C390      1.0  0.49013  0.46668  0.50999  1.0000
  C   C391      1.0  0.58111  0.02256  0.98102  1.0000
  S   S152      1.0  0.54104  0.00361  0.60600  1.0000
  H   H621      1.0  0.50331  0.46112  0.51301  1.0000
  H   H622      1.0  0.59140  0.01640  0.96530  1.0000
  Fe  Fe75      1.0  0.57631  0.00520  0.60526  1.0000
  C   C392      1.0  0.49322  0.99731  0.75050  1.0000
  H   H623      1.0  0.67337  0.99212  0.77257  1.0000
  H   H624      1.0  0.48977  0.46826  0.60744  1.0000
  C   C393      1.0  0.48863  0.46655  0.85738  1.0000
  H   H625      1.0  0.64112  0.99541  0.80069  1.0000
  H   H626      1.0  0.49318  0.48509  0.85240  1.0000
  H   H627      1.0  0.51102  0.48463  0.78410  1.0000
  C   C394      1.0  0.72312  0.98812  0.84415  1.0000
  C   C395      1.0  0.72044  0.99248  0.90363  1.0000
  H   H628      1.0  0.50679  0.99735  0.53912  1.0000
  S   S153      1.0  0.52144  0.00020  0.69774  1.0000
  C   C396      1.0  0.48328  0.99536  0.50055  1.0000
  H   H629      1.0  0.65370  0.00866  0.56856  1.0000
  H   H630      1.0  0.57569  0.03318  0.96530  1.0000
  H   H631      1.0  0.64001  0.99886  0.64107  1.0000
  H   H632      1.0  0.49415  0.45979  0.83537  1.0000
  S   S154      1.0  0.68136  0.07587  0.99080  1.0000
  C   C397      1.0  0.49419  0.48711  0.60662  1.0000
  Fe  Fe76      1.0  0.55291  0.56682  0.38719  1.0000
  S   S155      1.0  0.56615  0.54372  0.41009  1.0000
  S   S156      1.0  0.57239  0.60657  0.39285  1.0000
  Fe  Fe77      1.0  0.51864  0.52657  0.34305  1.0000
  S   S157      1.0  0.52991  0.50134  0.36342  1.0000
  S   S158      1.0  0.49341  0.51852  0.30020  1.0000
  Fe  Fe78      1.0  0.52869  0.51668  0.41336  1.0000
  C   C398      1.0  0.61893  0.87385  0.19340  1.0000
  Fe  Fe79      1.0  0.56612  0.53057  0.35845  1.0000
  S   S159      1.0  0.59332  0.52165  0.33598  1.0000
  S   S160      1.0  0.51527  0.54073  0.39337  1.0000
  S   S161      1.0  0.55488  0.55476  0.33509  1.0000
  H   H633      1.0  0.70495  0.88937  0.39648  1.0000
  H   H634      1.0  0.60048  0.89121  0.14960  1.0000
  S   S162      1.0  0.68800  0.56980  0.25475  1.0000
  C   C399      1.0  0.70092  0.59314  0.33706  1.0000
  Fe  Fe80      1.0  0.71355  0.60450  0.23258  1.0000
  Fe  Fe81      1.0  0.67280  0.89370  0.31209  1.0000
  S   S163      1.0  0.63808  0.88352  0.33462  1.0000
  S   S164      1.0  0.70672  0.91733  0.33674  1.0000
  Fe  Fe82      1.0  0.65211  0.85916  0.25348  1.0000
  S   S165      1.0  0.61574  0.84664  0.27247  1.0000
  S   S166      1.0  0.66385  0.85089  0.20373  1.0000
  Fe  Fe83      1.0  0.62651  0.88465  0.28274  1.0000
  S   S167      1.0  0.60917  0.90751  0.27282  1.0000
  Fe  Fe84      1.0  0.63087  0.84666  0.32265  1.0000
  S   S168      1.0  0.61340  0.81929  0.36264  1.0000
  S   S169      1.0  0.66204  0.89725  0.26108  1.0000
  S   S170      1.0  0.66637  0.85664  0.30279  1.0000
  Fe  Fe85      1.0  0.63424  0.75071  0.07139  1.0000
  S   S171      1.0  0.66959  0.77092  0.04899  1.0000
  S   S172      1.0  0.61648  0.75887  0.11484  1.0000
  Fe  Fe86      1.0  0.62383  0.70704  0.02962  1.0000
  H   H635      1.0  0.54448  0.58707  0.01991  1.0000
  S   S173      1.0  0.59818  0.66843  0.02896  1.0000
  Fe  Fe87      1.0  0.67287  0.73776  0.05452  1.0000
  S   S174      1.0  0.70508  0.73783  0.07562  1.0000
  H   H636      1.0  0.61768  0.67728  0.45813  1.0000
  S   S175      1.0  0.66629  0.78225  0.45797  1.0000
  S   S176      1.0  0.63895  0.71892  0.08007  1.0000
  S   S177      1.0  0.61651  0.73756  0.02245  1.0000
  Fe  Fe88      1.0  0.54190  0.93861  0.14054  1.0000
  S   S178      1.0  0.54144  0.90535  0.15997  1.0000
  Fe  Fe89      1.0  0.52270  0.95850  0.08644  1.0000
  H   H637      1.0  0.49642  0.52762  0.03875  1.0000
  S   S179      1.0  0.55251  0.95003  0.08842  1.0000
  S   S180      1.0  0.50981  0.94327  0.13707  1.0000
  N   N40       1.0  0.50933  0.91766  0.24325  1.0000
  C   C400      1.0  0.71013  0.75629  0.46932  1.0000
  H   H638      1.0  0.56320  0.50859  0.19571  1.0000
  C   C401      1.0  0.59147  0.90644  0.23952  1.0000
  C   C402      1.0  0.59190  0.92731  0.22909  1.0000
  C   C403      1.0  0.57738  0.92731  0.20377  1.0000
  C   C404      1.0  0.56189  0.90633  0.18903  1.0000
  C   C405      1.0  0.56148  0.88540  0.19936  1.0000
  C   C406      1.0  0.57624  0.88543  0.22446  1.0000
  H   H639      1.0  0.60353  0.94363  0.24074  1.0000
  H   H640      1.0  0.57800  0.94356  0.19610  1.0000
  H   H641      1.0  0.54931  0.86904  0.18841  1.0000
  H   H642      1.0  0.57528  0.86917  0.23294  1.0000
  C   C407      1.0  0.65019  0.82513  0.17950  1.0000
  C   C408      1.0  0.62947  0.80625  0.18927  1.0000
  C   C409      1.0  0.61927  0.78615  0.16908  1.0000
  C   C410      1.0  0.62969  0.78469  0.13906  1.0000
  C   C411      1.0  0.65035  0.80361  0.12925  1.0000
  C   C412      1.0  0.66052  0.82370  0.14939  1.0000
  H   H643      1.0  0.62132  0.80713  0.21236  1.0000
  H   H644      1.0  0.60325  0.77163  0.17687  1.0000
  H   H645      1.0  0.65837  0.80287  0.10597  1.0000
  H   H646      1.0  0.67649  0.83828  0.14152  1.0000
  C   C413      1.0  0.62828  0.80899  0.38879  1.0000
  C   C414      1.0  0.61682  0.79551  0.41654  1.0000
  C   C415      1.0  0.62821  0.78729  0.43813  1.0000
  C   C416      1.0  0.65115  0.79234  0.43196  1.0000
  C   C417      1.0  0.66260  0.80585  0.40427  1.0000
  C   C418      1.0  0.65126  0.81415  0.38281  1.0000
  H   H647      1.0  0.59910  0.79163  0.42152  1.0000
  H   H648      1.0  0.61933  0.77727  0.45966  1.0000
  H   H649      1.0  0.68033  0.80980  0.39922  1.0000
  H   H650      1.0  0.66023  0.82436  0.36145  1.0000
  C   C419      1.0  0.51399  0.52904  0.03558  1.0000
  N   N41       1.0  0.68685  0.76868  0.16671  1.0000
  C   C420      1.0  0.70704  0.95794  0.36447  1.0000
  H   H651      1.0  0.60062  0.86196  0.18756  1.0000
  H   H652      1.0  0.68960  0.95182  0.35590  1.0000
  H   H653      1.0  0.55419  0.97345  0.02706  1.0000
  C   C421      1.0  0.68279  0.68492  0.14226  1.0000
  C   C422      1.0  0.68306  0.69982  0.11698  1.0000
  C   C423      1.0  0.70401  0.71689  0.10446  1.0000
  H   H654      1.0  0.51367  0.98125  0.41284  1.0000
  C   C424      1.0  0.56077  0.72183  0.07719  1.0000
  H   H655      1.0  0.66648  0.67221  0.15244  1.0000
  H   H656      1.0  0.66703  0.69840  0.10775  1.0000
  C   C425      1.0  0.47722  0.97259  0.37573  1.0000
  H   H657      1.0  0.52234  0.50364  0.23752  1.0000
  C   C426      1.0  0.57836  0.62365  0.42955  1.0000
  C   C427      1.0  0.56304  0.61704  0.45645  1.0000
  C   C428      1.0  0.66749  0.76970  0.18481  1.0000
  S   S181      1.0  0.72279  0.63944  0.25508  1.0000
  C   C429      1.0  0.60238  0.66065  0.45780  1.0000
  C   C430      1.0  0.59806  0.64551  0.43045  1.0000
  H   H658      1.0  0.54770  0.60040  0.45594  1.0000
  C   C431      1.0  0.49876  0.92340  0.27220  1.0000
  H   H659      1.0  0.68586  0.85924  0.40553  1.0000
  H   H660      1.0  0.60999  0.65073  0.40974  1.0000
  C   C432      1.0  0.61981  0.53729  0.31425  1.0000
  C   C433      1.0  0.62913  0.56093  0.30531  1.0000
  C   C434      1.0  0.64999  0.57155  0.28661  1.0000
  C   C435      1.0  0.66140  0.55844  0.27687  1.0000
  C   C436      1.0  0.65189  0.53500  0.28600  1.0000
  C   C437      1.0  0.63138  0.52457  0.30438  1.0000
  H   H661      1.0  0.62032  0.57096  0.31271  1.0000
  H   H662      1.0  0.65720  0.58972  0.27981  1.0000
  H   H663      1.0  0.66048  0.52471  0.27880  1.0000
  H   H664      1.0  0.62440  0.50636  0.31097  1.0000
  H   H665      1.0  0.62716  0.91467  0.13534  1.0000
  H   H666      1.0  0.61917  0.88407  0.21587  1.0000
  H   H667      1.0  0.52060  0.95128  0.22069  1.0000
  C   C438      1.0  0.61868  0.90285  0.15653  1.0000
  H   H668      1.0  0.53694  0.68969  0.12298  1.0000
  C   C439      1.0  0.53317  0.57115  0.03416  1.0000
  H   H669      1.0  0.71841  0.56631  0.31104  1.0000
  H   H670      1.0  0.56323  0.72948  0.10256  1.0000
  S   S182      1.0  0.50250  0.94682  0.03818  1.0000
  N   N42       1.0  0.67438  0.88362  0.42407  1.0000
  H   H671      1.0  0.53588  0.93563  0.20727  1.0000
  C   C440      1.0  0.68651  0.87624  0.39911  1.0000
  H   H672      1.0  0.67602  0.89078  0.47624  1.0000
  C   C441      1.0  0.64974  0.86639  0.42513  1.0000
  C   C442      1.0  0.72459  0.66870  0.07134  1.0000
  C   C443      1.0  0.68467  0.88510  0.45684  1.0000
  H   H673      1.0  0.55137  0.66967  0.04318  1.0000
  C   C444      1.0  0.49158  0.90539  0.21800  1.0000
  H   H674      1.0  0.51665  0.57177  0.03917  1.0000
  H   H675      1.0  0.49162  0.93545  0.26543  1.0000
  C   C445      1.0  0.55151  0.54935  0.00987  1.0000
  H   H676      1.0  0.58920  0.71866  0.38098  1.0000
  C   C446      1.0  0.72468  0.71834  0.11671  1.0000
  H   H677      1.0  0.57551  0.67938  0.40830  1.0000
  H   H678      1.0  0.59327  0.52468  0.25704  1.0000
  C   C447      1.0  0.57642  0.69616  0.09338  1.0000
  H   H679      1.0  0.61816  0.91389  0.17762  1.0000
  C   C448      1.0  0.53547  0.68315  0.09707  1.0000
  H   H680      1.0  0.48008  0.95697  0.37834  1.0000
  Fe  Fe90      1.0  0.65231  0.75559  0.00039  1.0000
  H   H681      1.0  0.66831  0.73206  0.15511  1.0000
  S   S183      1.0  0.51684  0.49167  0.45756  1.0000
  H   H682      1.0  0.71771  0.58951  0.39574  1.0000
  H   H683      1.0  0.65063  0.75788  0.17341  1.0000
  C   C449      1.0  0.52758  0.93940  0.22908  1.0000
  C   C450      1.0  0.51943  0.90243  0.25360  1.0000
  C   C451      1.0  0.58655  0.65444  0.48407  1.0000
  H   H684      1.0  0.59259  0.74345  0.40540  1.0000
  H   H685      1.0  0.60638  0.70818  0.46394  1.0000
  S   S184      1.0  0.65842  0.72384  0.00432  1.0000
  H   H686      1.0  0.67867  0.87421  0.37428  1.0000
  H   H687      1.0  0.57918  0.70321  0.11910  1.0000
  C   C452      1.0  0.58197  0.72424  0.40241  1.0000
  N   N43       1.0  0.52926  0.54968  0.01587  1.0000
  H   H688      1.0  0.56982  0.69825  0.02847  1.0000
  N   N44       1.0  0.63097  0.88934  0.16542  1.0000
  C   C453      1.0  0.72307  0.58233  0.37404  1.0000
  H   H689      1.0  0.52103  0.52953  0.06061  1.0000
  H   H690      1.0  0.53932  0.68855  0.03094  1.0000
  H   H691      1.0  0.68965  0.79369  0.12993  1.0000
  H   H692      1.0  0.58219  0.73847  0.46532  1.0000
  H   H693      1.0  0.59169  0.62346  0.00672  1.0000
  H   H694      1.0  0.49144  0.98560  0.05107  1.0000
  H   H695      1.0  0.61377  0.86249  0.12910  1.0000
  H   H696      1.0  0.53198  0.66457  0.09811  1.0000
  H   H697      1.0  0.55396  0.71570  0.45562  1.0000
  H   H698      1.0  0.54161  0.57232  0.05830  1.0000
  H   H699      1.0  0.57426  0.67800  0.09390  1.0000
  H   H700      1.0  0.59251  0.70671  0.07937  1.0000
  H   H701      1.0  0.69902  0.74360  0.15518  1.0000
  H   H702      1.0  0.63987  0.87156  0.44319  1.0000
  S   S185      1.0  0.71277  0.61601  0.18076  1.0000
  H   H703      1.0  0.54623  0.72350  0.06567  1.0000
  H   H704      1.0  0.50639  0.88638  0.26590  1.0000
  H   H705      1.0  0.66994  0.90658  0.39003  1.0000
  C   C454      1.0  0.60580  0.71684  0.44066  1.0000
  C   C455      1.0  0.55826  0.49728  0.21794  1.0000
  H   H706      1.0  0.48337  0.91621  0.20986  1.0000
  C   C456      1.0  0.63149  0.87506  0.13686  1.0000
  H   H707      1.0  0.64044  0.88614  0.11519  1.0000
  H   H708      1.0  0.56425  0.72099  0.39584  1.0000
  H   H709      1.0  0.66904  0.78764  0.18464  1.0000
  H   H710      1.0  0.72381  0.78481  0.16861  1.0000
  H   H711      1.0  0.70964  0.78027  0.20824  1.0000
  H   H712      1.0  0.48434  0.90749  0.28286  1.0000
  H   H713      1.0  0.62721  0.86278  0.19996  1.0000
  H   H714      1.0  0.70088  0.60215  0.31376  1.0000
  C   C457      1.0  0.65481  0.90555  0.17508  1.0000
  H   H715      1.0  0.56634  0.67645  0.45066  1.0000
  H   H716      1.0  0.65502  0.91672  0.19645  1.0000
  H   H717      1.0  0.66678  0.76452  0.21108  1.0000
  H   H718      1.0  0.71110  0.66795  0.08917  1.0000
  N   N45       1.0  0.55665  0.69729  0.07779  1.0000
  H   H719      1.0  0.64074  0.86474  0.14298  1.0000
  H   H720      1.0  0.51192  0.51262  0.02356  1.0000
  H   H721      1.0  0.55001  0.68185  0.41996  1.0000
  H   H722      1.0  0.71989  0.79715  0.44089  1.0000
  H   H723      1.0  0.66455  0.91734  0.15445  1.0000
  C   C458      1.0  0.68427  0.74470  0.16779  1.0000
  N   N46       1.0  0.58191  0.71169  0.43277  1.0000
  H   H724      1.0  0.67004  0.76399  0.12010  1.0000
  H   H725      1.0  0.48100  0.95081  0.19693  1.0000
  C   C459      1.0  0.71808  0.97930  0.38245  1.0000
  H   H726      1.0  0.52633  0.89671  0.23200  1.0000
  H   H727      1.0  0.66444  0.89589  0.18253  1.0000
  H   H728      1.0  0.58517  0.54281  0.23274  1.0000
  C   C460      1.0  0.55407  0.68804  0.04364  1.0000
  C   C461      1.0  0.68680  0.77537  0.13194  1.0000
  H   H729      1.0  0.57940  0.54006  0.27646  1.0000
  H   H730      1.0  0.54139  0.94920  0.24722  1.0000
  H   H731      1.0  0.71057  0.56349  0.37174  1.0000
  H   H732      1.0  0.70517  0.62892  0.10638  1.0000
  H   H733      1.0  0.70332  0.89788  0.45674  1.0000
  H   H734      1.0  0.70053  0.77379  0.11704  1.0000
  C   C462      1.0  0.67669  0.90677  0.41519  1.0000
  H   H735      1.0  0.69456  0.75775  0.46151  1.0000
  H   H736      1.0  0.57671  0.73305  0.06298  1.0000
  H   H737      1.0  0.49917  0.90125  0.19553  1.0000
  Fe  Fe91      1.0  0.53228  0.97967  0.15557  1.0000
  H   H738      1.0  0.69499  0.60089  0.35742  1.0000
  H   H739      1.0  0.68317  0.86790  0.46438  1.0000
  H   H740      1.0  0.52018  0.68361  0.08599  1.0000
  H   H741      1.0  0.68355  0.73865  0.19361  1.0000
  C   C463      1.0  0.70888  0.78498  0.18208  1.0000
  C   C464      1.0  0.70341  0.68647  0.15477  1.0000
  H   H742      1.0  0.66722  0.91271  0.43283  1.0000
  H   H743      1.0  0.69507  0.92027  0.41495  1.0000
  C   C465      1.0  0.57967  0.53032  0.25364  1.0000
  H   H744      1.0  0.68778  0.57457  0.33425  1.0000
  H   H745      1.0  0.61706  0.73591  0.44398  1.0000
  C   C466      1.0  0.48621  0.95801  0.01653  1.0000
  H   H746      1.0  0.71128  0.80323  0.18188  1.0000
  C   C467      1.0  0.71882  0.94472  0.35764  1.0000
  H   H747      1.0  0.71504  0.74788  0.44864  1.0000
  H   H748      1.0  0.64740  0.84881  0.43223  1.0000
  H   H749      1.0  0.64154  0.86441  0.40058  1.0000
  S   S186      1.0  0.56367  0.97411  0.16171  1.0000
  H   H750      1.0  0.53397  0.91158  0.27098  1.0000
  H   H751      1.0  0.51161  0.93210  0.29199  1.0000
  H   H752      1.0  0.56345  0.48825  0.28145  1.0000
  H   H753      1.0  0.61360  0.71055  0.42079  1.0000
  H   H754      1.0  0.57183  0.71022  0.48388  1.0000
  H   H755      1.0  0.70954  0.62243  0.06421  1.0000
  H   H756      1.0  0.54426  0.53094  0.22231  1.0000
  C   C468      1.0  0.47964  0.96027  0.21837  1.0000
  H   H757      1.0  0.56008  0.54938  0.03344  1.0000
  C   C469      1.0  0.56785  0.68629  0.42759  1.0000
  N   N47       1.0  0.55697  0.51011  0.24775  1.0000
  C   C470      1.0  0.48375  0.97732  0.02791  1.0000
  S   S187      1.0  0.70188  0.66891  0.18893  1.0000
  C   C471      1.0  0.56699  0.63250  0.48335  1.0000
  H   H758      1.0  0.47701  0.50143  0.46137  1.0000
  H   H759      1.0  0.51836  0.97923  0.35141  1.0000
  C   C472      1.0  0.57203  0.71940  0.46057  1.0000
  Fe  Fe92      1.0  0.57299  0.98611  0.10902  1.0000
  C   C473      1.0  0.49678  0.98300  0.22423  1.0000
  Fe  Fe93      1.0  0.72428  0.65173  0.20263  1.0000
  C   C474      1.0  0.48217  0.49326  0.27449  1.0000
  C   C475      1.0  0.55040  0.49442  0.27655  1.0000
  H   H760      1.0  0.47769  0.88868  0.22754  1.0000
  C   C476      1.0  0.72441  0.70314  0.14168  1.0000
  H   H761      1.0  0.57952  0.98266  0.00155  1.0000
  H   H762      1.0  0.71611  0.66215  0.04712  1.0000
  C   C477      1.0  0.71846  0.63037  0.08770  1.0000
  H   H763      1.0  0.53745  0.52733  0.26567  1.0000
  H   H764      1.0  0.54917  0.50358  0.29934  1.0000
  C   C478      1.0  0.53952  0.51838  0.24304  1.0000
  H   H765      1.0  0.70508  0.74423  0.49078  1.0000
  N   N48       1.0  0.72395  0.59508  0.34353  1.0000
  H   H766      1.0  0.57127  0.49078  0.22087  1.0000
  H   H767      1.0  0.56361  0.56475  0.99537  1.0000
  H   H768      1.0  0.54910  0.53345  0.99564  1.0000
  Fe  Fe94      1.0  0.53842  0.56895  0.89533  1.0000
  S   S188      1.0  0.56058  0.55488  0.91738  1.0000
  S   S189      1.0  0.53849  0.60254  0.91285  1.0000
  Fe  Fe95      1.0  0.52088  0.53076  0.84105  1.0000
  S   S190      1.0  0.54325  0.51505  0.85902  1.0000
  S   S191      1.0  0.65356  0.72485  0.50057  1.0000
  Fe  Fe96      1.0  0.53048  0.51945  0.90968  1.0000
  H   H769      1.0  0.48969  0.97260  0.59906  1.0000
  Fe  Fe97      1.0  0.57123  0.55235  0.86476  1.0000
  S   S192      1.0  0.61016  0.57432  0.85822  1.0000
  S   S193      1.0  0.50736  0.53377  0.89154  1.0000
  S   S194      1.0  0.54962  0.56757  0.84311  1.0000
  Fe  Fe98      1.0  0.71516  0.61252  0.73180  1.0000
  C   C479      1.0  0.48219  0.96138  0.72000  1.0000
  S   S195      1.0  0.68500  0.57935  0.75108  1.0000
  H   H770      1.0  0.70648  0.79202  0.49884  1.0000
  C   C480      1.0  0.67503  0.98291  0.79463  1.0000
  Fe  Fe99      1.0  0.67711  0.90900  0.80272  1.0000
  S   S196      1.0  0.64312  0.89446  0.82899  1.0000
  S   S197      1.0  0.70498  0.94651  0.81003  1.0000
  Fe  Fe100     1.0  0.66037  0.86710  0.75464  1.0000
  S   S198      1.0  0.62488  0.84983  0.77744  1.0000
  S   S199      1.0  0.67366  0.85450  0.70998  1.0000
  Fe  Fe101     1.0  0.62717  0.88577  0.77871  1.0000
  S   S200      1.0  0.59740  0.89465  0.77409  1.0000
  Fe  Fe102     1.0  0.64324  0.85956  0.82636  1.0000
  S   S201      1.0  0.62576  0.83544  0.87016  1.0000
  S   S202      1.0  0.66115  0.90242  0.75225  1.0000
  S   S203      1.0  0.67893  0.87481  0.80360  1.0000
  Fe  Fe103     1.0  0.63479  0.75150  0.57482  1.0000
  S   S204      1.0  0.66983  0.76988  0.55134  1.0000
  S   S205      1.0  0.62200  0.76300  0.62079  1.0000
  Fe  Fe104     1.0  0.61960  0.70960  0.52729  1.0000
  C   C481      1.0  0.57376  0.65957  0.97083  1.0000
  S   S206      1.0  0.58899  0.67444  0.51627  1.0000
  Fe  Fe105     1.0  0.66936  0.73480  0.55093  1.0000
  S   S207      1.0  0.70288  0.73386  0.56213  1.0000
  C   C482      1.0  0.50025  0.49173  0.66558  1.0000
  S   S208      1.0  0.66370  0.77607  0.95216  1.0000
  S   S209      1.0  0.63554  0.71702  0.57786  1.0000
  S   S210      1.0  0.61610  0.74283  0.52607  1.0000
  Fe  Fe106     1.0  0.55863  0.95613  0.63344  1.0000
  S   S211      1.0  0.57442  0.93143  0.64105  1.0000
  Fe  Fe107     1.0  0.52840  0.96725  0.58573  1.0000
  S   S212      1.0  0.50135  0.94976  0.54563  1.0000
  S   S213      1.0  0.56402  0.97006  0.58148  1.0000
  S   S214      1.0  0.52169  0.94999  0.63578  1.0000
  H   H771      1.0  0.63949  0.94873  0.85537  1.0000
  C   C483      1.0  0.70776  0.96807  0.90600  1.0000
  C   C484      1.0  0.64380  0.98649  0.82235  1.0000
  C   C485      1.0  0.59248  0.90629  0.73728  1.0000
  C   C486      1.0  0.60111  0.90331  0.70677  1.0000
  C   C487      1.0  0.59547  0.91122  0.67765  1.0000
  C   C488      1.0  0.58170  0.92279  0.67877  1.0000
  C   C489      1.0  0.57370  0.92649  0.70944  1.0000
  C   C490      1.0  0.57885  0.91801  0.73851  1.0000
  H   H772      1.0  0.61145  0.89415  0.70541  1.0000
  H   H773      1.0  0.60147  0.90793  0.65407  1.0000
  H   H774      1.0  0.56297  0.93522  0.71064  1.0000
  H   H775      1.0  0.57197  0.92030  0.76198  1.0000
  C   C491      1.0  0.65856  0.82938  0.68483  1.0000
  C   C492      1.0  0.63615  0.81251  0.69243  1.0000
  C   C493      1.0  0.62507  0.79255  0.67215  1.0000
  C   C494      1.0  0.63618  0.78927  0.64399  1.0000
  C   C495      1.0  0.65854  0.80622  0.63622  1.0000
  C   C496      1.0  0.66967  0.82608  0.65666  1.0000
  H   H776      1.0  0.62741  0.81478  0.71404  1.0000
  H   H777      1.0  0.60781  0.77952  0.67844  1.0000
  H   H778      1.0  0.66728  0.80407  0.61457  1.0000
  H   H779      1.0  0.68699  0.83908  0.65055  1.0000
  C   C497      1.0  0.63691  0.81952  0.89315  1.0000
  C   C498      1.0  0.65719  0.81863  0.88378  1.0000
  C   C499      1.0  0.66510  0.80533  0.90224  1.0000
  C   C500      1.0  0.65299  0.79289  0.93041  1.0000
  C   C501      1.0  0.63277  0.79390  0.93992  1.0000
  C   C502      1.0  0.62475  0.80707  0.92131  1.0000
  H   H780      1.0  0.66675  0.82807  0.86222  1.0000
  H   H781      1.0  0.68076  0.80471  0.89464  1.0000
  H   H782      1.0  0.62327  0.78445  0.96149  1.0000
  H   H783      1.0  0.60907  0.80765  0.92883  1.0000
  C   C503      1.0  0.71047  0.96371  0.84653  1.0000
  H   H784      1.0  0.68727  0.73836  0.71156  1.0000
  C   C504      1.0  0.70252  0.95376  0.87757  1.0000
  H   H785      1.0  0.62402  0.94679  0.62672  1.0000
  H   H786      1.0  0.53036  0.97264  0.98102  1.0000
  H   H787      1.0  0.69581  0.56995  0.81876  1.0000
  C   C505      1.0  0.68547  0.69043  0.64113  1.0000
  C   C506      1.0  0.68401  0.70244  0.61321  1.0000
  C   C507      1.0  0.70398  0.71734  0.59597  1.0000
  H   H788      1.0  0.64623  0.72200  0.69532  1.0000
  H   H789      1.0  0.51302  0.49712  0.60157  1.0000
  H   H790      1.0  0.66997  0.67934  0.65479  1.0000
  H   H791      1.0  0.66742  0.70025  0.60521  1.0000
  H   H792      1.0  0.66798  0.76614  0.62920  1.0000
  H   H793      1.0  0.68434  0.75040  0.62293  1.0000
  C   C508      1.0  0.55753  0.62165  0.94275  1.0000
  C   C509      1.0  0.55979  0.64431  0.94606  1.0000
  C   C510      1.0  0.63993  0.96018  0.61452  1.0000
  H   H794      1.0  0.69552  0.73452  0.67039  1.0000
  C   C511      1.0  0.51838  0.54914  0.98387  1.0000
  C   C512      1.0  0.56975  0.61451  0.96396  1.0000
  H   H795      1.0  0.55040  0.64999  0.92971  1.0000
  H   H796      1.0  0.61099  0.97683  0.63456  1.0000
  H   H797      1.0  0.70223  0.58210  0.85963  1.0000
  H   H798      1.0  0.56853  0.59732  0.96122  1.0000
  C   C513      1.0  0.62976  0.57584  0.82627  1.0000
  C   C514      1.0  0.65132  0.59579  0.82453  1.0000
  C   C515      1.0  0.66790  0.59759  0.80054  1.0000
  C   C516      1.0  0.66345  0.57905  0.77870  1.0000
  C   C517      1.0  0.64197  0.55902  0.78059  1.0000
  C   C518      1.0  0.62504  0.55754  0.80388  1.0000
  H   H799      1.0  0.65533  0.60990  0.84202  1.0000
  H   H800      1.0  0.68432  0.61308  0.79953  1.0000
  H   H801      1.0  0.63843  0.54449  0.76401  1.0000
  H   H802      1.0  0.60866  0.54198  0.80513  1.0000
  H   H803      1.0  0.61141  0.63645  0.80862  1.0000
  Fe  Fe108     1.0  0.65143  0.75871  0.50269  1.0000
  C   C519      1.0  0.70684  0.69290  0.65177  1.0000
  H   H804      1.0  0.61333  0.97863  0.55912  1.0000
  H   H805      1.0  0.48828  0.52606  0.65822  1.0000
  N   N49       1.0  0.60709  0.63730  0.86143  1.0000
  C   C520      1.0  0.58561  0.63950  0.85891  1.0000
  C   C521      1.0  0.61041  0.62620  0.83102  1.0000
  C   C522      1.0  0.60548  0.62279  0.89030  1.0000
  C   C523      1.0  0.62686  0.66069  0.86558  1.0000
  H   H806      1.0  0.58619  0.65043  0.83753  1.0000
  H   H807      1.0  0.58239  0.64753  0.88162  1.0000
  H   H808      1.0  0.57035  0.62213  0.85571  1.0000
  H   H809      1.0  0.62652  0.62435  0.83199  1.0000
  H   H810      1.0  0.59605  0.60830  0.82753  1.0000
  H   H811      1.0  0.60386  0.63109  0.91379  1.0000
  H   H812      1.0  0.62094  0.61983  0.89213  1.0000
  H   H813      1.0  0.59023  0.60530  0.88860  1.0000
  H   H814      1.0  0.62483  0.66961  0.88825  1.0000
  H   H815      1.0  0.62871  0.67211  0.84416  1.0000
  H   H816      1.0  0.64331  0.65959  0.86783  1.0000
  N   N50       1.0  0.67426  0.75199  0.67338  1.0000
  H   H817      1.0  0.68678  0.78568  0.69707  1.0000
  S   S215      1.0  0.71528  0.62413  0.67980  1.0000
  C   C524      1.0  0.68141  0.76237  0.64023  1.0000
  C   C525      1.0  0.65234  0.73025  0.67076  1.0000
  H   H818      1.0  0.70893  0.76279  0.68957  1.0000
  N   N51       1.0  0.65271  0.97005  0.81204  1.0000
  H   H819      1.0  0.55454  0.98070  0.95350  1.0000
  H   H820      1.0  0.70511  0.66547  0.58787  1.0000
  C   C526      1.0  0.47822  0.97277  0.61954  1.0000
  H   H821      1.0  0.72180  0.61865  0.60312  1.0000
  C   C527      1.0  0.69227  0.74670  0.68684  1.0000
  S   S216      1.0  0.51841  0.49074  0.94845  1.0000
  C   C528      1.0  0.70824  0.57427  0.83944  1.0000
  H   H822      1.0  0.66254  0.94604  0.83457  1.0000
  H   H823      1.0  0.69287  0.93500  0.87980  1.0000
  S   S217      1.0  0.49337  0.51795  0.80101  1.0000
  H   H824      1.0  0.64230  0.93934  0.78160  1.0000
  C   C529      1.0  0.61756  0.96599  0.57205  1.0000
  H   H825      1.0  0.64616  0.95085  0.59695  1.0000
  N   N52       1.0  0.48751  0.49480  0.63770  1.0000
  H   H826      1.0  0.49561  0.49740  0.68944  1.0000
  H   H827      1.0  0.55458  0.62754  0.50346  1.0000
  H   H828      1.0  0.68199  0.97091  0.78592  1.0000
  H   H829      1.0  0.70327  0.61806  0.57044  1.0000
  H   H830      1.0  0.57493  0.67678  0.97357  1.0000
  H   H831      1.0  0.66863  0.97157  0.85887  1.0000
  H   H832      1.0  0.48754  0.97474  0.64314  1.0000
  H   H833      1.0  0.70209  0.96016  0.93001  1.0000
  H   H834      1.0  0.51171  0.53083  0.63038  1.0000
  H   H835      1.0  0.62334  0.95716  0.55303  1.0000
  C   C530      1.0  0.67095  0.76862  0.69562  1.0000
  H   H836      1.0  0.70700  0.55752  0.84855  1.0000
  H   H837      1.0  0.60125  0.95251  0.58317  1.0000
  H   H838      1.0  0.65421  0.71725  0.65431  1.0000
  H   H839      1.0  0.47768  0.93246  0.97740  1.0000
  H   H840      1.0  0.52882  0.56507  0.96906  1.0000
  N   N53       1.0  0.56357  0.83100  0.83121  1.0000
  C   C531      1.0  0.57004  0.81187  0.83322  1.0000
  C   C532      1.0  0.58217  0.85251  0.84533  1.0000
  C   C533      1.0  0.54203  0.82472  0.85013  1.0000
  C   C534      1.0  0.56015  0.83503  0.79626  1.0000
  H   H841      1.0  0.58629  0.81609  0.81925  1.0000
  H   H842      1.0  0.55643  0.79525  0.82299  1.0000
  H   H843      1.0  0.57327  0.80875  0.85922  1.0000
  H   H844      1.0  0.58536  0.85023  0.87169  1.0000
  H   H845      1.0  0.59862  0.85735  0.83189  1.0000
  H   H846      1.0  0.57831  0.86758  0.84356  1.0000
  H   H847      1.0  0.54410  0.82162  0.87661  1.0000
  H   H848      1.0  0.52759  0.80857  0.84011  1.0000
  H   H849      1.0  0.53680  0.83889  0.84918  1.0000
  H   H850      1.0  0.54633  0.81918  0.78461  1.0000
  H   H851      1.0  0.57616  0.84010  0.78132  1.0000
  H   H852      1.0  0.55547  0.84953  0.79384  1.0000
  H   H853      1.0  0.70749  0.65542  0.54710  1.0000
  Fe  Fe109     1.0  0.53615  0.98663  0.65595  1.0000
  H   H854      1.0  0.48343  0.52244  0.61443  1.0000
  H   H855      1.0  0.71714  0.77848  0.52785  1.0000
  S   S218      1.0  0.70805  0.68006  0.68951  1.0000
  C   C535      1.0  0.48894  0.96259  0.51904  1.0000
  H   H856      1.0  0.65685  0.77226  0.68689  1.0000
  H   H857      1.0  0.62698  0.97733  0.83562  1.0000
  C   C536      1.0  0.49299  0.51965  0.63508  1.0000
  C   C537      1.0  0.65594  0.95863  0.84155  1.0000
  H   H858      1.0  0.47935  0.50162  0.95429  1.0000
  C   C538      1.0  0.48397  0.49373  0.77354  1.0000
  H   H859      1.0  0.66630  0.76171  0.72117  1.0000
  C   C539      1.0  0.63611  0.95212  0.78967  1.0000
  C   C540      1.0  0.71749  0.66451  0.56940  1.0000
  N   N54       1.0  0.63531  0.97771  0.59746  1.0000
  H   H860      1.0  0.72073  0.60923  0.79650  1.0000
  H   H861      1.0  0.69762  0.77907  0.64122  1.0000
  C   C541      1.0  0.71308  0.62828  0.59223  1.0000
  H   H862      1.0  0.63320  0.95993  0.76697  1.0000
  H   H863      1.0  0.48549  0.95160  0.70061  1.0000
  H   H864      1.0  0.63846  0.73368  0.66031  1.0000
  H   H865      1.0  0.61906  0.94198  0.80196  1.0000
  H   H866      1.0  0.70038  0.62828  0.61091  1.0000
  H   H867      1.0  0.65312  0.96834  0.63405  1.0000
  C   C542      1.0  0.72180  0.78974  0.50554  1.0000
  H   H868      1.0  0.51921  0.50202  0.66205  1.0000
  C   C543      1.0  0.47756  0.48910  0.97306  1.0000
  H   H869      1.0  0.51646  0.53391  0.96864  1.0000
  C   C544      1.0  0.58306  0.62945  0.98947  1.0000
  C   C545      1.0  0.49745  0.98501  0.72452  1.0000
  C   C546      1.0  0.72536  0.71960  0.60630  1.0000
  C   C547      1.0  0.49424  0.98617  0.52135  1.0000
  H   H870      1.0  0.50094  0.54796  0.98728  1.0000
  H   H871      1.0  0.48512  0.48960  0.58508  1.0000
  H   H872      1.0  0.66343  0.98702  0.56277  1.0000
  C   C548      1.0  0.58505  0.65200  0.99312  1.0000
  H   H873      1.0  0.93972  0.24434  0.14222  1.0000
  S   S219      1.0  0.95211  0.41310  0.35846  1.0000
  H   H874      1.0  0.90754  0.36192  0.21920  1.0000
  S   S220      1.0  0.95736  0.43561  0.45171  1.0000
  Fe  Fe110     1.0  0.95651  0.38045  0.36146  1.0000
  S   S221      1.0  0.92662  0.34424  0.35293  1.0000
  Fe  Fe111     1.0  0.90712  0.20525  0.19416  1.0000
  S   S222      1.0  0.89334  0.22721  0.17024  1.0000
  S   S223      1.0  0.93967  0.20423  0.17496  1.0000
  Fe  Fe112     1.0  0.86705  0.18624  0.24526  1.0000
  S   S224      1.0  0.85129  0.20789  0.22431  1.0000
  S   S225      1.0  0.85190  0.15787  0.28498  1.0000
  Fe  Fe113     1.0  0.85852  0.19609  0.17452  1.0000
  S   S226      1.0  0.83309  0.18546  0.13163  1.0000
  Fe  Fe114     1.0  0.88799  0.23698  0.22217  1.0000
  S   S227      1.0  0.90397  0.27664  0.22784  1.0000
  S   S228      1.0  0.87255  0.17327  0.19537  1.0000
  S   S229      1.0  0.90330  0.21600  0.24603  1.0000
  Fe  Fe115     1.0  0.76751  0.08049  0.49247  1.0000
  H   H875      1.0  0.87877  0.19404  0.02778  1.0000
  N   N55       1.0  0.77875  0.02486  0.01078  1.0000
  S   S230      1.0  0.74516  0.09639  0.47546  1.0000
  S   S231      1.0  0.79287  0.09809  0.03181  1.0000
  Fe  Fe116     1.0  0.75748  0.09299  0.42408  1.0000
  S   S232      1.0  0.76806  0.12382  0.38891  1.0000
  H   H876      1.0  0.85995  0.18286  0.06285  1.0000
  S   S233      1.0  0.78094  0.07884  0.44146  1.0000
  C   C549      1.0  0.82190  0.16070  0.10469  1.0000
  C   C550      1.0  0.82905  0.14329  0.10586  1.0000
  C   C551      1.0  0.81999  0.12430  0.08343  1.0000
  C   C552      1.0  0.80367  0.12239  0.05960  1.0000
  C   C553      1.0  0.79656  0.13979  0.05850  1.0000
  C   C554      1.0  0.80565  0.15879  0.08086  1.0000
  H   H877      1.0  0.84153  0.14441  0.12397  1.0000
  H   H878      1.0  0.82565  0.11097  0.08453  1.0000
  H   H879      1.0  0.78404  0.13863  0.04038  1.0000
  H   H880      1.0  0.79999  0.17213  0.07960  1.0000
  C   C555      1.0  0.82905  0.14946  0.31455  1.0000
  C   C556      1.0  0.81653  0.16198  0.31961  1.0000
  C   C557      1.0  0.79796  0.15395  0.34248  1.0000
  C   C558      1.0  0.79183  0.13347  0.36077  1.0000
  C   C559      1.0  0.80461  0.12119  0.35611  1.0000
  C   C560      1.0  0.82305  0.12914  0.33313  1.0000
  H   H881      1.0  0.82107  0.17779  0.30583  1.0000
  H   H882      1.0  0.78831  0.16370  0.34601  1.0000
  H   H883      1.0  0.80009  0.10536  0.36983  1.0000
  H   H884      1.0  0.83262  0.11932  0.32950  1.0000
  C   C561      1.0  0.92245  0.32449  0.31962  1.0000
  C   C562      1.0  0.90318  0.30233  0.32031  1.0000
  C   C563      1.0  0.89808  0.28683  0.29321  1.0000
  C   C564      1.0  0.91198  0.29356  0.26477  1.0000
  C   C565      1.0  0.93149  0.31558  0.26432  1.0000
  C   C566      1.0  0.93695  0.33080  0.29179  1.0000
  H   H885      1.0  0.89185  0.29726  0.34171  1.0000
  H   H886      1.0  0.88286  0.27010  0.29377  1.0000
  H   H887      1.0  0.94236  0.32091  0.24246  1.0000
  H   H888      1.0  0.95211  0.34752  0.29121  1.0000
  C   C567      1.0  0.95215  0.39820  0.26725  1.0000
  H   H889      1.0  0.80242  0.04976  0.04491  1.0000
  H   H890      1.0  0.91859  0.18704  0.05292  1.0000
  C   C568      1.0  0.89309  0.18703  0.10581  1.0000
  H   H891      1.0  0.76286  0.04398  0.03442  1.0000
  S   S234      1.0  0.72789  0.05737  0.41553  1.0000
  C   C569      1.0  0.92542  0.37037  0.22888  1.0000
  S   S235      1.0  0.97226  0.38952  0.41211  1.0000
  H   H892      1.0  0.89782  0.23202  0.05806  1.0000
  H   H893      1.0  0.87969  0.21965  0.09373  1.0000
  C   C570      1.0  0.95855  0.22452  0.14580  1.0000
  S   S236      1.0  0.75664  0.01372  0.41595  1.0000
  H   H894      1.0  0.87549  0.16785  0.04758  1.0000
  H   H895      1.0  0.96498  0.40724  0.24724  1.0000
  H   H896      1.0  0.82834  0.11382  0.47649  1.0000
  H   H897      1.0  0.81270  0.03117  0.02503  1.0000
  C   C571      1.0  0.91813  0.20374  0.05867  1.0000
  C   C572      1.0  0.80813  0.14069  0.46418  1.0000
  H   H898      1.0  0.90739  0.19715  0.12312  1.0000
  C   C573      1.0  0.96486  0.46385  0.27448  1.0000
  N   N56       1.0  0.89601  0.19960  0.07442  1.0000
  C   C574      1.0  0.87676  0.18546  0.05214  1.0000
  H   H899      1.0  0.85494  0.13111  0.45490  1.0000
  H   H900      1.0  0.93296  0.21404  0.07514  1.0000
  H   H901      1.0  0.91411  0.38835  0.30322  1.0000
  H   H902      1.0  0.86172  0.16904  0.43012  1.0000
  H   H903      1.0  0.92120  0.21361  0.03521  1.0000
  H   H904      1.0  0.89283  0.16981  0.10178  1.0000
  H   H905      1.0  0.91049  0.23345  0.09762  1.0000
  H   H906      1.0  0.91515  0.36177  0.29325  1.0000
  N   N57       1.0  0.92827  0.38766  0.25504  1.0000
  H   H907      1.0  0.93742  0.37858  0.20772  1.0000
  N   N58       1.0  0.83302  0.14763  0.46149  1.0000
  H   H908      1.0  0.95994  0.48231  0.04858  1.0000
  C   C575      1.0  0.83634  0.12665  0.45611  1.0000
  H   H909      1.0  0.96448  0.26987  0.09747  1.0000
  H   H910      1.0  0.94214  0.44696  0.01286  1.0000
  H   H911      1.0  0.82842  0.11763  0.43254  1.0000
  C   C576      1.0  0.91212  0.37596  0.28265  1.0000
  H   H912      1.0  0.89388  0.36792  0.27452  1.0000
  C   C577      1.0  0.97142  0.46079  0.47702  1.0000
  H   H913      1.0  0.93596  0.41596  0.22144  1.0000
  C   C578      1.0  0.84299  0.16364  0.43325  1.0000
  Fe  Fe117     1.0  0.97106  0.42366  0.40695  1.0000
  H   H914      1.0  0.75178  0.01422  0.04763  1.0000
  C   C579      1.0  0.95499  0.47507  0.25535  1.0000
  C   C580      1.0  0.95421  0.24214  0.13303  1.0000
  H   H915      1.0  0.79898  0.13172  0.44130  1.0000
  H   H916      1.0  0.95489  0.41148  0.28672  1.0000
  N   N59       1.0  0.79496  0.12728  0.21693  1.0000
  C   C581      1.0  0.77047  0.10965  0.21617  1.0000
  C   C582      1.0  0.80292  0.13582  0.18309  1.0000
  C   C583      1.0  0.80899  0.11670  0.23012  1.0000
  C   C584      1.0  0.79749  0.14702  0.23836  1.0000
  H   H917      1.0  0.76400  0.10266  0.24131  1.0000
  H   H918      1.0  0.76789  0.09462  0.19987  1.0000
  H   H919      1.0  0.75942  0.11720  0.20665  1.0000
  H   H920      1.0  0.82128  0.14927  0.18284  1.0000
  H   H921      1.0  0.80135  0.12146  0.16613  1.0000
  H   H922      1.0  0.79285  0.14408  0.17226  1.0000
  H   H923      1.0  0.82769  0.12929  0.22970  1.0000
  H   H924      1.0  0.80683  0.10114  0.21544  1.0000
  H   H925      1.0  0.80436  0.11125  0.25634  1.0000
  H   H926      1.0  0.81593  0.15997  0.24102  1.0000
  H   H927      1.0  0.79060  0.14102  0.26368  1.0000
  H   H928      1.0  0.78826  0.15635  0.22824  1.0000
  C   C585      1.0  0.96930  0.48056  0.02734  1.0000
  H   H929      1.0  0.87673  0.18387  0.11855  1.0000
  C   C586      1.0  0.89602  0.22218  0.08122  1.0000
  C   C587      1.0  0.75852  0.02593  0.02593  1.0000
  C   C588      1.0  0.95925  0.46051  0.00702  1.0000
  H   H930      1.0  0.74416  0.02046  0.00800  1.0000
  H   H931      1.0  0.86336  0.16529  0.49115  1.0000
  H   H932      1.0  0.79123  0.01981  0.05731  1.0000
  C   C589      1.0  0.96842  0.25674  0.10787  1.0000
  H   H933      1.0  0.92503  0.41920  0.26092  1.0000
  Fe  Fe118     1.0  0.75039  0.04325  0.43672  1.0000
  H   H934      1.0  0.90582  0.39889  0.23126  1.0000
  C   C590      1.0  0.92350  0.40619  0.24151  1.0000
  H   H935      1.0  0.79999  0.12851  0.48510  1.0000
  C   C591      1.0  0.84448  0.15943  0.49241  1.0000
  H   H936      1.0  0.92895  0.35619  0.23839  1.0000
  H   H937      1.0  0.95639  0.38492  0.27812  1.0000
  H   H938      1.0  0.95618  0.45450  0.29657  1.0000
  H   H939      1.0  0.83445  0.15525  0.40961  1.0000
  H   H940      1.0  0.93864  0.47416  0.26284  1.0000
  S   S237      1.0  0.73194  0.05788  0.99699  1.0000
  C   C592      1.0  0.79710  0.03165  0.03564  1.0000
  H   H941      1.0  0.96090  0.37228  0.01079  1.0000
  H   H942      1.0  0.80489  0.15603  0.46825  1.0000
  H   H943      1.0  0.84088  0.17972  0.43653  1.0000
  S   S238      1.0  0.73903  0.04344  0.48936  1.0000
  C   C593      1.0  0.77198  0.00086  0.99880  1.0000
  H   H944      1.0  0.86975  0.48594  0.20167  1.0000
  H   H945      1.0  0.76522  0.98802  0.01927  1.0000
  H   H946      1.0  0.94769  0.37606  0.72818  1.0000
  S   S239      1.0  0.95139  0.42142  0.85717  1.0000
  C   C594      1.0  0.96017  0.46270  0.50594  1.0000
  H   H947      1.0  0.95538  0.29750  0.53294  1.0000
  Fe  Fe119     1.0  0.94455  0.38396  0.85091  1.0000
  S   S240      1.0  0.90992  0.35798  0.83000  1.0000
  Fe  Fe120     1.0  0.90565  0.21803  0.69452  1.0000
  S   S241      1.0  0.88473  0.23373  0.67159  1.0000
  S   S242      1.0  0.94474  0.23540  0.68781  1.0000
  Fe  Fe121     1.0  0.86506  0.18592  0.73956  1.0000
  S   S243      1.0  0.84217  0.19993  0.71967  1.0000
  S   S244      1.0  0.85353  0.15809  0.77973  1.0000
  Fe  Fe122     1.0  0.85612  0.19670  0.66965  1.0000
  S   S245      1.0  0.83003  0.18331  0.62759  1.0000
  Fe  Fe123     1.0  0.87290  0.23540  0.72357  1.0000
  S   S246      1.0  0.86510  0.26392  0.74481  1.0000
  S   S247      1.0  0.87779  0.18075  0.68931  1.0000
  S   S248      1.0  0.89493  0.22151  0.74683  1.0000
  H   H948      1.0  0.80707  0.22211  0.81753  1.0000
  H   H949      1.0  0.87215  0.22272  0.83141  1.0000
  C   C595      1.0  0.96851  0.26390  0.53919  1.0000
  S   S249      1.0  0.74942  0.11120  0.97082  1.0000
  H   H950      1.0  0.95941  0.39082  0.97921  1.0000
  Fe  Fe124     1.0  0.75450  0.09823  0.92058  1.0000
  S   S250      1.0  0.76506  0.12213  0.87517  1.0000
  C   C596      1.0  0.97093  0.48188  0.52759  1.0000
  S   S251      1.0  0.77290  0.07899  0.94071  1.0000
  C   C597      1.0  0.82050  0.15819  0.60174  1.0000
  C   C598      1.0  0.83053  0.14313  0.60227  1.0000
  C   C599      1.0  0.82217  0.12329  0.58144  1.0000
  C   C600      1.0  0.80381  0.11832  0.55974  1.0000
  C   C601      1.0  0.79392  0.13349  0.55899  1.0000
  C   C602      1.0  0.80224  0.15329  0.57989  1.0000
  H   H951      1.0  0.84484  0.14689  0.61849  1.0000
  H   H952      1.0  0.83009  0.11178  0.58195  1.0000
  H   H953      1.0  0.77976  0.12992  0.54255  1.0000
  H   H954      1.0  0.79439  0.16485  0.57927  1.0000
  C   C603      1.0  0.82892  0.14850  0.80618  1.0000
  C   C604      1.0  0.81077  0.15370  0.79991  1.0000
  C   C605      1.0  0.79137  0.14539  0.82121  1.0000
  C   C606      1.0  0.78978  0.13170  0.84892  1.0000
  C   C607      1.0  0.80784  0.12631  0.85496  1.0000
  C   C608      1.0  0.82724  0.13462  0.83364  1.0000
  H   H955      1.0  0.81156  0.16392  0.77853  1.0000
  H   H956      1.0  0.77741  0.14951  0.81620  1.0000
  H   H957      1.0  0.80686  0.11577  0.87609  1.0000
  H   H958      1.0  0.84107  0.13030  0.83857  1.0000
  C   C609      1.0  0.89970  0.33197  0.80593  1.0000
  C   C610      1.0  0.87685  0.32249  0.79548  1.0000
  C   C611      1.0  0.86711  0.30202  0.77650  1.0000
  C   C612      1.0  0.87989  0.29032  0.76761  1.0000
  C   C613      1.0  0.90293  0.29960  0.77790  1.0000
  C   C614      1.0  0.91290  0.32055  0.79695  1.0000
  H   H959      1.0  0.86646  0.33104  0.80221  1.0000
  H   H960      1.0  0.84937  0.29510  0.76882  1.0000
  H   H961      1.0  0.91300  0.29070  0.77127  1.0000
  H   H962      1.0  0.93058  0.32765  0.80494  1.0000
  H   H963      1.0  0.73780  0.02121  0.87032  1.0000
  H   H964      1.0  0.96243  0.46392  0.80272  1.0000
  H   H965      1.0  0.82307  0.18913  0.85071  1.0000
  N   N60       1.0  0.83963  0.22368  0.83025  1.0000
  H   H966      1.0  0.85642  0.26056  0.82094  1.0000
  S   S252      1.0  0.95765  0.43184  0.95521  1.0000
  H   H967      1.0  0.93638  0.42705  0.71345  1.0000
  H   H968      1.0  0.77398  0.03641  0.96332  1.0000
  S   S253      1.0  0.95748  0.38295  0.90152  1.0000
  H   H969      1.0  0.78677  0.99939  0.98702  1.0000
  C   C615      1.0  0.96322  0.23592  0.65490  1.0000
  C   C616      1.0  0.95541  0.22067  0.62782  1.0000
  H   H970      1.0  0.86362  0.25242  0.85957  1.0000
  H   H971      1.0  0.93752  0.20773  0.62677  1.0000
  Fe  Fe125     1.0  0.96787  0.42139  0.90573  1.0000
  H   H972      1.0  0.90178  0.36990  0.75537  1.0000
  H   H973      1.0  0.94558  0.48418  0.76917  1.0000
  H   H974      1.0  0.94623  0.40776  0.69450  1.0000
  C   C617      1.0  0.83011  0.20772  0.85863  1.0000
  C   C618      1.0  0.97102  0.45795  0.97909  1.0000
  C   C619      1.0  0.84931  0.24814  0.84192  1.0000
  H   H975      1.0  0.91005  0.37324  0.71251  1.0000
  C   C620      1.0  0.78735  0.04113  0.98266  1.0000
  S   S254      1.0  0.79444  0.09341  0.53350  1.0000
  H   H976      1.0  0.95173  0.42300  0.78443  1.0000
  Fe  Fe126     1.0  0.73758  0.04821  0.94520  1.0000
  C   C621      1.0  0.93399  0.41196  0.77537  1.0000
  C   C622      1.0  0.97091  0.22200  0.60228  1.0000
  C   C623      1.0  0.85803  0.21982  0.81403  1.0000
  N   N61       1.0  0.93438  0.39942  0.74478  1.0000
  C   C624      1.0  0.96419  0.28182  0.58987  1.0000
  H   H977      1.0  0.81584  0.20979  0.87111  1.0000
  H   H978      1.0  0.81337  0.20082  0.79704  1.0000
  H   H979      1.0  0.96366  0.42905  0.72462  1.0000
  H   H980      1.0  0.84355  0.21089  0.87737  1.0000
  H   H981      1.0  0.72950  0.99597  0.82027  1.0000
  H   H982      1.0  0.90002  0.39236  0.73157  1.0000
  C   C625      1.0  0.94561  0.41651  0.71807  1.0000
  C   C626      1.0  0.72781  0.00248  0.87246  1.0000
  H   H983      1.0  0.75815  0.99544  0.97990  1.0000
  H   H984      1.0  0.96476  0.21006  0.58152  1.0000
  H   H985      1.0  0.86587  0.23198  0.79299  1.0000
  H   H986      1.0  0.94976  0.25644  0.53427  1.0000
  C   C627      1.0  0.96064  0.48292  0.76008  1.0000
  N   N62       1.0  0.81169  0.11562  0.70271  1.0000
  C   C628      1.0  0.80238  0.10360  0.73442  1.0000
  C   C629      1.0  0.79708  0.10151  0.67522  1.0000
  C   C630      1.0  0.83546  0.11887  0.69781  1.0000
  C   C631      1.0  0.81194  0.13864  0.70345  1.0000
  H   H987      1.0  0.81339  0.11361  0.75553  1.0000
  H   H988      1.0  0.80153  0.08598  0.73459  1.0000
  H   H989      1.0  0.78474  0.10152  0.73957  1.0000
  H   H990      1.0  0.80350  0.11032  0.65102  1.0000
  H   H991      1.0  0.79675  0.08412  0.67353  1.0000
  H   H992      1.0  0.77901  0.09863  0.67829  1.0000
  H   H993      1.0  0.84695  0.12957  0.71813  1.0000
  H   H994      1.0  0.84309  0.12797  0.67417  1.0000
  H   H995      1.0  0.83603  0.10188  0.69727  1.0000
  H   H996      1.0  0.79431  0.13700  0.70672  1.0000
  H   H997      1.0  0.81926  0.14844  0.68014  1.0000
  H   H998      1.0  0.94308  0.44909  0.51184  1.0000
  C   C632      1.0  0.91050  0.38303  0.73554  1.0000
  Fe  Fe127     1.0  0.76590  0.09010  0.99117  1.0000
  H   H999      1.0  0.94543  0.27545  0.58592  1.0000
  H   H1000     1.0  0.82255  0.14951  0.72420  1.0000
  H   H1001     1.0  0.83598  0.25175  0.85444  1.0000
  C   C633      1.0  0.82114  0.21911  0.80629  1.0000
  H   H1002     1.0  0.92576  0.42350  0.77155  1.0000
  H   H1003     1.0  0.82784  0.23071  0.78437  1.0000
  H   H1004     1.0  0.85134  0.20173  0.80414  1.0000
  H   H1005     1.0  0.92429  0.39967  0.79552  1.0000
  H   H1006     1.0  0.83757  0.14753  0.51397  1.0000
  C   C634      1.0  0.96957  0.38206  0.98805  1.0000
  H   H1007     1.0  0.96214  0.48297  0.54990  1.0000
  H   H1008     1.0  0.96842  0.36910  0.96875  1.0000
  H   H1009     1.0  0.96607  0.26843  0.60482  1.0000
  H   H1010     1.0  0.79230  0.05939  0.99071  1.0000
  C   C635      1.0  0.97009  0.47130  0.77910  1.0000
  C   C636      1.0  0.97385  0.30348  0.53875  1.0000
  H   H1011     1.0  0.80270  0.04096  0.97069  1.0000
  H   H1012     1.0  0.96574  0.39818  0.75689  1.0000
  H   H1013     1.0  0.93989  0.37370  0.77117  1.0000
  C   C637      1.0  0.94750  0.38625  0.75044  1.0000
  H   H1014     1.0  0.97134  0.25057  0.55275  1.0000
  H   H1015     1.0  0.84179  0.17498  0.49784  1.0000
  H   H1016     1.0  0.97062  0.29797  0.60524  1.0000
  S   S255      1.0  0.72807  0.00952  0.94042  1.0000
  Fe  Fe128     1.0  0.89972  0.67752  0.43318  1.0000
  S   S256      1.0  0.89141  0.64219  0.41300  1.0000
  S   S257      1.0  0.92409  0.71129  0.40758  1.0000
  C   C638      1.0  0.96257  0.70835  0.37930  1.0000
  S   S258      1.0  0.85384  0.61988  0.47420  1.0000
  S   S259      1.0  0.84763  0.66557  0.03316  1.0000
  Fe  Fe129     1.0  0.89187  0.63193  0.46606  1.0000
  H   H1017     1.0  0.95235  0.56073  0.46888  1.0000
  Fe  Fe130     1.0  0.85440  0.63402  0.42288  1.0000
  S   S260      1.0  0.82780  0.61528  0.38283  1.0000
  H   H1018     1.0  0.89758  0.49579  0.22017  1.0000
  S   S261      1.0  0.86262  0.67006  0.44058  1.0000
  Fe  Fe131     1.0  0.75055  0.62583  0.17722  1.0000
  S   S262      1.0  0.76221  0.66250  0.19632  1.0000
  S   S263      1.0  0.76136  0.61325  0.13025  1.0000
  Fe  Fe132     1.0  0.75965  0.64660  0.24687  1.0000
  S   S264      1.0  0.78521  0.66406  0.28858  1.0000
  C   C639      1.0  0.74723  0.66456  0.11492  1.0000
  S   S265      1.0  0.75041  0.61080  0.22721  1.0000
  H   H1019     1.0  0.74925  0.81247  0.45437  1.0000
  S   S266      1.0  0.92792  0.56487  0.10805  1.0000
  H   H1020     1.0  0.75062  0.94293  0.36397  1.0000
  H   H1021     1.0  0.91699  0.67286  0.30886  1.0000
  H   H1022     1.0  0.75644  0.65492  0.12393  1.0000
  S   S267      1.0  0.95273  0.51749  0.11053  1.0000
  H   H1023     1.0  0.74824  0.58572  0.31955  1.0000
  H   H1024     1.0  0.90103  0.70904  0.28832  1.0000
  H   H1025     1.0  0.91145  0.67437  0.35226  1.0000
  H   H1026     1.0  0.75816  0.62199  0.35357  1.0000
  C   C640      1.0  0.90576  0.58646  0.01241  1.0000
  C   C641      1.0  0.90098  0.59334  0.04326  1.0000
  C   C642      1.0  0.90821  0.58690  0.07233  1.0000
  C   C643      1.0  0.92077  0.57409  0.07080  1.0000
  C   C644      1.0  0.92620  0.56788  0.03989  1.0000
  H   H1027     1.0  0.76725  0.67415  0.05522  1.0000
  C   C645      1.0  0.96631  0.48776  0.22691  1.0000
  H   H1028     1.0  0.90387  0.59173  0.09613  1.0000
  H   H1029     1.0  0.93566  0.55783  0.03838  1.0000
  H   H1030     1.0  0.88791  0.49211  0.14620  1.0000
  C   C646      1.0  0.82400  0.65042  0.06056  1.0000
  C   C647      1.0  0.82033  0.66269  0.08712  1.0000
  C   C648      1.0  0.80160  0.65150  0.10921  1.0000
  C   C649      1.0  0.78616  0.62791  0.10471  1.0000
  C   C650      1.0  0.78973  0.61569  0.07803  1.0000
  C   C651      1.0  0.80860  0.62682  0.05617  1.0000
  H   H1031     1.0  0.83218  0.68095  0.09073  1.0000
  H   H1032     1.0  0.79913  0.66114  0.12962  1.0000
  H   H1033     1.0  0.77786  0.59746  0.07427  1.0000
  H   H1034     1.0  0.81118  0.61717  0.03585  1.0000
  C   C652      1.0  0.81605  0.62909  0.35693  1.0000
  C   C653      1.0  0.80285  0.61685  0.32950  1.0000
  C   C654      1.0  0.79361  0.62741  0.30800  1.0000
  C   C655      1.0  0.79730  0.65028  0.31391  1.0000
  C   C656      1.0  0.81052  0.66251  0.34129  1.0000
  C   C657      1.0  0.81984  0.65200  0.36269  1.0000
  H   H1035     1.0  0.79996  0.59918  0.32467  1.0000
  H   H1036     1.0  0.78369  0.61787  0.28683  1.0000
  H   H1037     1.0  0.81340  0.68017  0.34615  1.0000
  H   H1038     1.0  0.82981  0.66159  0.38377  1.0000
  C   C658      1.0  0.95068  0.72154  0.38552  1.0000
  C   C659      1.0  0.95972  0.74412  0.37282  1.0000
  Fe  Fe133     1.0  0.97042  0.52602  0.16003  1.0000
  H   H1039     1.0  0.95077  0.75447  0.37729  1.0000
  H   H1040     1.0  0.88697  0.53917  0.15059  1.0000
  C   C660      1.0  0.91116  0.68180  0.32767  1.0000
  S   S268      1.0  0.95315  0.50148  0.20346  1.0000
  S   S269      1.0  0.97202  0.56161  0.16347  1.0000
  S   S270      1.0  0.90228  0.66810  0.48541  1.0000
  C   C661      1.0  0.92984  0.51407  0.45947  1.0000
  H   H1041     1.0  0.73218  0.59432  0.29217  1.0000
  C   C662      1.0  0.88522  0.50169  0.21042  1.0000
  H   H1042     1.0  0.74261  0.62988  0.32433  1.0000
  H   H1043     1.0  0.76970  0.97987  0.39484  1.0000
  C   C663      1.0  0.74134  0.95289  0.36897  1.0000
  Fe  Fe134     1.0  0.95637  0.55402  0.11281  1.0000
  H   H1044     1.0  0.76189  0.64532  0.06653  1.0000
  H   H1045     1.0  0.95575  0.69084  0.38892  1.0000
  C   C664      1.0  0.75220  0.97390  0.38657  1.0000
  H   H1046     1.0  0.75540  0.76880  0.46770  1.0000
  H   H1047     1.0  0.91082  0.52002  0.13548  1.0000
  Fe  Fe135     1.0  0.86431  0.65672  0.49122  1.0000
  H   H1048     1.0  0.74562  0.64917  0.03404  1.0000
  H   H1049     1.0  0.91189  0.54770  0.21727  1.0000
  N   N63       1.0  0.88801  0.67924  0.32025  1.0000
  C   C665      1.0  0.87130  0.65420  0.31890  1.0000
  C   C666      1.0  0.88093  0.69089  0.34643  1.0000
  C   C667      1.0  0.88865  0.69010  0.28805  1.0000
  H   H1050     1.0  0.87631  0.64468  0.29994  1.0000
  H   H1051     1.0  0.85375  0.65166  0.31268  1.0000
  H   H1052     1.0  0.86991  0.64556  0.34310  1.0000
  H   H1053     1.0  0.89362  0.70964  0.34907  1.0000
  H   H1054     1.0  0.86381  0.68988  0.34127  1.0000
  H   H1055     1.0  0.87971  0.68270  0.37090  1.0000
  H   H1056     1.0  0.87140  0.68842  0.28169  1.0000
  H   H1057     1.0  0.89400  0.68178  0.26772  1.0000
  N   N64       1.0  0.89590  0.51873  0.18352  1.0000
  H   H1058     1.0  0.87979  0.50939  0.23145  1.0000
  H   H1059     1.0  0.92425  0.70050  0.32837  1.0000
  C   C668      1.0  0.74940  0.77663  0.48792  1.0000
  C   C669      1.0  0.87925  0.52631  0.17102  1.0000
  H   H1060     1.0  0.74042  0.70498  0.15174  1.0000
  H   H1061     1.0  0.91573  0.50212  0.16472  1.0000
  H   H1062     1.0  0.92962  0.53421  0.20509  1.0000
  S   S271      1.0  0.91736  0.61951  0.48371  1.0000
  H   H1063     1.0  0.93601  0.52383  0.43590  1.0000
  H   H1064     1.0  0.89114  0.60301  0.04479  1.0000
  C   C670      1.0  0.75340  0.65597  0.05858  1.0000
  C   C671      1.0  0.91638  0.53919  0.19629  1.0000
  H   H1065     1.0  0.92458  0.55265  0.17681  1.0000
  C   C672      1.0  0.90287  0.50773  0.15633  1.0000
  H   H1066     1.0  0.76014  0.68322  0.11275  1.0000
  H   H1067     1.0  0.91192  0.51134  0.46410  1.0000
  H   H1068     1.0  0.74098  0.73166  0.10741  1.0000
  N   N65       1.0  0.73591  0.65491  0.08308  1.0000
  C   C673      1.0  0.74077  0.61993  0.34747  1.0000
  H   H1069     1.0  0.73446  0.66332  0.13434  1.0000
  H   H1070     1.0  0.96873  0.51298  0.47588  1.0000
  C   C674      1.0  0.73107  0.58489  0.31546  1.0000
  C   C675      1.0  0.96863  0.53001  0.48019  1.0000
  H   H1071     1.0  0.93398  0.63712  0.99780  1.0000
  H   H1072     1.0  0.73555  0.62850  0.36756  1.0000
  H   H1073     1.0  0.86360  0.51136  0.16100  1.0000
  N   N66       1.0  0.72912  0.77939  0.47788  1.0000
  H   H1074     1.0  0.72646  0.61950  0.09663  1.0000
  H   H1075     1.0  0.87371  0.53487  0.19076  1.0000
  H   H1076     1.0  0.73718  0.68743  0.06830  1.0000
  H   H1077     1.0  0.74051  0.78754  0.42739  1.0000
  C   C676      1.0  0.91848  0.57381  0.01088  1.0000
  H   H1078     1.0  0.92908  0.49658  0.45574  1.0000
  S   S272      1.0  0.89663  0.65378  0.99433  1.0000
  C   C677      1.0  0.73501  0.79483  0.44884  1.0000
  H   H1079     1.0  0.96105  0.65716  0.01523  1.0000
  H   H1080     1.0  0.74023  0.58346  0.37956  1.0000
  N   N67       1.0  0.94508  0.52679  0.48721  1.0000
  C   C678      1.0  0.94560  0.54982  0.49137  1.0000
  C   C679      1.0  0.74084  0.98734  0.39347  1.0000
  Fe  Fe136     1.0  0.90275  0.66890  0.94328  1.0000
  S   S273      1.0  0.88969  0.63438  0.91787  1.0000
  S   S274      1.0  0.93759  0.69978  0.93136  1.0000
  H   H1081     1.0  0.94745  0.52227  0.53923  1.0000
  S   S275      1.0  0.84538  0.61456  0.96878  1.0000
  S   S276      1.0  0.85445  0.66804  0.54029  1.0000
  Fe  Fe137     1.0  0.88181  0.61895  0.96885  1.0000
  C   C680      1.0  0.73875  0.57946  0.80093  1.0000
  Fe  Fe138     1.0  0.85483  0.63340  0.91986  1.0000
  S   S277      1.0  0.83330  0.62029  0.87314  1.0000
  C   C681      1.0  0.87289  0.63437  0.60898  1.0000
  S   S278      1.0  0.86844  0.66933  0.94201  1.0000
  Fe  Fe139     1.0  0.75261  0.63187  0.67661  1.0000
  S   S279      1.0  0.76582  0.66895  0.69487  1.0000
  S   S280      1.0  0.76295  0.61921  0.62906  1.0000
  Fe  Fe140     1.0  0.76233  0.65314  0.74565  1.0000
  S   S281      1.0  0.78733  0.67015  0.78799  1.0000
  H   H1082     1.0  0.74322  0.60314  0.87773  1.0000
  S   S282      1.0  0.75130  0.61661  0.72702  1.0000
  Fe  Fe141     1.0  0.94864  0.54356  0.60158  1.0000
  S   S283      1.0  0.91585  0.54104  0.57890  1.0000
  C   C682      1.0  0.93622  0.51323  0.51790  1.0000
  C   C683      1.0  0.96858  0.63069  0.97018  1.0000
  S   S284      1.0  0.95986  0.55618  0.65315  1.0000
  S   S285      1.0  0.95417  0.51175  0.60785  1.0000
  C   C684      1.0  0.96859  0.55843  0.75282  1.0000
  H   H1083     1.0  0.87277  0.66513  0.86393  1.0000
  H   H1084     1.0  0.94102  0.65642  0.93031  1.0000
  H   H1085     1.0  0.73570  0.80718  0.51272  1.0000
  N   N68       1.0  0.96251  0.64967  0.96348  1.0000
  H   H1086     1.0  0.85659  0.59912  0.56398  1.0000
  C   C685      1.0  0.93631  0.58419  0.54860  1.0000
  C   C686      1.0  0.91589  0.56400  0.55525  1.0000
  C   C687      1.0  0.89526  0.56137  0.54114  1.0000
  C   C688      1.0  0.89514  0.57850  0.51991  1.0000
  H   H1087     1.0  0.91864  0.51085  0.52439  1.0000
  H   H1088     1.0  0.95227  0.58660  0.55952  1.0000
  H   H1089     1.0  0.87939  0.54575  0.54609  1.0000
  C   C689      1.0  0.91576  0.59829  0.51235  1.0000
  C   C690      1.0  0.82872  0.65419  0.56432  1.0000
  C   C691      1.0  0.82645  0.66533  0.59328  1.0000
  C   C692      1.0  0.80653  0.65491  0.61345  1.0000
  C   C693      1.0  0.78865  0.63308  0.60496  1.0000
  C   C694      1.0  0.79091  0.62194  0.57600  1.0000
  C   C695      1.0  0.81081  0.63240  0.55577  1.0000
  H   H1090     1.0  0.84022  0.68218  0.60016  1.0000
  H   H1091     1.0  0.80507  0.66372  0.63562  1.0000
  H   H1092     1.0  0.77719  0.60504  0.56919  1.0000
  H   H1093     1.0  0.81229  0.62358  0.53363  1.0000
  C   C696      1.0  0.82102  0.63476  0.84978  1.0000
  C   C697      1.0  0.81060  0.62493  0.81948  1.0000
  C   C698      1.0  0.80030  0.63560  0.80025  1.0000
  C   C699      1.0  0.80033  0.65627  0.81117  1.0000
  C   C700      1.0  0.81096  0.66625  0.84131  1.0000
  C   C701      1.0  0.82118  0.65551  0.86063  1.0000
  H   H1094     1.0  0.81055  0.60896  0.81080  1.0000
  H   H1095     1.0  0.79261  0.62801  0.77681  1.0000
  H   H1096     1.0  0.81101  0.68222  0.84996  1.0000
  H   H1097     1.0  0.82889  0.66310  0.88408  1.0000
  C   C702      1.0  0.95744  0.70142  0.89974  1.0000
  H   H1098     1.0  0.75031  0.62483  0.80842  1.0000
  C   C703      1.0  0.95112  0.68526  0.87370  1.0000
  H   H1099     1.0  0.95230  0.61632  0.52126  1.0000
  H   H1100     1.0  0.93403  0.67073  0.87307  1.0000
  H   H1101     1.0  0.88364  0.59849  0.60473  1.0000
  C   C704      1.0  0.94729  0.64333  0.93447  1.0000
  H   H1102     1.0  0.86461  0.64494  0.59976  1.0000
  H   H1103     1.0  0.74093  0.73126  0.59329  1.0000
  C   C705      1.0  0.74277  0.66498  0.61257  1.0000
  H   H1104     1.0  0.75654  0.59111  0.79200  1.0000
  H   H1105     1.0  0.91384  0.64890  0.54856  1.0000
  Fe  Fe142     1.0  0.96906  0.52667  0.65772  1.0000
  C   C706      1.0  0.89675  0.61571  0.59536  1.0000
  H   H1106     1.0  0.95630  0.64216  0.91151  1.0000
  H   H1107     1.0  0.95285  0.61400  0.97542  1.0000
  C   C707      1.0  0.93627  0.60105  0.52692  1.0000
  H   H1108     1.0  0.87937  0.61346  0.53423  1.0000
  H   H1109     1.0  0.90701  0.61221  0.57587  1.0000
  C   C708      1.0  0.96684  0.68825  0.84777  1.0000
  C   C709      1.0  0.86998  0.61645  0.55547  1.0000
  N   N69       1.0  0.88591  0.62959  0.58230  1.0000
  S   S286      1.0  0.89590  0.59281  0.97517  1.0000
  H   H1110     1.0  0.86089  0.62612  0.54602  1.0000
  H   H1111     1.0  0.96158  0.67609  0.82719  1.0000
  H   H1112     1.0  0.95871  0.56326  0.77130  1.0000
  N   N70       1.0  0.89501  0.70000  0.84754  1.0000
  C   C710      1.0  0.88133  0.69751  0.81761  1.0000
  C   C711      1.0  0.88766  0.71101  0.87431  1.0000
  C   C712      1.0  0.91977  0.71466  0.84022  1.0000
  C   C713      1.0  0.89126  0.67670  0.85824  1.0000
  H   H1113     1.0  0.88349  0.71471  0.80896  1.0000
  H   H1114     1.0  0.86258  0.68630  0.82234  1.0000
  H   H1115     1.0  0.88651  0.68929  0.79695  1.0000
  H   H1116     1.0  0.89764  0.71302  0.89732  1.0000
  H   H1117     1.0  0.89027  0.72868  0.86721  1.0000
  H   H1118     1.0  0.86908  0.70035  0.88063  1.0000
  H   H1119     1.0  0.93041  0.71741  0.86269  1.0000
  H   H1120     1.0  0.92323  0.73219  0.83118  1.0000
  H   H1121     1.0  0.92624  0.70646  0.82112  1.0000
  H   H1122     1.0  0.90115  0.67800  0.88094  1.0000
  H   H1123     1.0  0.89672  0.66780  0.83890  1.0000
  H   H1124     1.0  0.76598  0.60763  0.84904  1.0000
  C   C714      1.0  0.90395  0.65189  0.56920  1.0000
  H   H1125     1.0  0.85892  0.61793  0.61914  1.0000
  C   C715      1.0  0.73276  0.61238  0.81728  1.0000
  H   H1126     1.0  0.75511  0.68338  0.60683  1.0000
  H   H1127     1.0  0.75295  0.65673  0.62281  1.0000
  S   S287      1.0  0.95776  0.50736  0.70679  1.0000
  H   H1128     1.0  0.91647  0.66223  0.58861  1.0000
  H   H1129     1.0  0.93536  0.49564  0.51567  1.0000
  H   H1130     1.0  0.90867  0.62495  0.61597  1.0000
  H   H1131     1.0  0.93183  0.62620  0.93783  1.0000
  H   H1132     1.0  0.72791  0.62125  0.83740  1.0000
  C   C716      1.0  0.74620  0.65140  0.55801  1.0000
  H   H1133     1.0  0.88431  0.64428  0.62972  1.0000
  H   H1134     1.0  0.95673  0.55970  0.51243  1.0000
  H   H1135     1.0  0.75948  0.66920  0.55101  1.0000
  H   H1136     1.0  0.89632  0.66288  0.55944  1.0000
  Fe  Fe143     1.0  0.86090  0.65079  0.99111  1.0000
  H   H1137     1.0  0.72698  0.57569  0.77948  1.0000
  H   H1138     1.0  0.74344  0.71019  0.64289  1.0000
  H   H1139     1.0  0.92209  0.56825  0.98712  1.0000
  H   H1140     1.0  0.75553  0.64196  0.56761  1.0000
  H   H1141     1.0  0.73827  0.56271  0.80842  1.0000
  H   H1142     1.0  0.76408  0.79369  0.49473  1.0000
  H   H1143     1.0  0.87928  0.57599  0.50851  1.0000
  H   H1144     1.0  0.94612  0.66771  0.98868  1.0000
  N   N71       1.0  0.73195  0.59032  0.82854  1.0000
  C   C717      1.0  0.74801  0.59519  0.85633  1.0000
  H   H1145     1.0  0.73096  0.66518  0.63255  1.0000
  H   H1146     1.0  0.96055  0.55695  0.72826  1.0000
  H   H1147     1.0  0.96616  0.54067  0.75917  1.0000
  H   H1148     1.0  0.74829  0.57902  0.86506  1.0000
  C   C718      1.0  0.97054  0.49300  0.72954  1.0000
  Fe  Fe144     1.0  0.72832  0.66019  0.70090  1.0000
  S   S288      1.0  0.72609  0.64805  0.75336  1.0000
  H   H1149     1.0  0.73719  0.64214  0.53517  1.0000
  H   H1150     1.0  0.92807  0.54802  0.49658  1.0000
  H   H1151     1.0  0.74529  0.76499  0.50984  1.0000
  N   N72       1.0  0.72988  0.65229  0.58301  1.0000
  C   C719      1.0  0.72681  0.70749  0.63418  1.0000
  H   H1152     1.0  0.72960  0.68274  0.56235  1.0000
  C   C720      1.0  0.95041  0.65307  0.99258  1.0000
